data_image0
_cell_length_a       13.2012
_cell_length_b       16.764
_cell_length_c       23.0355
_cell_angle_alpha    105.558
_cell_angle_beta     90
_cell_angle_gamma    90

_symmetry_space_group_name_H-M    P 1
_symmetry_int_tables_number       1

loop_
  _symmetry_equiv_pos_as_xyz
  'x, y, z'

loop_
  _atom_site_label
  _atom_site_occupancy
  _atom_site_fract_x
  _atom_site_fract_y
  _atom_site_fract_z
  _atom_site_thermal_displace_type
  _atom_site_B_iso_or_equiv
  _atom_site_type_symbol
  Cu1      1.0000 0.28924  0.16159  0.75156  Biso   1.000  Cu
  Cu2      1.0000 0.78924  0.33841  0.74844  Biso   1.000  Cu
  Cu3      1.0000 0.71076  0.83841  0.24844  Biso   1.000  Cu
  Cu4      1.0000 0.21076  0.66159  0.25156  Biso   1.000  Cu
  Cu5      1.0000 0.00000  0.00000  0.00000  Biso   1.000  Cu
  Cu6      1.0000 0.50000  0.50000  0.50000  Biso   1.000  Cu
  H1       1.0000 0.34700  0.96900  0.69010  Biso   1.000  H
  H2       1.0000 0.08740  0.07430  0.70230  Biso   1.000  H
  H3       1.0000 0.97580  0.94010  0.66460  Biso   1.000  H
  H4       1.0000 0.03410  0.85620  0.65440  Biso   1.000  H
  H5       1.0000 0.23690  0.77980  0.38320  Biso   1.000  H
  H6       1.0000 0.08590  0.82820  0.25180  Biso   1.000  H
  H7       1.0000 0.13500  0.98490  0.44280  Biso   1.000  H
  H8       1.0000 0.21480  0.92600  0.46010  Biso   1.000  H
  H9       1.0000 0.71420  0.87290  0.39050  Biso   1.000  H
  H10      1.0000 0.84420  0.68770  0.27860  Biso   1.000  H
  H11      1.0000 0.80030  0.74850  0.48000  Biso   1.000  H
  H12      1.0000 0.75470  0.83690  0.48710  Biso   1.000  H
  H13      1.0000 0.88060  0.83960  0.57690  Biso   1.000  H
  H14      1.0000 0.14830  0.94070  0.55730  Biso   1.000  H
  H15      1.0000 0.96990  0.85430  0.41560  Biso   1.000  H
  H16      1.0000 0.22150  0.03870  0.82860  Biso   1.000  H
  H17      1.0000 0.47830  0.15550  0.83780  Biso   1.000  H
  H18      1.0000 0.52370  0.00510  0.91600  Biso   1.000  H
  H19      1.0000 0.57650  0.08330  0.90500  Biso   1.000  H
  H20      1.0000 0.35800  0.13380  0.98890  Biso   1.000  H
  H21      1.0000 0.49250  0.20940  0.15080  Biso   1.000  H
  H22      1.0000 0.65530  0.10030  0.00480  Biso   1.000  H
  H23      1.0000 0.28290  0.24720  0.08900  Biso   1.000  H
  H24      1.0000 0.31690  0.22440  0.14790  Biso   1.000  H
  H25      1.0000 0.13270  0.16180  0.03760  Biso   1.000  H
  H26      1.0000 0.16340  0.96900  0.09470  Biso   1.000  H
  H27      1.0000 0.67950  0.13290  0.14970  Biso   1.000  H
  H28      1.0000 0.68220  0.22560  0.14790  Biso   1.000  H
  H29      1.0000 0.94280  0.19900  0.01600  Biso   1.000  H
  H30      1.0000 0.81000  0.03540  0.08350  Biso   1.000  H
  H31      1.0000 0.84700  0.53100  0.80990  Biso   1.000  H
  H32      1.0000 0.58740  0.42570  0.79770  Biso   1.000  H
  H33      1.0000 0.47580  0.55990  0.83540  Biso   1.000  H
  H34      1.0000 0.53410  0.64380  0.84560  Biso   1.000  H
  H35      1.0000 0.73690  0.72020  0.11680  Biso   1.000  H
  H36      1.0000 0.58590  0.67180  0.24820  Biso   1.000  H
  H37      1.0000 0.63500  0.51510  0.05720  Biso   1.000  H
  H38      1.0000 0.71480  0.57400  0.03990  Biso   1.000  H
  H39      1.0000 0.21420  0.62710  0.10950  Biso   1.000  H
  H40      1.0000 0.34420  0.81230  0.22140  Biso   1.000  H
  H41      1.0000 0.30030  0.75150  0.02000  Biso   1.000  H
  H42      1.0000 0.25470  0.66310  0.01290  Biso   1.000  H
  H43      1.0000 0.38060  0.66040  0.92310  Biso   1.000  H
  H44      1.0000 0.64830  0.55930  0.94270  Biso   1.000  H
  H45      1.0000 0.46990  0.64570  0.08440  Biso   1.000  H
  H46      1.0000 0.72150  0.46130  0.67140  Biso   1.000  H
  H47      1.0000 0.97830  0.34450  0.66220  Biso   1.000  H
  H48      1.0000 0.02370  0.49490  0.58400  Biso   1.000  H
  H49      1.0000 0.07650  0.41670  0.59500  Biso   1.000  H
  H50      1.0000 0.85800  0.36620  0.51110  Biso   1.000  H
  H51      1.0000 0.99250  0.29060  0.34920  Biso   1.000  H
  H52      1.0000 0.15530  0.39970  0.49520  Biso   1.000  H
  H53      1.0000 0.78290  0.25280  0.41100  Biso   1.000  H
  H54      1.0000 0.81690  0.27560  0.35210  Biso   1.000  H
  H55      1.0000 0.63270  0.33820  0.46240  Biso   1.000  H
  H56      1.0000 0.66340  0.53100  0.40530  Biso   1.000  H
  H57      1.0000 0.17950  0.36710  0.35030  Biso   1.000  H
  H58      1.0000 0.18220  0.27440  0.35210  Biso   1.000  H
  H59      1.0000 0.44280  0.30100  0.48400  Biso   1.000  H
  H60      1.0000 0.31000  0.46460  0.41650  Biso   1.000  H
  H61      1.0000 0.65300  0.03100  0.30990  Biso   1.000  H
  H62      1.0000 0.91260  0.92570  0.29770  Biso   1.000  H
  H63      1.0000 0.02420  0.05990  0.33540  Biso   1.000  H
  H64      1.0000 0.96590  0.14380  0.34560  Biso   1.000  H
  H65      1.0000 0.76310  0.22020  0.61680  Biso   1.000  H
  H66      1.0000 0.91410  0.17180  0.74820  Biso   1.000  H
  H67      1.0000 0.86500  0.01510  0.55720  Biso   1.000  H
  H68      1.0000 0.78520  0.07400  0.53990  Biso   1.000  H
  H69      1.0000 0.28580  0.12710  0.60950  Biso   1.000  H
  H70      1.0000 0.15580  0.31230  0.72140  Biso   1.000  H
  H71      1.0000 0.19970  0.25150  0.52000  Biso   1.000  H
  H72      1.0000 0.24530  0.16310  0.51290  Biso   1.000  H
  H73      1.0000 0.11940  0.16040  0.42310  Biso   1.000  H
  H74      1.0000 0.85170  0.05930  0.44270  Biso   1.000  H
  H75      1.0000 0.03010  0.14570  0.58440  Biso   1.000  H
  H76      1.0000 0.77850  0.96130  0.17140  Biso   1.000  H
  H77      1.0000 0.52170  0.84450  0.16220  Biso   1.000  H
  H78      1.0000 0.47630  0.99490  0.08400  Biso   1.000  H
  H79      1.0000 0.42350  0.91670  0.09500  Biso   1.000  H
  H80      1.0000 0.64200  0.86620  0.01110  Biso   1.000  H
  H81      1.0000 0.50750  0.79060  0.84920  Biso   1.000  H
  H82      1.0000 0.34470  0.89970  0.99520  Biso   1.000  H
  H83      1.0000 0.71710  0.75280  0.91100  Biso   1.000  H
  H84      1.0000 0.68310  0.77560  0.85210  Biso   1.000  H
  H85      1.0000 0.86730  0.83820  0.96240  Biso   1.000  H
  H86      1.0000 0.83660  0.03100  0.90530  Biso   1.000  H
  H87      1.0000 0.32050  0.86710  0.85030  Biso   1.000  H
  H88      1.0000 0.31780  0.77440  0.85210  Biso   1.000  H
  H89      1.0000 0.05720  0.80100  0.98400  Biso   1.000  H
  H90      1.0000 0.19000  0.96460  0.91650  Biso   1.000  H
  H91      1.0000 0.15300  0.46900  0.19010  Biso   1.000  H
  H92      1.0000 0.41260  0.57430  0.20230  Biso   1.000  H
  H93      1.0000 0.52420  0.44010  0.16460  Biso   1.000  H
  H94      1.0000 0.46590  0.35620  0.15440  Biso   1.000  H
  H95      1.0000 0.26310  0.27980  0.88320  Biso   1.000  H
  H96      1.0000 0.41410  0.32820  0.75180  Biso   1.000  H
  H97      1.0000 0.36500  0.48490  0.94280  Biso   1.000  H
  H98      1.0000 0.28520  0.42600  0.96010  Biso   1.000  H
  H99      1.0000 0.78580  0.37290  0.89050  Biso   1.000  H
  H100     1.0000 0.65580  0.18770  0.77860  Biso   1.000  H
  H101     1.0000 0.69970  0.24850  0.98000  Biso   1.000  H
  H102     1.0000 0.74530  0.33690  0.98710  Biso   1.000  H
  H103     1.0000 0.61940  0.33960  0.07690  Biso   1.000  H
  H104     1.0000 0.35170  0.44070  0.05730  Biso   1.000  H
  H105     1.0000 0.53010  0.35430  0.91560  Biso   1.000  H
  H106     1.0000 0.27850  0.53870  0.32860  Biso   1.000  H
  H107     1.0000 0.02170  0.65550  0.33780  Biso   1.000  H
  H108     1.0000 0.97630  0.50510  0.41600  Biso   1.000  H
  H109     1.0000 0.92350  0.58330  0.40500  Biso   1.000  H
  H110     1.0000 0.14200  0.63380  0.48890  Biso   1.000  H
  H111     1.0000 0.00750  0.70940  0.65080  Biso   1.000  H
  H112     1.0000 0.84470  0.60030  0.50480  Biso   1.000  H
  H113     1.0000 0.21710  0.74720  0.58900  Biso   1.000  H
  H114     1.0000 0.18310  0.72440  0.64790  Biso   1.000  H
  H115     1.0000 0.36730  0.66180  0.53760  Biso   1.000  H
  H116     1.0000 0.33660  0.46900  0.59470  Biso   1.000  H
  H117     1.0000 0.82050  0.63290  0.64970  Biso   1.000  H
  H118     1.0000 0.81780  0.72560  0.64790  Biso   1.000  H
  H119     1.0000 0.55720  0.69900  0.51600  Biso   1.000  H
  H120     1.0000 0.69000  0.53540  0.58350  Biso   1.000  H
  C1       1.0000 0.27760  0.97640  0.68660  Biso   1.000  C
  C2       1.0000 0.13890  0.03510  0.69450  Biso   1.000  C
  C3       1.0000 0.03340  0.90880  0.64430  Biso   1.000  C
  C4       1.0000 0.19640  0.80550  0.36050  Biso   1.000  C
  C5       1.0000 0.11310  0.83320  0.28980  Biso   1.000  C
  C6       1.0000 0.14840  0.92790  0.44250  Biso   1.000  C
  C7       1.0000 0.75170  0.82530  0.37370  Biso   1.000  C
  C8       1.0000 0.82270  0.72510  0.31410  Biso   1.000  C
  C9       1.0000 0.80880  0.79960  0.46840  Biso   1.000  C
  C10      1.0000 0.90930  0.83810  0.49230  Biso   1.000  C
  C11      1.0000 0.92880  0.85440  0.55230  Biso   1.000  C
  C12      1.0000 0.01850  0.89240  0.57870  Biso   1.000  C
  C13      1.0000 0.08840  0.91520  0.54100  Biso   1.000  C
  C14      1.0000 0.07160  0.90100  0.48020  Biso   1.000  C
  C15      1.0000 0.98220  0.86330  0.45660  Biso   1.000  C
  C16      1.0000 0.28650  0.05760  0.84060  Biso   1.000  C
  C17      1.0000 0.42650  0.12150  0.84470  Biso   1.000  C
  C18      1.0000 0.51540  0.06390  0.92010  Biso   1.000  C
  C19      1.0000 0.50520  0.10760  0.98580  Biso   1.000  C
  C20      1.0000 0.41600  0.13730  0.01240  Biso   1.000  C
  C21      1.0000 0.41030  0.17350  0.07580  Biso   1.000  C
  C22      1.0000 0.49600  0.18340  0.10980  Biso   1.000  C
  C23      1.0000 0.58890  0.15470  0.08360  Biso   1.000  C
  C24      1.0000 0.59310  0.11830  0.02250  Biso   1.000  C
  C25      1.0000 0.30850  0.20290  0.10470  Biso   1.000  C
  C26      1.0000 0.15680  0.12420  0.05760  Biso   1.000  C
  C27      1.0000 0.17520  0.02080  0.08850  Biso   1.000  C
  C28      1.0000 0.68270  0.16880  0.12300  Biso   1.000  C
  C29      1.0000 0.89760  0.17420  0.03680  Biso   1.000  C
  C30      1.0000 0.82680  0.08420  0.07380  Biso   1.000  C
  C31      1.0000 0.77760  0.52360  0.81340  Biso   1.000  C
  C32      1.0000 0.63890  0.46490  0.80550  Biso   1.000  C
  C33      1.0000 0.53340  0.59120  0.85570  Biso   1.000  C
  C34      1.0000 0.69640  0.69450  0.13950  Biso   1.000  C
  C35      1.0000 0.61310  0.66680  0.21020  Biso   1.000  C
  C36      1.0000 0.64840  0.57210  0.05750  Biso   1.000  C
  C37      1.0000 0.25170  0.67470  0.12630  Biso   1.000  C
  C38      1.0000 0.32270  0.77490  0.18590  Biso   1.000  C
  C39      1.0000 0.30880  0.70040  0.03160  Biso   1.000  C
  C40      1.0000 0.40930  0.66190  0.00770  Biso   1.000  C
  C41      1.0000 0.42880  0.64560  0.94770  Biso   1.000  C
  C42      1.0000 0.51850  0.60760  0.92130  Biso   1.000  C
  C43      1.0000 0.58840  0.58480  0.95900  Biso   1.000  C
  C44      1.0000 0.57160  0.59900  0.01980  Biso   1.000  C
  C45      1.0000 0.48220  0.63670  0.04340  Biso   1.000  C
  C46      1.0000 0.78650  0.44240  0.65940  Biso   1.000  C
  C47      1.0000 0.92650  0.37850  0.65530  Biso   1.000  C
  C48      1.0000 0.01540  0.43610  0.57990  Biso   1.000  C
  C49      1.0000 0.00520  0.39240  0.51420  Biso   1.000  C
  C50      1.0000 0.91600  0.36270  0.48760  Biso   1.000  C
  C51      1.0000 0.91030  0.32650  0.42420  Biso   1.000  C
  C52      1.0000 0.99600  0.31660  0.39020  Biso   1.000  C
  C53      1.0000 0.08890  0.34530  0.41640  Biso   1.000  C
  C54      1.0000 0.09310  0.38170  0.47750  Biso   1.000  C
  C55      1.0000 0.80850  0.29710  0.39530  Biso   1.000  C
  C56      1.0000 0.65680  0.37580  0.44240  Biso   1.000  C
  C57      1.0000 0.67520  0.47920  0.41150  Biso   1.000  C
  C58      1.0000 0.18270  0.33120  0.37700  Biso   1.000  C
  C59      1.0000 0.39760  0.32580  0.46320  Biso   1.000  C
  C60      1.0000 0.32680  0.41580  0.42620  Biso   1.000  C
  C61      1.0000 0.72240  0.02360  0.31340  Biso   1.000  C
  C62      1.0000 0.86110  0.96490  0.30550  Biso   1.000  C
  C63      1.0000 0.96660  0.09120  0.35570  Biso   1.000  C
  C64      1.0000 0.80360  0.19450  0.63950  Biso   1.000  C
  C65      1.0000 0.88690  0.16680  0.71020  Biso   1.000  C
  C66      1.0000 0.85160  0.07210  0.55750  Biso   1.000  C
  C67      1.0000 0.24830  0.17470  0.62630  Biso   1.000  C
  C68      1.0000 0.17730  0.27490  0.68590  Biso   1.000  C
  C69      1.0000 0.19120  0.20040  0.53160  Biso   1.000  C
  C70      1.0000 0.09070  0.16190  0.50770  Biso   1.000  C
  C71      1.0000 0.07120  0.14560  0.44770  Biso   1.000  C
  C72      1.0000 0.98150  0.10760  0.42130  Biso   1.000  C
  C73      1.0000 0.91160  0.08480  0.45900  Biso   1.000  C
  C74      1.0000 0.92840  0.09900  0.51980  Biso   1.000  C
  C75      1.0000 0.01780  0.13670  0.54340  Biso   1.000  C
  C76      1.0000 0.71350  0.94240  0.15940  Biso   1.000  C
  C77      1.0000 0.57350  0.87850  0.15530  Biso   1.000  C
  C78      1.0000 0.48460  0.93610  0.07990  Biso   1.000  C
  C79      1.0000 0.49480  0.89240  0.01420  Biso   1.000  C
  C80      1.0000 0.58400  0.86270  0.98760  Biso   1.000  C
  C81      1.0000 0.58970  0.82650  0.92420  Biso   1.000  C
  C82      1.0000 0.50400  0.81660  0.89020  Biso   1.000  C
  C83      1.0000 0.41110  0.84530  0.91640  Biso   1.000  C
  C84      1.0000 0.40690  0.88170  0.97750  Biso   1.000  C
  C85      1.0000 0.69150  0.79710  0.89530  Biso   1.000  C
  C86      1.0000 0.84320  0.87580  0.94240  Biso   1.000  C
  C87      1.0000 0.82480  0.97920  0.91150  Biso   1.000  C
  C88      1.0000 0.31730  0.83120  0.87700  Biso   1.000  C
  C89      1.0000 0.10240  0.82580  0.96320  Biso   1.000  C
  C90      1.0000 0.17320  0.91580  0.92620  Biso   1.000  C
  C91      1.0000 0.22240  0.47640  0.18660  Biso   1.000  C
  C92      1.0000 0.36110  0.53510  0.19450  Biso   1.000  C
  C93      1.0000 0.46660  0.40880  0.14430  Biso   1.000  C
  C94      1.0000 0.30360  0.30550  0.86050  Biso   1.000  C
  C95      1.0000 0.38690  0.33320  0.78980  Biso   1.000  C
  C96      1.0000 0.35160  0.42790  0.94250  Biso   1.000  C
  C97      1.0000 0.74830  0.32530  0.87370  Biso   1.000  C
  C98      1.0000 0.67730  0.22510  0.81410  Biso   1.000  C
  C99      1.0000 0.69120  0.29960  0.96840  Biso   1.000  C
  C100     1.0000 0.59070  0.33810  0.99230  Biso   1.000  C
  C101     1.0000 0.57120  0.35440  0.05230  Biso   1.000  C
  C102     1.0000 0.48150  0.39240  0.07870  Biso   1.000  C
  C103     1.0000 0.41160  0.41520  0.04100  Biso   1.000  C
  C104     1.0000 0.42840  0.40100  0.98020  Biso   1.000  C
  C105     1.0000 0.51780  0.36330  0.95660  Biso   1.000  C
  C106     1.0000 0.21350  0.55760  0.34060  Biso   1.000  C
  C107     1.0000 0.07350  0.62150  0.34470  Biso   1.000  C
  C108     1.0000 0.98460  0.56390  0.42010  Biso   1.000  C
  C109     1.0000 0.99480  0.60760  0.48580  Biso   1.000  C
  C110     1.0000 0.08400  0.63730  0.51240  Biso   1.000  C
  C111     1.0000 0.08970  0.67350  0.57580  Biso   1.000  C
  C112     1.0000 0.00400  0.68340  0.60980  Biso   1.000  C
  C113     1.0000 0.91110  0.65470  0.58360  Biso   1.000  C
  C114     1.0000 0.90690  0.61830  0.52250  Biso   1.000  C
  C115     1.0000 0.19150  0.70290  0.60470  Biso   1.000  C
  C116     1.0000 0.34320  0.62420  0.55760  Biso   1.000  C
  C117     1.0000 0.32480  0.52080  0.58850  Biso   1.000  C
  C118     1.0000 0.81730  0.66880  0.62300  Biso   1.000  C
  C119     1.0000 0.60240  0.67420  0.53680  Biso   1.000  C
  C120     1.0000 0.67320  0.58420  0.57380  Biso   1.000  C
  N1       1.0000 0.23390  0.05000  0.70780  Biso   1.000  N
  N2       1.0000 0.21900  0.91630  0.66110  Biso   1.000  N
  N3       1.0000 0.12690  0.95440  0.66780  Biso   1.000  N
  N4       1.0000 0.17560  0.77580  0.30230  Biso   1.000  N
  N5       1.0000 0.15000  0.87790  0.38120  Biso   1.000  N
  N6       1.0000 0.09450  0.89640  0.33600  Biso   1.000  N
  N7       1.0000 0.76380  0.79210  0.31480  Biso   1.000  N
  N8       1.0000 0.79940  0.78230  0.40460  Biso   1.000  N
  N9       1.0000 0.84590  0.71790  0.36680  Biso   1.000  N
  N10      1.0000 0.33810  0.11270  0.81800  Biso   1.000  N
  N11      1.0000 0.34060  0.03360  0.88210  Biso   1.000  N
  N12      1.0000 0.43150  0.07480  0.88290  Biso   1.000  N
  N13      1.0000 0.90620  0.09460  0.04040  Biso   1.000  N
  N14      1.0000 0.81820  0.21190  0.06600  Biso   1.000  N
  N15      1.0000 0.77660  0.15390  0.09030  Biso   1.000  N
  N16      1.0000 0.11580  0.05390  0.05480  Biso   1.000  N
  N17      1.0000 0.25110  0.06720  0.11200  Biso   1.000  N
  N18      1.0000 0.23730  0.13580  0.09220  Biso   1.000  N
  N19      1.0000 0.73390  0.45000  0.79220  Biso   1.000  N
  N20      1.0000 0.71900  0.58370  0.83890  Biso   1.000  N
  N21      1.0000 0.62690  0.54560  0.83220  Biso   1.000  N
  N22      1.0000 0.67560  0.72420  0.19770  Biso   1.000  N
  N23      1.0000 0.65000  0.62210  0.11880  Biso   1.000  N
  N24      1.0000 0.59450  0.60360  0.16400  Biso   1.000  N
  N25      1.0000 0.26380  0.70790  0.18520  Biso   1.000  N
  N26      1.0000 0.29940  0.71770  0.09540  Biso   1.000  N
  N27      1.0000 0.34590  0.78210  0.13320  Biso   1.000  N
  N28      1.0000 0.83810  0.38730  0.68200  Biso   1.000  N
  N29      1.0000 0.84060  0.46640  0.61790  Biso   1.000  N
  N30      1.0000 0.93150  0.42520  0.61710  Biso   1.000  N
  N31      1.0000 0.40620  0.40540  0.45960  Biso   1.000  N
  N32      1.0000 0.31820  0.28810  0.43400  Biso   1.000  N
  N33      1.0000 0.27660  0.34610  0.40970  Biso   1.000  N
  N34      1.0000 0.61580  0.44610  0.44520  Biso   1.000  N
  N35      1.0000 0.75110  0.43280  0.38800  Biso   1.000  N
  N36      1.0000 0.73730  0.36420  0.40780  Biso   1.000  N
  N37      1.0000 0.76610  0.95000  0.29220  Biso   1.000  N
  N38      1.0000 0.78100  0.08370  0.33890  Biso   1.000  N
  N39      1.0000 0.87310  0.04560  0.33220  Biso   1.000  N
  N40      1.0000 0.82440  0.22420  0.69770  Biso   1.000  N
  N41      1.0000 0.85000  0.12210  0.61880  Biso   1.000  N
  N42      1.0000 0.90550  0.10360  0.66400  Biso   1.000  N
  N43      1.0000 0.23620  0.20790  0.68520  Biso   1.000  N
  N44      1.0000 0.20060  0.21770  0.59540  Biso   1.000  N
  N45      1.0000 0.15410  0.28210  0.63320  Biso   1.000  N
  N46      1.0000 0.66190  0.88730  0.18200  Biso   1.000  N
  N47      1.0000 0.65940  0.96640  0.11790  Biso   1.000  N
  N48      1.0000 0.56850  0.92520  0.11710  Biso   1.000  N
  N49      1.0000 0.09380  0.90540  0.95960  Biso   1.000  N
  N50      1.0000 0.18180  0.78810  0.93400  Biso   1.000  N
  N51      1.0000 0.22340  0.84610  0.90970  Biso   1.000  N
  N52      1.0000 0.88420  0.94610  0.94520  Biso   1.000  N
  N53      1.0000 0.74890  0.93280  0.88800  Biso   1.000  N
  N54      1.0000 0.76270  0.86420  0.90780  Biso   1.000  N
  N55      1.0000 0.26610  0.55000  0.20780  Biso   1.000  N
  N56      1.0000 0.28100  0.41630  0.16110  Biso   1.000  N
  N57      1.0000 0.37310  0.45440  0.16780  Biso   1.000  N
  N58      1.0000 0.32440  0.27580  0.80230  Biso   1.000  N
  N59      1.0000 0.35000  0.37790  0.88120  Biso   1.000  N
  N60      1.0000 0.40550  0.39640  0.83600  Biso   1.000  N
  N61      1.0000 0.73620  0.29210  0.81480  Biso   1.000  N
  N62      1.0000 0.70060  0.28230  0.90460  Biso   1.000  N
  N63      1.0000 0.65410  0.21790  0.86680  Biso   1.000  N
  N64      1.0000 0.16190  0.61270  0.31800  Biso   1.000  N
  N65      1.0000 0.15940  0.53360  0.38210  Biso   1.000  N
  N66      1.0000 0.06850  0.57480  0.38290  Biso   1.000  N
  N67      1.0000 0.59380  0.59460  0.54040  Biso   1.000  N
  N68      1.0000 0.68180  0.71190  0.56600  Biso   1.000  N
  N69      1.0000 0.72340  0.65390  0.59030  Biso   1.000  N
  N70      1.0000 0.38420  0.55390  0.55480  Biso   1.000  N
  N71      1.0000 0.24890  0.56720  0.61200  Biso   1.000  N
  N72      1.0000 0.26270  0.63580  0.59220  Biso   1.000  N
