data_image0
_cell_length_a       12.7708
_cell_length_b       14.5298
_cell_length_c       18.8587
_cell_angle_alpha    82.784
_cell_angle_beta     72.179
_cell_angle_gamma    79.385

_symmetry_space_group_name_H-M    P 1
_symmetry_int_tables_number       1

loop_
  _symmetry_equiv_pos_as_xyz
  'x, y, z'

loop_
  _atom_site_label
  _atom_site_occupancy
  _atom_site_fract_x
  _atom_site_fract_y
  _atom_site_fract_z
  _atom_site_thermal_displace_type
  _atom_site_B_iso_or_equiv
  _atom_site_type_symbol
  U1       1.0000 0.44747  0.42254  0.10254  Biso   1.000  U
  U2       1.0000 0.53863  0.83537  0.10276  Biso   1.000  U
  U3       1.0000 0.28638  0.05132  0.26346  Biso   1.000  U
  U4       1.0000 0.18149  0.83431  0.46400  Biso   1.000  U
  U5       1.0000 0.13028  0.41650  0.42757  Biso   1.000  U
  U6       1.0000 0.55253  0.57746  0.89746  Biso   1.000  U
  U7       1.0000 0.46137  0.16463  0.89724  Biso   1.000  U
  U8       1.0000 0.71362  0.94868  0.73654  Biso   1.000  U
  U9       1.0000 0.81851  0.16569  0.53600  Biso   1.000  U
  U10      1.0000 0.86972  0.58351  0.57243  Biso   1.000  U
  Mn1      1.0000 0.95484  0.63611  0.18235  Biso   1.000  Mn
  Mn2      1.0000 0.61878  0.47025  0.24818  Biso   1.000  Mn
  Mn3      1.0000 0.43715  0.48159  0.43087  Biso   1.000  Mn
  Mn4      1.0000 0.04516  0.36389  0.81765  Biso   1.000  Mn
  Mn5      1.0000 0.38122  0.52975  0.75182  Biso   1.000  Mn
  Mn6      1.0000 0.56285  0.51841  0.56913  Biso   1.000  Mn
  P1       1.0000 0.60251  0.57485  0.08495  Biso   1.000  P
  P2       1.0000 0.41353  0.35979  0.30446  Biso   1.000  P
  P3       1.0000 0.35642  0.20032  0.09422  Biso   1.000  P
  P4       1.0000 0.41046  0.82434  0.29830  Biso   1.000  P
  P5       1.0000 0.06904  0.19813  0.38649  Biso   1.000  P
  P6       1.0000 0.82062  0.42557  0.49303  Biso   1.000  P
  P7       1.0000 0.39749  0.42515  0.91505  Biso   1.000  P
  P8       1.0000 0.58647  0.64021  0.69554  Biso   1.000  P
  P9       1.0000 0.64358  0.79968  0.90578  Biso   1.000  P
  P10      1.0000 0.58954  0.17566  0.70170  Biso   1.000  P
  P11      1.0000 0.93096  0.80187  0.61351  Biso   1.000  P
  P12      1.0000 0.17938  0.57443  0.50697  Biso   1.000  P
  H1       1.0000 0.78220  0.57940  0.00850  Biso   1.000  H
  H2       1.0000 0.76760  0.47420  0.04240  Biso   1.000  H
  H3       1.0000 0.47840  0.20160  0.32150  Biso   1.000  H
  H4       1.0000 0.53550  0.26220  0.36000  Biso   1.000  H
  H5       1.0000 0.50310  0.16250  0.14810  Biso   1.000  H
  H6       1.0000 0.55130  0.17030  0.05880  Biso   1.000  H
  H7       1.0000 0.51660  0.78470  0.38050  Biso   1.000  H
  H8       1.0000 0.59460  0.77910  0.29610  Biso   1.000  H
  H9       1.0000 0.11350  0.16680  0.49990  Biso   1.000  H
  H10      1.0000 0.22520  0.16150  0.43140  Biso   1.000  H
  H11      1.0000 0.86050  0.42230  0.36550  Biso   1.000  H
  H12      1.0000 0.81040  0.52660  0.39000  Biso   1.000  H
  H13      1.0000 0.21780  0.42060  0.99150  Biso   1.000  H
  H14      1.0000 0.23240  0.52580  0.95760  Biso   1.000  H
  H15      1.0000 0.52160  0.79840  0.67850  Biso   1.000  H
  H16      1.0000 0.46450  0.73780  0.64000  Biso   1.000  H
  H17      1.0000 0.49690  0.83750  0.85190  Biso   1.000  H
  H18      1.0000 0.44870  0.82970  0.94120  Biso   1.000  H
  H19      1.0000 0.48340  0.21530  0.61950  Biso   1.000  H
  H20      1.0000 0.40540  0.22090  0.70390  Biso   1.000  H
  H21      1.0000 0.88650  0.83320  0.50010  Biso   1.000  H
  H22      1.0000 0.77480  0.83850  0.56860  Biso   1.000  H
  H23      1.0000 0.13950  0.57770  0.63450  Biso   1.000  H
  H24      1.0000 0.18960  0.47340  0.61000  Biso   1.000  H
  C1       1.0000 0.75030  0.54070  0.05450  Biso   1.000  C
  C2       1.0000 0.80420  0.55260  0.11500  Biso   1.000  C
  C3       1.0000 0.51360  0.25870  0.31460  Biso   1.000  C
  C4       1.0000 0.61750  0.24970  0.24780  Biso   1.000  C
  C5       1.0000 0.49320  0.14600  0.10140  Biso   1.000  C
  C6       1.0000 0.50650  0.04200  0.10140  Biso   1.000  C
  C7       1.0000 0.52370  0.76340  0.33110  Biso   1.000  C
  C8       1.0000 0.52680  0.65710  0.33810  Biso   1.000  C
  C9       1.0000 0.14980  0.14350  0.44970  Biso   1.000  C
  C10      1.0000 0.15940  0.03890  0.45510  Biso   1.000  C
  C11      1.0000 0.80150  0.45970  0.40290  Biso   1.000  C
  C12      1.0000 0.68950  0.44710  0.39760  Biso   1.000  C
  C13      1.0000 0.24970  0.45930  0.94550  Biso   1.000  C
  C14      1.0000 0.19580  0.44740  0.88500  Biso   1.000  C
  C15      1.0000 0.48640  0.74130  0.68540  Biso   1.000  C
  C16      1.0000 0.38250  0.75030  0.75220  Biso   1.000  C
  C17      1.0000 0.50680  0.85400  0.89860  Biso   1.000  C
  C18      1.0000 0.49350  0.95800  0.89860  Biso   1.000  C
  C19      1.0000 0.47630  0.23660  0.66890  Biso   1.000  C
  C20      1.0000 0.47320  0.34290  0.66190  Biso   1.000  C
  C21      1.0000 0.85020  0.85650  0.55030  Biso   1.000  C
  C22      1.0000 0.84060  0.96110  0.54490  Biso   1.000  C
  C23      1.0000 0.19850  0.54030  0.59710  Biso   1.000  C
  C24      1.0000 0.31050  0.55290  0.60240  Biso   1.000  C
  O1       1.0000 0.57890  0.67590  0.09990  Biso   1.000  O
  O2       1.0000 0.55350  0.55110  0.02560  Biso   1.000  O
  O3       1.0000 0.55270  0.51000  0.15370  Biso   1.000  O
  O4       1.0000 0.77720  0.50470  0.17590  Biso   1.000  O
  O5       1.0000 0.87490  0.60870  0.10000  Biso   1.000  O
  O6       1.0000 0.40860  0.36780  0.22420  Biso   1.000  O
  O7       1.0000 0.30200  0.34750  0.36180  Biso   1.000  O
  O8       1.0000 0.45650  0.44520  0.31990  Biso   1.000  O
  O9       1.0000 0.65380  0.17130  0.22170  Biso   1.000  O
  O10      1.0000 0.66140  0.32430  0.21870  Biso   1.000  O
  O11      1.0000 0.34520  0.30530  0.10090  Biso   1.000  O
  O12      1.0000 0.27260  0.15340  0.15860  Biso   1.000  O
  O13      1.0000 0.34450  0.17760  0.01750  Biso   1.000  O
  O14      1.0000 0.57790  0.99740  0.05010  Biso   1.000  O
  O15      1.0000 0.44190  0.99590  0.15450  Biso   1.000  O
  O16      1.0000 0.30190  0.79830  0.35030  Biso   1.000  O
  O17      1.0000 0.42770  0.79730  0.21990  Biso   1.000  O
  O18      1.0000 0.41360  0.92930  0.29880  Biso   1.000  O
  O19      1.0000 0.46160  0.62260  0.39540  Biso   1.000  O
  O20      1.0000 0.59380  0.61060  0.28520  Biso   1.000  O
  O21      1.0000 0.07460  0.30310  0.37820  Biso   1.000  O
  O22      1.0000 0.12400  0.15240  0.31250  Biso   1.000  O
  O23      1.0000 0.94810  0.17820  0.41900  Biso   1.000  O
  O24      1.0000 0.11830  0.99280  0.51370  Biso   1.000  O
  O25      1.0000 0.21150  0.99470  0.39530  Biso   1.000  O
  O26      1.0000 0.80570  0.32480  0.51340  Biso   1.000  O
  O27      1.0000 0.93470  0.44800  0.48930  Biso   1.000  O
  O28      1.0000 0.73980  0.49400  0.54900  Biso   1.000  O
  O29      1.0000 0.60340  0.47080  0.45020  Biso   1.000  O
  O30      1.0000 0.68730  0.41310  0.33960  Biso   1.000  O
  O31      1.0000 0.32470  0.50610  0.12530  Biso   1.000  O
  O32      1.0000 0.57200  0.34070  0.07470  Biso   1.000  O
  O33      1.0000 0.65190  0.83450  0.13850  Biso   1.000  O
  O34      1.0000 0.42290  0.83810  0.06910  Biso   1.000  O
  O35      1.0000 0.36470  0.12610  0.28560  Biso   1.000  O
  O36      1.0000 0.21050  0.96920  0.24240  Biso   1.000  O
  O37      1.0000 0.07170  0.84020  0.42460  Biso   1.000  O
  O38      1.0000 0.29410  0.83140  0.50130  Biso   1.000  O
  O39      1.0000 0.11460  0.49450  0.35050  Biso   1.000  O
  O40      1.0000 0.14170  0.33960  0.50750  Biso   1.000  O
  O41      1.0000 0.79290  0.67590  0.25860  Biso   1.000  O
  O42      1.0000 0.96110  0.49070  0.22550  Biso   1.000  O
  O43      1.0000 0.11930  0.60480  0.10470  Biso   1.000  O
  O44      1.0000 0.96310  0.78410  0.14450  Biso   1.000  O
  O45      1.0000 0.02590  0.65670  0.27080  Biso   1.000  O
  O46      1.0000 0.45170  0.33920  0.48530  Biso   1.000  O
  O47      1.0000 0.42110  0.32410  0.90010  Biso   1.000  O
  O48      1.0000 0.44650  0.44890  0.97440  Biso   1.000  O
  O49      1.0000 0.44730  0.49000  0.84630  Biso   1.000  O
  O50      1.0000 0.22280  0.49530  0.82410  Biso   1.000  O
  O51      1.0000 0.12510  0.39130  0.90000  Biso   1.000  O
  O52      1.0000 0.59140  0.63220  0.77580  Biso   1.000  O
  O53      1.0000 0.69800  0.65250  0.63820  Biso   1.000  O
  O54      1.0000 0.54350  0.55480  0.68010  Biso   1.000  O
  O55      1.0000 0.34620  0.82870  0.77830  Biso   1.000  O
  O56      1.0000 0.33860  0.67570  0.78130  Biso   1.000  O
  O57      1.0000 0.65480  0.69470  0.89910  Biso   1.000  O
  O58      1.0000 0.72740  0.84660  0.84140  Biso   1.000  O
  O59      1.0000 0.65550  0.82240  0.98250  Biso   1.000  O
  O60      1.0000 0.42210  0.00260  0.94990  Biso   1.000  O
  O61      1.0000 0.55810  0.00410  0.84550  Biso   1.000  O
  O62      1.0000 0.69810  0.20170  0.64970  Biso   1.000  O
  O63      1.0000 0.57230  0.20270  0.78010  Biso   1.000  O
  O64      1.0000 0.58640  0.07070  0.70120  Biso   1.000  O
  O65      1.0000 0.53840  0.37740  0.60460  Biso   1.000  O
  O66      1.0000 0.40620  0.38940  0.71480  Biso   1.000  O
  O67      1.0000 0.92540  0.69690  0.62180  Biso   1.000  O
  O68      1.0000 0.87600  0.84760  0.68750  Biso   1.000  O
  O69      1.0000 0.05190  0.82180  0.58100  Biso   1.000  O
  O70      1.0000 0.88170  0.00720  0.48630  Biso   1.000  O
  O71      1.0000 0.78850  0.00530  0.60470  Biso   1.000  O
  O72      1.0000 0.19430  0.67520  0.48660  Biso   1.000  O
  O73      1.0000 0.06530  0.55200  0.51070  Biso   1.000  O
  O74      1.0000 0.26020  0.50600  0.45100  Biso   1.000  O
  O75      1.0000 0.39660  0.52920  0.54980  Biso   1.000  O
  O76      1.0000 0.31270  0.58690  0.66040  Biso   1.000  O
  O77      1.0000 0.67530  0.49390  0.87470  Biso   1.000  O
  O78      1.0000 0.42800  0.65930  0.92530  Biso   1.000  O
  O79      1.0000 0.34810  0.16550  0.86150  Biso   1.000  O
  O80      1.0000 0.57710  0.16190  0.93090  Biso   1.000  O
  O81      1.0000 0.63530  0.87390  0.71440  Biso   1.000  O
  O82      1.0000 0.78950  0.03080  0.75760  Biso   1.000  O
  O83      1.0000 0.92830  0.15980  0.57540  Biso   1.000  O
  O84      1.0000 0.70590  0.16860  0.49870  Biso   1.000  O
  O85      1.0000 0.88540  0.50550  0.64950  Biso   1.000  O
  O86      1.0000 0.85830  0.66040  0.49250  Biso   1.000  O
  O87      1.0000 0.20710  0.32410  0.74140  Biso   1.000  O
  O88      1.0000 0.03890  0.50930  0.77450  Biso   1.000  O
  O89      1.0000 0.88070  0.39520  0.89530  Biso   1.000  O
  O90      1.0000 0.03690  0.21590  0.85550  Biso   1.000  O
  O91      1.0000 0.97410  0.34330  0.72920  Biso   1.000  O
  O92      1.0000 0.54830  0.66080  0.51470  Biso   1.000  O
