data_image0
_cell_length_a       20.2937
_cell_length_b       20.2937
_cell_length_c       20.2937
_cell_angle_alpha    85.0058
_cell_angle_beta     85.0058
_cell_angle_gamma    85.0058

_symmetry_space_group_name_H-M    P 1
_symmetry_int_tables_number       1

loop_
  _symmetry_equiv_pos_as_xyz
  'x, y, z'

loop_
  _atom_site_label
  _atom_site_occupancy
  _atom_site_fract_x
  _atom_site_fract_y
  _atom_site_fract_z
  _atom_site_thermal_displace_type
  _atom_site_B_iso_or_equiv
  _atom_site_type_symbol
  Co1      1.0000 0.72207  0.02539  0.02539  Biso   1.000  Co
  Co2      1.0000 0.55572  0.07663  0.07663  Biso   1.000  Co
  Co3      1.0000 0.02539  0.72207  0.02539  Biso   1.000  Co
  Co4      1.0000 0.07663  0.55572  0.07663  Biso   1.000  Co
  Co5      1.0000 0.02539  0.02539  0.72207  Biso   1.000  Co
  Co6      1.0000 0.07663  0.07663  0.55572  Biso   1.000  Co
  Co7      1.0000 0.97461  0.27793  0.97461  Biso   1.000  Co
  Co8      1.0000 0.92337  0.44428  0.92337  Biso   1.000  Co
  Co9      1.0000 0.27793  0.97461  0.97461  Biso   1.000  Co
  Co10     1.0000 0.44428  0.92337  0.92337  Biso   1.000  Co
  Co11     1.0000 0.97461  0.97461  0.27793  Biso   1.000  Co
  Co12     1.0000 0.92337  0.92337  0.44428  Biso   1.000  Co
  Co13     1.0000 0.56243  0.56243  0.01320  Biso   1.000  Co
  Co14     1.0000 0.01320  0.56243  0.56243  Biso   1.000  Co
  Co15     1.0000 0.56243  0.01320  0.56243  Biso   1.000  Co
  Co16     1.0000 0.43757  0.43757  0.98680  Biso   1.000  Co
  Co17     1.0000 0.43757  0.98680  0.43757  Biso   1.000  Co
  Co18     1.0000 0.98680  0.43757  0.43757  Biso   1.000  Co
  H1       1.0000 0.38690  0.12100  0.26740  Biso   1.000  H
  H2       1.0000 0.47760  0.06980  0.21170  Biso   1.000  H
  H3       1.0000 0.58280  0.28230  0.01640  Biso   1.000  H
  H4       1.0000 0.51820  0.66480  0.78460  Biso   1.000  H
  H5       1.0000 0.49620  0.63860  0.89490  Biso   1.000  H
  H6       1.0000 0.62950  0.77630  0.01610  Biso   1.000  H
  H7       1.0000 0.26740  0.38690  0.12100  Biso   1.000  H
  H8       1.0000 0.21170  0.47760  0.06980  Biso   1.000  H
  H9       1.0000 0.01640  0.58280  0.28230  Biso   1.000  H
  H10      1.0000 0.78460  0.51820  0.66480  Biso   1.000  H
  H11      1.0000 0.89490  0.49620  0.63860  Biso   1.000  H
  H12      1.0000 0.01610  0.62950  0.77630  Biso   1.000  H
  H13      1.0000 0.12100  0.26740  0.38690  Biso   1.000  H
  H14      1.0000 0.06980  0.21170  0.47760  Biso   1.000  H
  H15      1.0000 0.28230  0.01640  0.58280  Biso   1.000  H
  H16      1.0000 0.66480  0.78460  0.51820  Biso   1.000  H
  H17      1.0000 0.63860  0.89490  0.49620  Biso   1.000  H
  H18      1.0000 0.77630  0.01610  0.62950  Biso   1.000  H
  H19      1.0000 0.87900  0.61310  0.73260  Biso   1.000  H
  H20      1.0000 0.93020  0.52240  0.78830  Biso   1.000  H
  H21      1.0000 0.71770  0.41720  0.98360  Biso   1.000  H
  H22      1.0000 0.33520  0.48180  0.21540  Biso   1.000  H
  H23      1.0000 0.36140  0.50380  0.10510  Biso   1.000  H
  H24      1.0000 0.22370  0.37050  0.98390  Biso   1.000  H
  H25      1.0000 0.61310  0.73260  0.87900  Biso   1.000  H
  H26      1.0000 0.52240  0.78830  0.93020  Biso   1.000  H
  H27      1.0000 0.41720  0.98360  0.71770  Biso   1.000  H
  H28      1.0000 0.48180  0.21540  0.33520  Biso   1.000  H
  H29      1.0000 0.50380  0.10510  0.36140  Biso   1.000  H
  H30      1.0000 0.37050  0.98390  0.22370  Biso   1.000  H
  H31      1.0000 0.73260  0.87900  0.61310  Biso   1.000  H
  H32      1.0000 0.78830  0.93020  0.52240  Biso   1.000  H
  H33      1.0000 0.98360  0.71770  0.41720  Biso   1.000  H
  H34      1.0000 0.21540  0.33520  0.48180  Biso   1.000  H
  H35      1.0000 0.10510  0.36140  0.50380  Biso   1.000  H
  H36      1.0000 0.98390  0.22370  0.37050  Biso   1.000  H
  H37      1.0000 0.61310  0.87900  0.73260  Biso   1.000  H
  H38      1.0000 0.52240  0.93020  0.78830  Biso   1.000  H
  H39      1.0000 0.41720  0.71770  0.98360  Biso   1.000  H
  H40      1.0000 0.48180  0.33520  0.21540  Biso   1.000  H
  H41      1.0000 0.50380  0.36140  0.10510  Biso   1.000  H
  H42      1.0000 0.37050  0.22370  0.98390  Biso   1.000  H
  H43      1.0000 0.73260  0.61310  0.87900  Biso   1.000  H
  H44      1.0000 0.78830  0.52240  0.93020  Biso   1.000  H
  H45      1.0000 0.98360  0.41720  0.71770  Biso   1.000  H
  H46      1.0000 0.21540  0.48180  0.33520  Biso   1.000  H
  H47      1.0000 0.10510  0.50380  0.36140  Biso   1.000  H
  H48      1.0000 0.98390  0.37050  0.22370  Biso   1.000  H
  H49      1.0000 0.87900  0.73260  0.61310  Biso   1.000  H
  H50      1.0000 0.93020  0.78830  0.52240  Biso   1.000  H
  H51      1.0000 0.71770  0.98360  0.41720  Biso   1.000  H
  H52      1.0000 0.33520  0.21540  0.48180  Biso   1.000  H
  H53      1.0000 0.36140  0.10510  0.50380  Biso   1.000  H
  H54      1.0000 0.22370  0.98390  0.37050  Biso   1.000  H
  H55      1.0000 0.12100  0.38690  0.26740  Biso   1.000  H
  H56      1.0000 0.06980  0.47760  0.21170  Biso   1.000  H
  H57      1.0000 0.28230  0.58280  0.01640  Biso   1.000  H
  H58      1.0000 0.66480  0.51820  0.78460  Biso   1.000  H
  H59      1.0000 0.63860  0.49620  0.89490  Biso   1.000  H
  H60      1.0000 0.77630  0.62950  0.01610  Biso   1.000  H
  H61      1.0000 0.38690  0.26740  0.12100  Biso   1.000  H
  H62      1.0000 0.47760  0.21170  0.06980  Biso   1.000  H
  H63      1.0000 0.58280  0.01640  0.28230  Biso   1.000  H
  H64      1.0000 0.51820  0.78460  0.66480  Biso   1.000  H
  H65      1.0000 0.49620  0.89490  0.63860  Biso   1.000  H
  H66      1.0000 0.62950  0.01610  0.77630  Biso   1.000  H
  H67      1.0000 0.26740  0.12100  0.38690  Biso   1.000  H
  H68      1.0000 0.21170  0.06980  0.47760  Biso   1.000  H
  H69      1.0000 0.01640  0.28230  0.58280  Biso   1.000  H
  H70      1.0000 0.78460  0.66480  0.51820  Biso   1.000  H
  H71      1.0000 0.89490  0.63860  0.49620  Biso   1.000  H
  H72      1.0000 0.01610  0.77630  0.62950  Biso   1.000  H
  H73      1.0000 0.77690  0.22310  0.00000  Biso   1.000  H
  H74      1.0000 0.00000  0.77690  0.22310  Biso   1.000  H
  H75      1.0000 0.22310  0.00000  0.77690  Biso   1.000  H
  H76      1.0000 0.22310  0.77690  0.00000  Biso   1.000  H
  H77      1.0000 0.00000  0.22310  0.77690  Biso   1.000  H
  H78      1.0000 0.77690  0.00000  0.22310  Biso   1.000  H
  H79      1.0000 0.81800  0.81800  0.02800  Biso   1.000  H
  H80      1.0000 0.02800  0.81800  0.81800  Biso   1.000  H
  H81      1.0000 0.81800  0.02800  0.81800  Biso   1.000  H
  H82      1.0000 0.18200  0.18200  0.97200  Biso   1.000  H
  H83      1.0000 0.18200  0.97200  0.18200  Biso   1.000  H
  H84      1.0000 0.97200  0.18200  0.18200  Biso   1.000  H
  C1       1.0000 0.66229  0.17007  0.02643  Biso   1.000  C
  C2       1.0000 0.40420  0.14020  0.22703  Biso   1.000  C
  C3       1.0000 0.45814  0.10945  0.19292  Biso   1.000  C
  C4       1.0000 0.67756  0.24134  0.01156  Biso   1.000  C
  C5       1.0000 0.62684  0.29231  0.01032  Biso   1.000  C
  C6       1.0000 0.54390  0.63090  0.80630  Biso   1.000  C
  C7       1.0000 0.69721  0.87971  0.02681  Biso   1.000  C
  C8       1.0000 0.53103  0.61483  0.87223  Biso   1.000  C
  C9       1.0000 0.72019  0.80839  0.02379  Biso   1.000  C
  C10      1.0000 0.67425  0.76229  0.01797  Biso   1.000  C
  C11      1.0000 0.02643  0.66229  0.17007  Biso   1.000  C
  C12      1.0000 0.22703  0.40420  0.14020  Biso   1.000  C
  C13      1.0000 0.19292  0.45814  0.10945  Biso   1.000  C
  C14      1.0000 0.01156  0.67756  0.24134  Biso   1.000  C
  C15      1.0000 0.01032  0.62684  0.29231  Biso   1.000  C
  C16      1.0000 0.80630  0.54390  0.63090  Biso   1.000  C
  C17      1.0000 0.02681  0.69721  0.87971  Biso   1.000  C
  C18      1.0000 0.87223  0.53103  0.61483  Biso   1.000  C
  C19      1.0000 0.02379  0.72019  0.80839  Biso   1.000  C
  C20      1.0000 0.01797  0.67425  0.76229  Biso   1.000  C
  C21      1.0000 0.17007  0.02643  0.66229  Biso   1.000  C
  C22      1.0000 0.14020  0.22703  0.40420  Biso   1.000  C
  C23      1.0000 0.10945  0.19292  0.45814  Biso   1.000  C
  C24      1.0000 0.24134  0.01156  0.67756  Biso   1.000  C
  C25      1.0000 0.29231  0.01032  0.62684  Biso   1.000  C
  C26      1.0000 0.63090  0.80630  0.54390  Biso   1.000  C
  C27      1.0000 0.87971  0.02681  0.69721  Biso   1.000  C
  C28      1.0000 0.61483  0.87223  0.53103  Biso   1.000  C
  C29      1.0000 0.80839  0.02379  0.72019  Biso   1.000  C
  C30      1.0000 0.76229  0.01797  0.67425  Biso   1.000  C
  C31      1.0000 0.82993  0.33771  0.97357  Biso   1.000  C
  C32      1.0000 0.85980  0.59580  0.77297  Biso   1.000  C
  C33      1.0000 0.89055  0.54186  0.80708  Biso   1.000  C
  C34      1.0000 0.75866  0.32244  0.98844  Biso   1.000  C
  C35      1.0000 0.70769  0.37316  0.98968  Biso   1.000  C
  C36      1.0000 0.36910  0.45610  0.19370  Biso   1.000  C
  C37      1.0000 0.12029  0.30279  0.97319  Biso   1.000  C
  C38      1.0000 0.38517  0.46897  0.12777  Biso   1.000  C
  C39      1.0000 0.19161  0.27981  0.97621  Biso   1.000  C
  C40      1.0000 0.23771  0.32575  0.98203  Biso   1.000  C
  C41      1.0000 0.33771  0.97357  0.82993  Biso   1.000  C
  C42      1.0000 0.59580  0.77297  0.85980  Biso   1.000  C
  C43      1.0000 0.54186  0.80708  0.89055  Biso   1.000  C
  C44      1.0000 0.32244  0.98844  0.75866  Biso   1.000  C
  C45      1.0000 0.37316  0.98968  0.70769  Biso   1.000  C
  C46      1.0000 0.45610  0.19370  0.36910  Biso   1.000  C
  C47      1.0000 0.30279  0.97319  0.12029  Biso   1.000  C
  C48      1.0000 0.46897  0.12777  0.38517  Biso   1.000  C
  C49      1.0000 0.27981  0.97621  0.19161  Biso   1.000  C
  C50      1.0000 0.32575  0.98203  0.23771  Biso   1.000  C
  C51      1.0000 0.97357  0.82993  0.33771  Biso   1.000  C
  C52      1.0000 0.77297  0.85980  0.59580  Biso   1.000  C
  C53      1.0000 0.80708  0.89055  0.54186  Biso   1.000  C
  C54      1.0000 0.98844  0.75866  0.32244  Biso   1.000  C
  C55      1.0000 0.98968  0.70769  0.37316  Biso   1.000  C
  C56      1.0000 0.19370  0.36910  0.45610  Biso   1.000  C
  C57      1.0000 0.97319  0.12029  0.30279  Biso   1.000  C
  C58      1.0000 0.12777  0.38517  0.46897  Biso   1.000  C
  C59      1.0000 0.97621  0.19161  0.27981  Biso   1.000  C
  C60      1.0000 0.98203  0.23771  0.32575  Biso   1.000  C
  C61      1.0000 0.33771  0.82993  0.97357  Biso   1.000  C
  C62      1.0000 0.59580  0.85980  0.77297  Biso   1.000  C
  C63      1.0000 0.54186  0.89055  0.80708  Biso   1.000  C
  C64      1.0000 0.32244  0.75866  0.98844  Biso   1.000  C
  C65      1.0000 0.37316  0.70769  0.98968  Biso   1.000  C
  C66      1.0000 0.45610  0.36910  0.19370  Biso   1.000  C
  C67      1.0000 0.30279  0.12029  0.97319  Biso   1.000  C
  C68      1.0000 0.46897  0.38517  0.12777  Biso   1.000  C
  C69      1.0000 0.27981  0.19161  0.97621  Biso   1.000  C
  C70      1.0000 0.32575  0.23771  0.98203  Biso   1.000  C
  C71      1.0000 0.97357  0.33771  0.82993  Biso   1.000  C
  C72      1.0000 0.77297  0.59580  0.85980  Biso   1.000  C
  C73      1.0000 0.80708  0.54186  0.89055  Biso   1.000  C
  C74      1.0000 0.98844  0.32244  0.75866  Biso   1.000  C
  C75      1.0000 0.98968  0.37316  0.70769  Biso   1.000  C
  C76      1.0000 0.19370  0.45610  0.36910  Biso   1.000  C
  C77      1.0000 0.97319  0.30279  0.12029  Biso   1.000  C
  C78      1.0000 0.12777  0.46897  0.38517  Biso   1.000  C
  C79      1.0000 0.97621  0.27981  0.19161  Biso   1.000  C
  C80      1.0000 0.98203  0.32575  0.23771  Biso   1.000  C
  C81      1.0000 0.82993  0.97357  0.33771  Biso   1.000  C
  C82      1.0000 0.85980  0.77297  0.59580  Biso   1.000  C
  C83      1.0000 0.89055  0.80708  0.54186  Biso   1.000  C
  C84      1.0000 0.75866  0.98844  0.32244  Biso   1.000  C
  C85      1.0000 0.70769  0.98968  0.37316  Biso   1.000  C
  C86      1.0000 0.36910  0.19370  0.45610  Biso   1.000  C
  C87      1.0000 0.12029  0.97319  0.30279  Biso   1.000  C
  C88      1.0000 0.38517  0.12777  0.46897  Biso   1.000  C
  C89      1.0000 0.19161  0.97621  0.27981  Biso   1.000  C
  C90      1.0000 0.23771  0.98203  0.32575  Biso   1.000  C
  C91      1.0000 0.17007  0.66229  0.02643  Biso   1.000  C
  C92      1.0000 0.14020  0.40420  0.22703  Biso   1.000  C
  C93      1.0000 0.10945  0.45814  0.19292  Biso   1.000  C
  C94      1.0000 0.24134  0.67756  0.01156  Biso   1.000  C
  C95      1.0000 0.29231  0.62684  0.01032  Biso   1.000  C
  C96      1.0000 0.63090  0.54390  0.80630  Biso   1.000  C
  C97      1.0000 0.87971  0.69721  0.02681  Biso   1.000  C
  C98      1.0000 0.61483  0.53103  0.87223  Biso   1.000  C
  C99      1.0000 0.80839  0.72019  0.02379  Biso   1.000  C
  C100     1.0000 0.76229  0.67425  0.01797  Biso   1.000  C
  C101     1.0000 0.66229  0.02643  0.17007  Biso   1.000  C
  C102     1.0000 0.40420  0.22703  0.14020  Biso   1.000  C
  C103     1.0000 0.45814  0.19292  0.10945  Biso   1.000  C
  C104     1.0000 0.67756  0.01156  0.24134  Biso   1.000  C
  C105     1.0000 0.62684  0.01032  0.29231  Biso   1.000  C
  C106     1.0000 0.54390  0.80630  0.63090  Biso   1.000  C
  C107     1.0000 0.69721  0.02681  0.87971  Biso   1.000  C
  C108     1.0000 0.53103  0.87223  0.61483  Biso   1.000  C
  C109     1.0000 0.72019  0.02379  0.80839  Biso   1.000  C
  C110     1.0000 0.67425  0.01797  0.76229  Biso   1.000  C
  C111     1.0000 0.02643  0.17007  0.66229  Biso   1.000  C
  C112     1.0000 0.22703  0.14020  0.40420  Biso   1.000  C
  C113     1.0000 0.19292  0.10945  0.45814  Biso   1.000  C
  C114     1.0000 0.01156  0.24134  0.67756  Biso   1.000  C
  C115     1.0000 0.01032  0.29231  0.62684  Biso   1.000  C
  C116     1.0000 0.80630  0.63090  0.54390  Biso   1.000  C
  C117     1.0000 0.02681  0.87971  0.69721  Biso   1.000  C
  C118     1.0000 0.87223  0.61483  0.53103  Biso   1.000  C
  C119     1.0000 0.02379  0.80839  0.72019  Biso   1.000  C
  C120     1.0000 0.01797  0.76229  0.67425  Biso   1.000  C
  C121     1.0000 0.64200  0.35800  0.00000  Biso   1.000  C
  C122     1.0000 0.74300  0.25700  0.00000  Biso   1.000  C
  C123     1.0000 0.58610  0.41390  1.00000  Biso   1.000  C
  C124     1.0000 0.00000  0.64200  0.35800  Biso   1.000  C
  C125     1.0000 0.00000  0.74300  0.25700  Biso   1.000  C
  C126     1.0000 0.00000  0.58610  0.41390  Biso   1.000  C
  C127     1.0000 0.35800  0.00000  0.64200  Biso   1.000  C
  C128     1.0000 0.25700  0.00000  0.74300  Biso   1.000  C
  C129     1.0000 0.41390  0.00000  0.58610  Biso   1.000  C
  C130     1.0000 0.35800  0.64200  1.00000  Biso   1.000  C
  C131     1.0000 0.25700  0.74300  0.00000  Biso   1.000  C
  C132     1.0000 0.41390  0.58610  0.00000  Biso   1.000  C
  C133     1.0000 0.00000  0.35800  0.64200  Biso   1.000  C
  C134     1.0000 0.00000  0.25700  0.74300  Biso   1.000  C
  C135     1.0000 0.00000  0.41390  0.58610  Biso   1.000  C
  C136     1.0000 0.64200  0.00000  0.35800  Biso   1.000  C
  C137     1.0000 0.74300  0.00000  0.25700  Biso   1.000  C
  C138     1.0000 0.58610  0.00000  0.41390  Biso   1.000  C
  C139     1.0000 0.31557  0.23312  0.23312  Biso   1.000  C
  C140     1.0000 0.37587  0.20042  0.20042  Biso   1.000  C
  C141     1.0000 0.23312  0.31557  0.23312  Biso   1.000  C
  C142     1.0000 0.20042  0.37587  0.20042  Biso   1.000  C
  C143     1.0000 0.23312  0.23312  0.31557  Biso   1.000  C
  C144     1.0000 0.20042  0.20042  0.37587  Biso   1.000  C
  C145     1.0000 0.76688  0.68443  0.76688  Biso   1.000  C
  C146     1.0000 0.79958  0.62413  0.79958  Biso   1.000  C
  C147     1.0000 0.68443  0.76688  0.76688  Biso   1.000  C
  C148     1.0000 0.62413  0.79958  0.79958  Biso   1.000  C
  C149     1.0000 0.76688  0.76688  0.68443  Biso   1.000  C
  C150     1.0000 0.79958  0.79958  0.62413  Biso   1.000  C
  C151     1.0000 0.69532  0.69532  0.01482  Biso   1.000  C
  C152     1.0000 0.64740  0.64740  0.00740  Biso   1.000  C
  C153     1.0000 0.78715  0.78715  0.02550  Biso   1.000  C
  C154     1.0000 0.01482  0.69532  0.69532  Biso   1.000  C
  C155     1.0000 0.00740  0.64740  0.64740  Biso   1.000  C
  C156     1.0000 0.02550  0.78715  0.78715  Biso   1.000  C
  C157     1.0000 0.69532  0.01482  0.69532  Biso   1.000  C
  C158     1.0000 0.64740  0.00740  0.64740  Biso   1.000  C
  C159     1.0000 0.78715  0.02550  0.78715  Biso   1.000  C
  C160     1.0000 0.30468  0.30468  0.98518  Biso   1.000  C
  C161     1.0000 0.35260  0.35260  0.99260  Biso   1.000  C
  C162     1.0000 0.21285  0.21285  0.97450  Biso   1.000  C
  C163     1.0000 0.30468  0.98518  0.30468  Biso   1.000  C
  C164     1.0000 0.35260  0.99260  0.35260  Biso   1.000  C
  C165     1.0000 0.21285  0.97450  0.21285  Biso   1.000  C
  C166     1.0000 0.98518  0.30468  0.30468  Biso   1.000  C
  C167     1.0000 0.99260  0.35260  0.35260  Biso   1.000  C
  C168     1.0000 0.97450  0.21285  0.21285  Biso   1.000  C
  C169     1.0000 0.59608  0.59608  0.77118  Biso   1.000  C
  C170     1.0000 0.62180  0.62180  0.70300  Biso   1.000  C
  C171     1.0000 0.77118  0.59608  0.59608  Biso   1.000  C
  C172     1.0000 0.70300  0.62180  0.62180  Biso   1.000  C
  C173     1.0000 0.59608  0.77118  0.59608  Biso   1.000  C
  C174     1.0000 0.62180  0.70300  0.62180  Biso   1.000  C
  C175     1.0000 0.40392  0.40392  0.22882  Biso   1.000  C
  C176     1.0000 0.37820  0.37820  0.29700  Biso   1.000  C
  C177     1.0000 0.40392  0.22882  0.40392  Biso   1.000  C
  C178     1.0000 0.37820  0.29700  0.37820  Biso   1.000  C
  C179     1.0000 0.22882  0.40392  0.40392  Biso   1.000  C
  C180     1.0000 0.29700  0.37820  0.37820  Biso   1.000  C
  N1       1.0000 0.48375  0.13405  0.13405  Biso   1.000  N
  N2       1.0000 0.13405  0.48375  0.13405  Biso   1.000  N
  N3       1.0000 0.13404  0.13405  0.48375  Biso   1.000  N
  N4       1.0000 0.86596  0.51625  0.86596  Biso   1.000  N
  N5       1.0000 0.51625  0.86596  0.86596  Biso   1.000  N
  N6       1.0000 0.86596  0.86596  0.51625  Biso   1.000  N
  N7       1.0000 0.56610  0.56610  0.90620  Biso   1.000  N
  N8       1.0000 0.90620  0.56610  0.56610  Biso   1.000  N
  N9       1.0000 0.56610  0.90620  0.56610  Biso   1.000  N
  N10      1.0000 0.43390  0.43390  0.09380  Biso   1.000  N
  N11      1.0000 0.43390  0.09380  0.43390  Biso   1.000  N
  N12      1.0000 0.09380  0.43390  0.43390  Biso   1.000  N
  N13      1.0000 0.67776  0.59000  0.67776  Biso   1.000  N
  N14      1.0000 0.67776  0.67776  0.59000  Biso   1.000  N
  N15      1.0000 0.59000  0.67776  0.67776  Biso   1.000  N
  N16      1.0000 0.41000  0.32224  0.32224  Biso   1.000  N
  N17      1.0000 0.32224  0.32224  0.41000  Biso   1.000  N
  N18      1.0000 0.32224  0.41000  0.32224  Biso   1.000  N
  N19      1.0000 0.28948  0.20318  0.28948  Biso   1.000  N
  N20      1.0000 0.28948  0.28948  0.20318  Biso   1.000  N
  N21      1.0000 0.20318  0.28948  0.28948  Biso   1.000  N
  N22      1.0000 0.79682  0.71052  0.71052  Biso   1.000  N
  N23      1.0000 0.71052  0.71052  0.79682  Biso   1.000  N
  N24      1.0000 0.71052  0.79682  0.71052  Biso   1.000  N
  O1       1.0000 0.60345  0.15988  0.04698  Biso   1.000  O
  O2       1.0000 0.70957  0.12718  0.01766  Biso   1.000  O
  O3       1.0000 0.59920  0.46728  0.01992  Biso   1.000  O
  O4       1.0000 0.73834  0.92145  0.02722  Biso   1.000  O
  O5       1.0000 0.63444  0.89834  0.01104  Biso   1.000  O
  O6       1.0000 0.58603  0.66675  0.00643  Biso   1.000  O
  O7       1.0000 0.49697  0.99183  0.10281  Biso   1.000  O
  O8       1.0000 0.04698  0.60345  0.15988  Biso   1.000  O
  O9       1.0000 0.01766  0.70957  0.12718  Biso   1.000  O
  O10      1.0000 0.01992  0.59920  0.46728  Biso   1.000  O
  O11      1.0000 0.02722  0.73834  0.92145  Biso   1.000  O
  O12      1.0000 0.01104  0.63444  0.89834  Biso   1.000  O
  O13      1.0000 0.00643  0.58603  0.66675  Biso   1.000  O
  O14      1.0000 0.10281  0.49697  0.99183  Biso   1.000  O
  O15      1.0000 0.15988  0.04698  0.60345  Biso   1.000  O
  O16      1.0000 0.12718  0.01766  0.70957  Biso   1.000  O
  O17      1.0000 0.46728  0.01992  0.59920  Biso   1.000  O
  O18      1.0000 0.92145  0.02722  0.73834  Biso   1.000  O
  O19      1.0000 0.89834  0.01104  0.63444  Biso   1.000  O
  O20      1.0000 0.66675  0.00643  0.58603  Biso   1.000  O
  O21      1.0000 0.99183  0.10281  0.49697  Biso   1.000  O
  O22      1.0000 0.84012  0.39655  0.95302  Biso   1.000  O
  O23      1.0000 0.87282  0.29043  0.98234  Biso   1.000  O
  O24      1.0000 0.53272  0.40080  0.98008  Biso   1.000  O
  O25      1.0000 0.07855  0.26166  0.97278  Biso   1.000  O
  O26      1.0000 0.10166  0.36556  0.98896  Biso   1.000  O
  O27      1.0000 0.33325  0.41397  0.99357  Biso   1.000  O
  O28      1.0000 0.00817  0.50303  0.89719  Biso   1.000  O
  O29      1.0000 0.39655  0.95302  0.84012  Biso   1.000  O
  O30      1.0000 0.29043  0.98234  0.87282  Biso   1.000  O
  O31      1.0000 0.40080  0.98008  0.53272  Biso   1.000  O
  O32      1.0000 0.26166  0.97278  0.07855  Biso   1.000  O
  O33      1.0000 0.36556  0.98896  0.10166  Biso   1.000  O
  O34      1.0000 0.41397  0.99357  0.33325  Biso   1.000  O
  O35      1.0000 0.50303  0.89719  0.00817  Biso   1.000  O
  O36      1.0000 0.95302  0.84012  0.39655  Biso   1.000  O
  O37      1.0000 0.98234  0.87282  0.29043  Biso   1.000  O
  O38      1.0000 0.98008  0.53272  0.40080  Biso   1.000  O
  O39      1.0000 0.97278  0.07855  0.26166  Biso   1.000  O
  O40      1.0000 0.98896  0.10166  0.36556  Biso   1.000  O
  O41      1.0000 0.99357  0.33325  0.41397  Biso   1.000  O
  O42      1.0000 0.89719  0.00817  0.50303  Biso   1.000  O
  O43      1.0000 0.39655  0.84012  0.95302  Biso   1.000  O
  O44      1.0000 0.29043  0.87282  0.98234  Biso   1.000  O
  O45      1.0000 0.40080  0.53272  0.98008  Biso   1.000  O
  O46      1.0000 0.26166  0.07855  0.97278  Biso   1.000  O
  O47      1.0000 0.36556  0.10166  0.98896  Biso   1.000  O
  O48      1.0000 0.41397  0.33325  0.99357  Biso   1.000  O
  O49      1.0000 0.50303  0.00817  0.89719  Biso   1.000  O
  O50      1.0000 0.95302  0.39655  0.84012  Biso   1.000  O
  O51      1.0000 0.98234  0.29043  0.87282  Biso   1.000  O
  O52      1.0000 0.98008  0.40080  0.53272  Biso   1.000  O
  O53      1.0000 0.97278  0.26166  0.07855  Biso   1.000  O
  O54      1.0000 0.98896  0.36556  0.10166  Biso   1.000  O
  O55      1.0000 0.99357  0.41397  0.33325  Biso   1.000  O
  O56      1.0000 0.89719  0.50303  0.00817  Biso   1.000  O
  O57      1.0000 0.84012  0.95302  0.39655  Biso   1.000  O
  O58      1.0000 0.87282  0.98234  0.29043  Biso   1.000  O
  O59      1.0000 0.53272  0.98008  0.40080  Biso   1.000  O
  O60      1.0000 0.07855  0.97278  0.26166  Biso   1.000  O
  O61      1.0000 0.10166  0.98896  0.36556  Biso   1.000  O
  O62      1.0000 0.33325  0.99357  0.41397  Biso   1.000  O
  O63      1.0000 0.00817  0.89719  0.50303  Biso   1.000  O
  O64      1.0000 0.15988  0.60345  0.04698  Biso   1.000  O
  O65      1.0000 0.12718  0.70957  0.01766  Biso   1.000  O
  O66      1.0000 0.46728  0.59920  0.01992  Biso   1.000  O
  O67      1.0000 0.92145  0.73834  0.02722  Biso   1.000  O
  O68      1.0000 0.89834  0.63444  0.01104  Biso   1.000  O
  O69      1.0000 0.66675  0.58603  0.00643  Biso   1.000  O
  O70      1.0000 0.99183  0.49697  0.10281  Biso   1.000  O
  O71      1.0000 0.60345  0.04698  0.15988  Biso   1.000  O
  O72      1.0000 0.70957  0.01766  0.12718  Biso   1.000  O
  O73      1.0000 0.59920  0.01992  0.46728  Biso   1.000  O
  O74      1.0000 0.73834  0.02722  0.92145  Biso   1.000  O
  O75      1.0000 0.63444  0.01104  0.89834  Biso   1.000  O
  O76      1.0000 0.58603  0.00643  0.66675  Biso   1.000  O
  O77      1.0000 0.49697  0.10281  0.99183  Biso   1.000  O
  O78      1.0000 0.04698  0.15988  0.60345  Biso   1.000  O
  O79      1.0000 0.01766  0.12718  0.70957  Biso   1.000  O
  O80      1.0000 0.01992  0.46728  0.59920  Biso   1.000  O
  O81      1.0000 0.02722  0.92145  0.73834  Biso   1.000  O
  O82      1.0000 0.01104  0.89834  0.63444  Biso   1.000  O
  O83      1.0000 0.00643  0.66675  0.58603  Biso   1.000  O
  O84      1.0000 0.10281  0.99183  0.49697  Biso   1.000  O
  O85      1.0000 0.82529  0.02824  0.02824  Biso   1.000  O
  O86      1.0000 0.61848  0.01705  0.01705  Biso   1.000  O
  O87      1.0000 0.02824  0.82529  0.02824  Biso   1.000  O
  O88      1.0000 0.01704  0.61848  0.01705  Biso   1.000  O
  O89      1.0000 0.02824  0.02824  0.82529  Biso   1.000  O
  O90      1.0000 0.01704  0.01705  0.61848  Biso   1.000  O
  O91      1.0000 0.97176  0.17471  0.97176  Biso   1.000  O
  O92      1.0000 0.98296  0.38152  0.98296  Biso   1.000  O
  O93      1.0000 0.17471  0.97176  0.97176  Biso   1.000  O
  O94      1.0000 0.38152  0.98296  0.98296  Biso   1.000  O
  O95      1.0000 0.97176  0.97176  0.17471  Biso   1.000  O
  O96      1.0000 0.98296  0.98296  0.38152  Biso   1.000  O
  O97      1.0000 0.55780  0.55780  0.12095  Biso   1.000  O
  O98      1.0000 0.12095  0.55780  0.55780  Biso   1.000  O
  O99      1.0000 0.55780  0.12095  0.55780  Biso   1.000  O
  O100     1.0000 0.44220  0.44220  0.87905  Biso   1.000  O
  O101     1.0000 0.44220  0.87905  0.44220  Biso   1.000  O
  O102     1.0000 0.87905  0.44220  0.44220  Biso   1.000  O
