data_image0
_cell_length_a       11.9563
_cell_length_b       20.5225
_cell_length_c       22.0556
_cell_angle_alpha    90
_cell_angle_beta     90
_cell_angle_gamma    90

_symmetry_space_group_name_H-M    P 1
_symmetry_int_tables_number       1

loop_
  _symmetry_equiv_pos_as_xyz
  'x, y, z'

loop_
  _atom_site_label
  _atom_site_occupancy
  _atom_site_fract_x
  _atom_site_fract_y
  _atom_site_fract_z
  _atom_site_thermal_displace_type
  _atom_site_B_iso_or_equiv
  _atom_site_type_symbol
  Cs1      1.0000 0.76235  0.91968  0.54010  Biso   1.000  Cs
  Cs2      1.0000 0.26235  0.08032  0.95990  Biso   1.000  Cs
  Cs3      1.0000 0.23765  0.41968  0.45990  Biso   1.000  Cs
  Cs4      1.0000 0.73765  0.58032  0.04010  Biso   1.000  Cs
  Cs5      1.0000 0.23765  0.08032  0.45990  Biso   1.000  Cs
  Cs6      1.0000 0.73765  0.91968  0.04010  Biso   1.000  Cs
  Cs7      1.0000 0.76235  0.58032  0.54010  Biso   1.000  Cs
  Cs8      1.0000 0.26235  0.41968  0.95990  Biso   1.000  Cs
  Cs9      1.0000 0.99753  0.75000  0.65513  Biso   1.000  Cs
  Cs10     1.0000 0.49753  0.25000  0.84487  Biso   1.000  Cs
  Cs11     1.0000 0.00247  0.25000  0.34487  Biso   1.000  Cs
  Cs12     1.0000 0.50247  0.75000  0.15513  Biso   1.000  Cs
  U1       1.0000 0.14023  0.91681  0.57242  Biso   1.000  U
  U2       1.0000 0.64023  0.08319  0.92758  Biso   1.000  U
  U3       1.0000 0.85977  0.41681  0.42758  Biso   1.000  U
  U4       1.0000 0.35977  0.58319  0.07242  Biso   1.000  U
  U5       1.0000 0.85977  0.08319  0.42758  Biso   1.000  U
  U6       1.0000 0.35977  0.91681  0.07242  Biso   1.000  U
  U7       1.0000 0.14023  0.58319  0.57242  Biso   1.000  U
  U8       1.0000 0.64023  0.41681  0.92758  Biso   1.000  U
  U9       1.0000 0.91039  0.75000  0.44008  Biso   1.000  U
  U10      1.0000 0.41039  0.25000  0.05992  Biso   1.000  U
  U11      1.0000 0.08961  0.25000  0.55992  Biso   1.000  U
  U12      1.0000 0.58961  0.75000  0.94008  Biso   1.000  U
  P1       1.0000 0.00030  0.92230  0.42710  Biso   1.000  P
  P2       1.0000 0.50030  0.07770  0.07290  Biso   1.000  P
  P3       1.0000 0.99970  0.42230  0.57290  Biso   1.000  P
  P4       1.0000 0.49970  0.57770  0.92710  Biso   1.000  P
  P5       1.0000 0.99970  0.07770  0.57290  Biso   1.000  P
  P6       1.0000 0.49970  0.92230  0.92710  Biso   1.000  P
  P7       1.0000 0.00030  0.57770  0.42710  Biso   1.000  P
  P8       1.0000 0.50030  0.42230  0.07290  Biso   1.000  P
  P9       1.0000 0.18020  0.75000  0.50499  Biso   1.000  P
  P10      1.0000 0.68020  0.25000  0.99501  Biso   1.000  P
  P11      1.0000 0.81980  0.25000  0.49501  Biso   1.000  P
  P12      1.0000 0.31980  0.75000  0.00499  Biso   1.000  P
  H1       1.0000 0.34180  0.84860  0.47090  Biso   1.000  H
  H2       1.0000 0.52990  0.84960  0.44570  Biso   1.000  H
  H3       1.0000 0.02720  0.00620  0.32470  Biso   1.000  H
  H4       1.0000 0.13530  0.00490  0.23630  Biso   1.000  H
  H5       1.0000 0.23450  0.82010  0.27790  Biso   1.000  H
  H6       1.0000 0.13370  0.82550  0.36780  Biso   1.000  H
  H7       1.0000 0.84180  0.15140  0.02910  Biso   1.000  H
  H8       1.0000 0.02990  0.15040  0.05430  Biso   1.000  H
  H9       1.0000 0.52720  0.99380  0.17530  Biso   1.000  H
  H10      1.0000 0.63530  0.99510  0.26370  Biso   1.000  H
  H11      1.0000 0.73450  0.17990  0.22210  Biso   1.000  H
  H12      1.0000 0.63370  0.17450  0.13220  Biso   1.000  H
  H13      1.0000 0.65820  0.34860  0.52910  Biso   1.000  H
  H14      1.0000 0.47010  0.34960  0.55430  Biso   1.000  H
  H15      1.0000 0.97280  0.50620  0.67530  Biso   1.000  H
  H16      1.0000 0.86470  0.50490  0.76370  Biso   1.000  H
  H17      1.0000 0.76550  0.32010  0.72210  Biso   1.000  H
  H18      1.0000 0.86630  0.32550  0.63220  Biso   1.000  H
  H19      1.0000 0.15820  0.65140  0.97090  Biso   1.000  H
  H20      1.0000 0.97010  0.65040  0.94570  Biso   1.000  H
  H21      1.0000 0.47280  0.49380  0.82470  Biso   1.000  H
  H22      1.0000 0.36470  0.49510  0.73630  Biso   1.000  H
  H23      1.0000 0.26550  0.67990  0.77790  Biso   1.000  H
  H24      1.0000 0.36630  0.67450  0.86780  Biso   1.000  H
  H25      1.0000 0.65820  0.15140  0.52910  Biso   1.000  H
  H26      1.0000 0.47010  0.15040  0.55430  Biso   1.000  H
  H27      1.0000 0.97280  0.99380  0.67530  Biso   1.000  H
  H28      1.0000 0.86470  0.99510  0.76370  Biso   1.000  H
  H29      1.0000 0.76550  0.17990  0.72210  Biso   1.000  H
  H30      1.0000 0.86630  0.17450  0.63220  Biso   1.000  H
  H31      1.0000 0.15820  0.84860  0.97090  Biso   1.000  H
  H32      1.0000 0.97010  0.84960  0.94570  Biso   1.000  H
  H33      1.0000 0.47280  0.00620  0.82470  Biso   1.000  H
  H34      1.0000 0.36470  0.00490  0.73630  Biso   1.000  H
  H35      1.0000 0.26550  0.82010  0.77790  Biso   1.000  H
  H36      1.0000 0.36630  0.82550  0.86780  Biso   1.000  H
  H37      1.0000 0.34180  0.65140  0.47090  Biso   1.000  H
  H38      1.0000 0.52990  0.65040  0.44570  Biso   1.000  H
  H39      1.0000 0.02720  0.49380  0.32470  Biso   1.000  H
  H40      1.0000 0.13530  0.49510  0.23630  Biso   1.000  H
  H41      1.0000 0.23450  0.67990  0.27790  Biso   1.000  H
  H42      1.0000 0.13370  0.67450  0.36780  Biso   1.000  H
  H43      1.0000 0.84180  0.34860  0.02910  Biso   1.000  H
  H44      1.0000 0.02990  0.34960  0.05430  Biso   1.000  H
  H45      1.0000 0.52720  0.50620  0.17530  Biso   1.000  H
  H46      1.0000 0.63530  0.50490  0.26370  Biso   1.000  H
  H47      1.0000 0.73450  0.32010  0.22210  Biso   1.000  H
  H48      1.0000 0.63370  0.32550  0.13220  Biso   1.000  H
  C1       1.0000 0.38030  0.80840  0.46670  Biso   1.000  C
  C2       1.0000 0.49170  0.80950  0.45160  Biso   1.000  C
  C3       1.0000 0.07140  0.91670  0.35540  Biso   1.000  C
  C4       1.0000 0.07130  0.96900  0.31560  Biso   1.000  C
  C5       1.0000 0.13420  0.96820  0.26260  Biso   1.000  C
  C6       1.0000 0.19630  0.91180  0.24870  Biso   1.000  C
  C7       1.0000 0.19410  0.85860  0.28780  Biso   1.000  C
  C8       1.0000 0.13330  0.86160  0.34080  Biso   1.000  C
  C9       1.0000 0.26650  0.91110  0.19160  Biso   1.000  C
  C10      1.0000 0.88030  0.19160  0.03330  Biso   1.000  C
  C11      1.0000 0.99170  0.19050  0.04840  Biso   1.000  C
  C12      1.0000 0.57140  0.08330  0.14460  Biso   1.000  C
  C13      1.0000 0.57130  0.03100  0.18440  Biso   1.000  C
  C14      1.0000 0.63420  0.03180  0.23740  Biso   1.000  C
  C15      1.0000 0.69630  0.08820  0.25130  Biso   1.000  C
  C16      1.0000 0.69410  0.14140  0.21220  Biso   1.000  C
  C17      1.0000 0.63330  0.13840  0.15920  Biso   1.000  C
  C18      1.0000 0.76650  0.08890  0.30840  Biso   1.000  C
  C19      1.0000 0.61970  0.30840  0.53330  Biso   1.000  C
  C20      1.0000 0.50830  0.30950  0.54840  Biso   1.000  C
  C21      1.0000 0.92860  0.41670  0.64460  Biso   1.000  C
  C22      1.0000 0.92870  0.46900  0.68440  Biso   1.000  C
  C23      1.0000 0.86580  0.46820  0.73740  Biso   1.000  C
  C24      1.0000 0.80370  0.41180  0.75130  Biso   1.000  C
  C25      1.0000 0.80590  0.35860  0.71220  Biso   1.000  C
  C26      1.0000 0.86670  0.36160  0.65920  Biso   1.000  C
  C27      1.0000 0.73350  0.41110  0.80840  Biso   1.000  C
  C28      1.0000 0.11970  0.69160  0.96670  Biso   1.000  C
  C29      1.0000 0.00830  0.69050  0.95160  Biso   1.000  C
  C30      1.0000 0.42860  0.58330  0.85540  Biso   1.000  C
  C31      1.0000 0.42870  0.53100  0.81560  Biso   1.000  C
  C32      1.0000 0.36580  0.53180  0.76260  Biso   1.000  C
  C33      1.0000 0.30370  0.58820  0.74870  Biso   1.000  C
  C34      1.0000 0.30590  0.64140  0.78780  Biso   1.000  C
  C35      1.0000 0.36670  0.63840  0.84080  Biso   1.000  C
  C36      1.0000 0.23350  0.58890  0.69160  Biso   1.000  C
  C37      1.0000 0.61970  0.19160  0.53330  Biso   1.000  C
  C38      1.0000 0.50830  0.19050  0.54840  Biso   1.000  C
  C39      1.0000 0.92860  0.08330  0.64460  Biso   1.000  C
  C40      1.0000 0.92870  0.03100  0.68440  Biso   1.000  C
  C41      1.0000 0.86580  0.03180  0.73740  Biso   1.000  C
  C42      1.0000 0.80370  0.08820  0.75130  Biso   1.000  C
  C43      1.0000 0.80590  0.14140  0.71220  Biso   1.000  C
  C44      1.0000 0.86670  0.13840  0.65920  Biso   1.000  C
  C45      1.0000 0.73350  0.08890  0.80840  Biso   1.000  C
  C46      1.0000 0.11970  0.80840  0.96670  Biso   1.000  C
  C47      1.0000 0.00830  0.80950  0.95160  Biso   1.000  C
  C48      1.0000 0.42860  0.91670  0.85540  Biso   1.000  C
  C49      1.0000 0.42870  0.96900  0.81560  Biso   1.000  C
  C50      1.0000 0.36580  0.96820  0.76260  Biso   1.000  C
  C51      1.0000 0.30370  0.91180  0.74870  Biso   1.000  C
  C52      1.0000 0.30590  0.85860  0.78780  Biso   1.000  C
  C53      1.0000 0.36670  0.86160  0.84080  Biso   1.000  C
  C54      1.0000 0.23350  0.91110  0.69160  Biso   1.000  C
  C55      1.0000 0.38030  0.69160  0.46670  Biso   1.000  C
  C56      1.0000 0.49170  0.69050  0.45160  Biso   1.000  C
  C57      1.0000 0.07140  0.58330  0.35540  Biso   1.000  C
  C58      1.0000 0.07130  0.53100  0.31560  Biso   1.000  C
  C59      1.0000 0.13420  0.53180  0.26260  Biso   1.000  C
  C60      1.0000 0.19630  0.58820  0.24870  Biso   1.000  C
  C61      1.0000 0.19410  0.64140  0.28780  Biso   1.000  C
  C62      1.0000 0.13330  0.63840  0.34080  Biso   1.000  C
  C63      1.0000 0.26650  0.58890  0.19160  Biso   1.000  C
  C64      1.0000 0.88030  0.30840  0.03330  Biso   1.000  C
  C65      1.0000 0.99170  0.30950  0.04840  Biso   1.000  C
  C66      1.0000 0.57140  0.41670  0.14460  Biso   1.000  C
  C67      1.0000 0.57130  0.46900  0.18440  Biso   1.000  C
  C68      1.0000 0.63420  0.46820  0.23740  Biso   1.000  C
  C69      1.0000 0.69630  0.41180  0.25130  Biso   1.000  C
  C70      1.0000 0.69410  0.35860  0.21220  Biso   1.000  C
  C71      1.0000 0.63330  0.36160  0.15920  Biso   1.000  C
  C72      1.0000 0.76650  0.41110  0.30840  Biso   1.000  C
  C73      1.0000 0.32070  0.75000  0.47610  Biso   1.000  C
  C74      1.0000 0.54730  0.75000  0.44510  Biso   1.000  C
  C75      1.0000 0.66980  0.75000  0.43530  Biso   1.000  C
  C76      1.0000 0.82070  0.25000  0.02390  Biso   1.000  C
  C77      1.0000 0.04730  0.25000  0.05490  Biso   1.000  C
  C78      1.0000 0.16980  0.25000  0.06470  Biso   1.000  C
  C79      1.0000 0.67930  0.25000  0.52390  Biso   1.000  C
  C80      1.0000 0.45270  0.25000  0.55490  Biso   1.000  C
  C81      1.0000 0.33020  0.25000  0.56470  Biso   1.000  C
  C82      1.0000 0.17930  0.75000  0.97610  Biso   1.000  C
  C83      1.0000 0.95270  0.75000  0.94510  Biso   1.000  C
  C84      1.0000 0.83020  0.75000  0.93530  Biso   1.000  C
  O1       1.0000 0.28060  0.93920  0.55020  Biso   1.000  O
  O2       1.0000 0.00140  0.89520  0.59570  Biso   1.000  O
  O3       1.0000 0.16520  0.81110  0.54260  Biso   1.000  O
  O4       1.0000 0.72410  0.80400  0.43370  Biso   1.000  O
  O5       1.0000 0.09150  0.93670  0.47340  Biso   1.000  O
  O6       1.0000 0.91250  0.97620  0.42420  Biso   1.000  O
  O7       1.0000 0.94240  0.85890  0.44100  Biso   1.000  O
  O8       1.0000 0.28480  0.85820  0.16320  Biso   1.000  O
  O9       1.0000 0.30260  0.96450  0.17000  Biso   1.000  O
  O10      1.0000 0.51810  0.95640  0.55040  Biso   1.000  O
  O11      1.0000 0.78060  0.06080  0.94980  Biso   1.000  O
  O12      1.0000 0.50140  0.10480  0.90430  Biso   1.000  O
  O13      1.0000 0.66520  0.18890  0.95740  Biso   1.000  O
  O14      1.0000 0.22410  0.19600  0.06630  Biso   1.000  O
  O15      1.0000 0.59150  0.06330  0.02660  Biso   1.000  O
  O16      1.0000 0.41250  0.02380  0.07580  Biso   1.000  O
  O17      1.0000 0.44240  0.14110  0.05900  Biso   1.000  O
  O18      1.0000 0.78480  0.14180  0.33680  Biso   1.000  O
  O19      1.0000 0.80260  0.03550  0.33000  Biso   1.000  O
  O20      1.0000 0.01810  0.04360  0.94960  Biso   1.000  O
  O21      1.0000 0.71940  0.43920  0.44980  Biso   1.000  O
  O22      1.0000 0.99860  0.39520  0.40430  Biso   1.000  O
  O23      1.0000 0.83480  0.31110  0.45740  Biso   1.000  O
  O24      1.0000 0.27590  0.30400  0.56630  Biso   1.000  O
  O25      1.0000 0.90850  0.43670  0.52660  Biso   1.000  O
  O26      1.0000 0.08750  0.47620  0.57580  Biso   1.000  O
  O27      1.0000 0.05760  0.35890  0.55900  Biso   1.000  O
  O28      1.0000 0.71520  0.35820  0.83680  Biso   1.000  O
  O29      1.0000 0.69740  0.46450  0.83000  Biso   1.000  O
  O30      1.0000 0.48190  0.45640  0.44960  Biso   1.000  O
  O31      1.0000 0.21940  0.56080  0.05020  Biso   1.000  O
  O32      1.0000 0.49860  0.60480  0.09570  Biso   1.000  O
  O33      1.0000 0.33480  0.68890  0.04260  Biso   1.000  O
  O34      1.0000 0.77590  0.69600  0.93370  Biso   1.000  O
  O35      1.0000 0.40850  0.56330  0.97340  Biso   1.000  O
  O36      1.0000 0.58750  0.52380  0.92420  Biso   1.000  O
  O37      1.0000 0.55760  0.64110  0.94100  Biso   1.000  O
  O38      1.0000 0.21520  0.64180  0.66320  Biso   1.000  O
  O39      1.0000 0.19740  0.53550  0.67000  Biso   1.000  O
  O40      1.0000 0.98190  0.54360  0.05040  Biso   1.000  O
  O41      1.0000 0.71940  0.06080  0.44980  Biso   1.000  O
  O42      1.0000 0.99860  0.10480  0.40430  Biso   1.000  O
  O43      1.0000 0.83480  0.18890  0.45740  Biso   1.000  O
  O44      1.0000 0.27590  0.19600  0.56630  Biso   1.000  O
  O45      1.0000 0.90850  0.06330  0.52660  Biso   1.000  O
  O46      1.0000 0.08750  0.02380  0.57580  Biso   1.000  O
  O47      1.0000 0.05760  0.14110  0.55900  Biso   1.000  O
  O48      1.0000 0.71520  0.14180  0.83680  Biso   1.000  O
  O49      1.0000 0.69740  0.03550  0.83000  Biso   1.000  O
  O50      1.0000 0.48190  0.04360  0.44960  Biso   1.000  O
  O51      1.0000 0.21940  0.93920  0.05020  Biso   1.000  O
  O52      1.0000 0.49860  0.89520  0.09570  Biso   1.000  O
  O53      1.0000 0.33480  0.81110  0.04260  Biso   1.000  O
  O54      1.0000 0.77590  0.80400  0.93370  Biso   1.000  O
  O55      1.0000 0.40850  0.93670  0.97340  Biso   1.000  O
  O56      1.0000 0.58750  0.97620  0.92420  Biso   1.000  O
  O57      1.0000 0.55760  0.85890  0.94100  Biso   1.000  O
  O58      1.0000 0.21520  0.85820  0.66320  Biso   1.000  O
  O59      1.0000 0.19740  0.96450  0.67000  Biso   1.000  O
  O60      1.0000 0.98190  0.95640  0.05040  Biso   1.000  O
  O61      1.0000 0.28060  0.56080  0.55020  Biso   1.000  O
  O62      1.0000 0.00140  0.60480  0.59570  Biso   1.000  O
  O63      1.0000 0.16520  0.68890  0.54260  Biso   1.000  O
  O64      1.0000 0.72410  0.69600  0.43370  Biso   1.000  O
  O65      1.0000 0.09150  0.56330  0.47340  Biso   1.000  O
  O66      1.0000 0.91250  0.52380  0.42420  Biso   1.000  O
  O67      1.0000 0.94240  0.64110  0.44100  Biso   1.000  O
  O68      1.0000 0.28480  0.64180  0.16320  Biso   1.000  O
  O69      1.0000 0.30260  0.53550  0.17000  Biso   1.000  O
  O70      1.0000 0.51810  0.54360  0.55040  Biso   1.000  O
  O71      1.0000 0.78060  0.43920  0.94980  Biso   1.000  O
  O72      1.0000 0.50140  0.39520  0.90430  Biso   1.000  O
  O73      1.0000 0.66520  0.31110  0.95740  Biso   1.000  O
  O74      1.0000 0.22410  0.30400  0.06630  Biso   1.000  O
  O75      1.0000 0.59150  0.43670  0.02660  Biso   1.000  O
  O76      1.0000 0.41250  0.47620  0.07580  Biso   1.000  O
  O77      1.0000 0.44240  0.35890  0.05900  Biso   1.000  O
  O78      1.0000 0.78480  0.35820  0.33680  Biso   1.000  O
  O79      1.0000 0.80260  0.46450  0.33000  Biso   1.000  O
  O80      1.0000 0.01810  0.45640  0.94960  Biso   1.000  O
  O81      1.0000 0.92270  0.75000  0.35970  Biso   1.000  O
  O82      1.0000 0.89250  0.75000  0.52080  Biso   1.000  O
  O83      1.0000 0.10210  0.75000  0.45020  Biso   1.000  O
  O84      1.0000 0.42270  0.25000  0.14030  Biso   1.000  O
  O85      1.0000 0.39250  0.25000  0.97920  Biso   1.000  O
  O86      1.0000 0.60210  0.25000  0.04980  Biso   1.000  O
  O87      1.0000 0.07730  0.25000  0.64030  Biso   1.000  O
  O88      1.0000 0.10750  0.25000  0.47920  Biso   1.000  O
  O89      1.0000 0.89790  0.25000  0.54980  Biso   1.000  O
  O90      1.0000 0.57730  0.75000  0.85970  Biso   1.000  O
  O91      1.0000 0.60750  0.75000  0.02080  Biso   1.000  O
  O92      1.0000 0.39790  0.75000  0.95020  Biso   1.000  O
