data_image0
_cell_length_a       14.4444
_cell_length_b       14.7116
_cell_length_c       30.772
_cell_angle_alpha    90
_cell_angle_beta     96.966
_cell_angle_gamma    90

_symmetry_space_group_name_H-M    "P 1"
_symmetry_int_tables_number       1

loop_
  _symmetry_equiv_pos_as_xyz
  'x, y, z'

loop_
  _atom_site_label
  _atom_site_occupancy
  _atom_site_fract_x
  _atom_site_fract_y
  _atom_site_fract_z
  _atom_site_thermal_displace_type
  _atom_site_B_iso_or_equiv
  _atom_site_type_symbol
  C1       1.0000 0.13430  0.32940  0.54920  Biso   1.000  C
  C2       1.0000 0.45970  0.31690  0.55200  Biso   1.000  C
  C3       1.0000 0.45890  0.64160  0.55670  Biso   1.000  C
  C4       1.0000 0.95040  0.13290  0.55620  Biso   1.000  C
  C5       1.0000 0.27310  0.40120  0.45540  Biso   1.000  C
  H1       1.0000 0.24870  0.35150  0.47010  Biso   1.000  H
  C6       1.0000 0.34500  0.53800  0.45720  Biso   1.000  C
  H2       1.0000 0.37130  0.58860  0.47340  Biso   1.000  H
  C7       1.0000 0.27180  0.39680  0.41070  Biso   1.000  C
  H3       1.0000 0.24450  0.34560  0.39520  Biso   1.000  H
  C8       1.0000 0.34860  0.53790  0.41290  Biso   1.000  C
  H4       1.0000 0.37750  0.58650  0.39930  Biso   1.000  H
  C9       1.0000 0.30910  0.46510  0.38820  Biso   1.000  C
  C10      1.0000 0.30380  0.46640  0.34010  Biso   1.000  C
  C11      1.0000 0.22900  0.42950  0.31320  Biso   1.000  C
  H5       1.0000 0.18030  0.39870  0.32530  Biso   1.000  H
  C12      1.0000 0.22710  0.43840  0.26940  Biso   1.000  C
  H6       1.0000 0.17630  0.41540  0.25000  Biso   1.000  H
  C13      1.0000 0.30050  0.48160  0.25340  Biso   1.000  C
  C14      1.0000 0.30330  0.49480  0.20570  Biso   1.000  C
  C15      1.0000 0.22060  0.50010  0.17730  Biso   1.000  C
  H7       1.0000 0.16220  0.49730  0.18850  Biso   1.000  H
  C16      1.0000 0.38610  0.50240  0.18740  Biso   1.000  C
  H8       1.0000 0.44410  0.50140  0.20560  Biso   1.000  H
  C17      1.0000 0.22390  0.50940  0.13320  Biso   1.000  C
  H9       1.0000 0.16670  0.51300  0.11440  Biso   1.000  H
  C18      1.0000 0.38370  0.51140  0.14270  Biso   1.000  C
  H10      1.0000 0.44110  0.51630  0.13070  Biso   1.000  H
  N1       1.0000 0.19300  0.38200  0.54720  Biso   1.000  N
  N2       1.0000 0.40370  0.37220  0.55620  Biso   1.000  N
  N3       1.0000 0.40850  0.58190  0.55650  Biso   1.000  N
  N4       1.0000 0.89900  0.07370  0.55440  Biso   1.000  N
  N5       1.0000 0.30780  0.47320  0.47910  Biso   1.000  N
  N6       1.0000 0.37410  0.50850  0.32350  Biso   1.000  N
  N7       1.0000 0.37280  0.51530  0.28000  Biso   1.000  N
  N8       1.0000 0.30370  0.51350  0.11540  Biso   1.000  N
  Fe1      1.0000 0.30264  0.48066  0.54986  Biso   1.000  Fe
  Au1      1.0000 0.04099  0.23334  0.55268  Biso   1.000  Au
  Au2      1.0000 0.55408  0.22598  0.54351  Biso   1.000  Au
  Au3      1.0000 0.54989  0.74145  0.55268  Biso   1.000  Au
  C19      1.0000 0.15250  0.36750  0.04010  Biso   1.000  C
  C20      1.0000 0.14700  0.66160  0.04930  Biso   1.000  C
  C21      1.0000 0.45100  0.66970  0.05250  Biso   1.000  C
  C22      1.0000 0.64520  0.85670  0.04100  Biso   1.000  C
  C23      1.0000 0.32830  0.45400  0.96130  Biso   1.000  C
  H11      1.0000 0.34680  0.40000  0.97690  Biso   1.000  H
  C24      1.0000 0.27860  0.60000  0.96100  Biso   1.000  C
  H12      1.0000 0.26300  0.65280  0.97640  Biso   1.000  H
  C25      1.0000 0.33060  0.45420  0.91710  Biso   1.000  C
  H13      1.0000 0.35100  0.40190  0.90290  Biso   1.000  H
  C26      1.0000 0.27590  0.60540  0.91570  Biso   1.000  C
  H14      1.0000 0.25580  0.65950  0.90060  Biso   1.000  H
  C27      1.0000 0.30300  0.53090  0.89310  Biso   1.000  C
  C28      1.0000 0.29990  0.53200  0.84470  Biso   1.000  C
  C29      1.0000 0.22690  0.57480  0.81810  Biso   1.000  C
  H15      1.0000 0.18010  0.60830  0.83030  Biso   1.000  H
  C30      1.0000 0.22590  0.56620  0.77410  Biso   1.000  C
  H16      1.0000 0.17780  0.59340  0.75460  Biso   1.000  H
  C31      1.0000 0.29630  0.51690  0.75810  Biso   1.000  C
  C32      1.0000 0.30050  0.50460  0.71030  Biso   1.000  C
  C33      1.0000 0.38330  0.49940  0.69260  Biso   1.000  C
  H17      1.0000 0.44110  0.50240  0.71100  Biso   1.000  H
  C34      1.0000 0.38160  0.49000  0.64820  Biso   1.000  C
  H18      1.0000 0.43940  0.48650  0.63650  Biso   1.000  H
  C35      1.0000 0.22270  0.48960  0.63780  Biso   1.000  C
  H19      1.0000 0.16580  0.48550  0.61880  Biso   1.000  H
  C36      1.0000 0.21820  0.49920  0.68180  Biso   1.000  C
  H20      1.0000 0.15950  0.50210  0.69280  Biso   1.000  H
  N9       1.0000 0.20800  0.42320  0.04260  Biso   1.000  N
  N10      1.0000 0.20370  0.61030  0.04755  Biso   1.000  N
  N11      1.0000 0.39600  0.61560  0.05450  Biso   1.000  N
  N12      1.0000 0.70120  0.91290  0.04090  Biso   1.000  N
  N13      1.0000 0.30180  0.52460  0.98416  Biso   1.000  N
  N14      1.0000 0.36740  0.48660  0.82850  Biso   1.000  N
  N15      1.0000 0.36700  0.48030  0.78470  Biso   1.000  N
  N16      1.0000 0.30250  0.48560  0.62030  Biso   1.000  N
  Fe2      1.0000 0.30226  0.51916  0.04978  Biso   1.000  Fe
  Au4      1.0000 0.54722  0.76414  0.04479  Biso   1.000  Au
  C37      1.0000 0.65250  0.13250  0.54010  Biso   1.000  C
  C38      1.0000 0.64700  0.83840  0.54930  Biso   1.000  C
  C39      1.0000 0.95100  0.83030  0.55250  Biso   1.000  C
  C40      1.0000 0.14520  0.64330  0.54100  Biso   1.000  C
  C41      1.0000 0.82830  0.04600  0.46130  Biso   1.000  C
  H21      1.0000 0.84680  0.10000  0.47690  Biso   1.000  H
  C42      1.0000 0.77860  0.90000  0.46100  Biso   1.000  C
  H22      1.0000 0.76300  0.84720  0.47640  Biso   1.000  H
  C43      1.0000 0.83060  0.04580  0.41710  Biso   1.000  C
  H23      1.0000 0.85100  0.09810  0.40290  Biso   1.000  H
  C44      1.0000 0.77590  0.89460  0.41570  Biso   1.000  C
  H24      1.0000 0.75580  0.84050  0.40060  Biso   1.000  H
  C45      1.0000 0.80300  0.96910  0.39310  Biso   1.000  C
  C46      1.0000 0.79990  0.96800  0.34470  Biso   1.000  C
  C47      1.0000 0.72690  0.92520  0.31810  Biso   1.000  C
  H25      1.0000 0.68010  0.89170  0.33030  Biso   1.000  H
  C48      1.0000 0.72590  0.93380  0.27410  Biso   1.000  C
  H26      1.0000 0.67780  0.90660  0.25460  Biso   1.000  H
  C49      1.0000 0.79630  0.98310  0.25810  Biso   1.000  C
  C50      1.0000 0.80050  0.99540  0.21030  Biso   1.000  C
  C51      1.0000 0.88330  0.00060  0.19260  Biso   1.000  C
  H27      1.0000 0.94110  0.99760  0.21100  Biso   1.000  H
  C52      1.0000 0.88160  0.01000  0.14820  Biso   1.000  C
  H28      1.0000 0.93940  0.01350  0.13650  Biso   1.000  H
  C53      1.0000 0.72270  0.01040  0.13780  Biso   1.000  C
  H29      1.0000 0.66580  0.01450  0.11880  Biso   1.000  H
  C54      1.0000 0.71820  0.00080  0.18180  Biso   1.000  C
  H30      1.0000 0.65950  0.99790  0.19280  Biso   1.000  H
  N17      1.0000 0.70800  0.07680  0.54260  Biso   1.000  N
  N18      1.0000 0.70370  0.88970  0.54755  Biso   1.000  N
  N19      1.0000 0.89600  0.88440  0.55450  Biso   1.000  N
  N20      1.0000 0.20120  0.58710  0.54090  Biso   1.000  N
  N21      1.0000 0.80180  0.97540  0.48416  Biso   1.000  N
  N22      1.0000 0.86740  0.01340  0.32850  Biso   1.000  N
  N23      1.0000 0.86700  0.01970  0.28470  Biso   1.000  N
  N24      1.0000 0.80250  0.01440  0.12030  Biso   1.000  N
  Fe3      1.0000 0.80226  0.98084  0.54978  Biso   1.000  Fe
  Au5      1.0000 0.04722  0.73586  0.54479  Biso   1.000  Au
  C55      1.0000 0.63430  0.17060  0.04920  Biso   1.000  C
  C56      1.0000 0.95970  0.18310  0.05200  Biso   1.000  C
  C57      1.0000 0.95890  0.85840  0.05670  Biso   1.000  C
  C58      1.0000 0.45040  0.36710  0.05620  Biso   1.000  C
  C59      1.0000 0.77310  0.09880  0.95540  Biso   1.000  C
  H31      1.0000 0.74870  0.14850  0.97010  Biso   1.000  H
  C60      1.0000 0.84500  0.96200  0.95720  Biso   1.000  C
  H32      1.0000 0.87130  0.91140  0.97340  Biso   1.000  H
  C61      1.0000 0.77180  0.10320  0.91070  Biso   1.000  C
  H33      1.0000 0.74450  0.15440  0.89520  Biso   1.000  H
  C62      1.0000 0.84860  0.96210  0.91290  Biso   1.000  C
  H34      1.0000 0.87750  0.91350  0.89930  Biso   1.000  H
  C63      1.0000 0.80910  0.03490  0.88820  Biso   1.000  C
  C64      1.0000 0.80380  0.03360  0.84010  Biso   1.000  C
  C65      1.0000 0.72900  0.07050  0.81320  Biso   1.000  C
  H35      1.0000 0.68030  0.10130  0.82530  Biso   1.000  H
  C66      1.0000 0.72710  0.06160  0.76940  Biso   1.000  C
  H36      1.0000 0.67630  0.08460  0.75000  Biso   1.000  H
  C67      1.0000 0.80050  0.01840  0.75340  Biso   1.000  C
  C68      1.0000 0.80330  0.00520  0.70570  Biso   1.000  C
  C69      1.0000 0.72060  0.99990  0.67730  Biso   1.000  C
  H37      1.0000 0.66220  0.00270  0.68850  Biso   1.000  H
  C70      1.0000 0.88610  0.99760  0.68740  Biso   1.000  C
  H38      1.0000 0.94410  0.99860  0.70560  Biso   1.000  H
  C71      1.0000 0.72390  0.99060  0.63320  Biso   1.000  C
  H39      1.0000 0.66670  0.98700  0.61440  Biso   1.000  H
  C72      1.0000 0.88370  0.98860  0.64270  Biso   1.000  C
  H40      1.0000 0.94110  0.98370  0.63070  Biso   1.000  H
  N25      1.0000 0.69300  0.11800  0.04720  Biso   1.000  N
  N26      1.0000 0.90370  0.12780  0.05620  Biso   1.000  N
  N27      1.0000 0.90850  0.91810  0.05650  Biso   1.000  N
  N28      1.0000 0.39900  0.42630  0.05440  Biso   1.000  N
  N29      1.0000 0.80780  0.02680  0.97910  Biso   1.000  N
  N30      1.0000 0.87410  0.99150  0.82350  Biso   1.000  N
  N31      1.0000 0.87280  0.98470  0.78000  Biso   1.000  N
  N32      1.0000 0.80370  0.98650  0.61540  Biso   1.000  N
  Fe4      1.0000 0.80264  0.01934  0.04986  Biso   1.000  Fe
  Au6      1.0000 0.54099  0.26666  0.05268  Biso   1.000  Au
  Au7      1.0000 0.05408  0.27402  0.04351  Biso   1.000  Au
  Au8      1.0000 0.04989  0.75855  0.05268  Biso   1.000  Au
  C73      1.0000 0.34750  0.86750  0.45990  Biso   1.000  C
  C74      1.0000 0.35300  0.16160  0.45070  Biso   1.000  C
  C75      1.0000 0.04900  0.16970  0.44750  Biso   1.000  C
  C76      1.0000 0.85480  0.35670  0.45900  Biso   1.000  C
  C77      1.0000 0.17170  0.95400  0.53870  Biso   1.000  C
  H41      1.0000 0.15320  0.90000  0.52310  Biso   1.000  H
  C78      1.0000 0.22140  0.10000  0.53900  Biso   1.000  C
  H42      1.0000 0.23700  0.15280  0.52360  Biso   1.000  H
  C79      1.0000 0.16940  0.95420  0.58290  Biso   1.000  C
  H43      1.0000 0.14900  0.90190  0.59710  Biso   1.000  H
  C80      1.0000 0.22410  0.10540  0.58430  Biso   1.000  C
  H44      1.0000 0.24420  0.15950  0.59940  Biso   1.000  H
  C81      1.0000 0.19700  0.03090  0.60690  Biso   1.000  C
  C82      1.0000 0.20010  0.03200  0.65530  Biso   1.000  C
  C83      1.0000 0.27310  0.07480  0.68190  Biso   1.000  C
  H45      1.0000 0.31990  0.10830  0.66970  Biso   1.000  H
  C84      1.0000 0.27410  0.06620  0.72590  Biso   1.000  C
  H46      1.0000 0.32220  0.09340  0.74540  Biso   1.000  H
  C85      1.0000 0.20370  0.01690  0.74190  Biso   1.000  C
  C86      1.0000 0.19950  0.00460  0.78970  Biso   1.000  C
  C87      1.0000 0.11670  0.99940  0.80740  Biso   1.000  C
  H47      1.0000 0.05890  0.00240  0.78900  Biso   1.000  H
  C88      1.0000 0.11840  0.99000  0.85180  Biso   1.000  C
  H48      1.0000 0.06060  0.98650  0.86350  Biso   1.000  H
  C89      1.0000 0.27730  0.98960  0.86220  Biso   1.000  C
  H49      1.0000 0.33420  0.98550  0.88120  Biso   1.000  H
  C90      1.0000 0.28180  0.99920  0.81820  Biso   1.000  C
  H50      1.0000 0.34050  0.00210  0.80720  Biso   1.000  H
  N33      1.0000 0.29200  0.92320  0.45740  Biso   1.000  N
  N34      1.0000 0.29630  0.11030  0.45245  Biso   1.000  N
  N35      1.0000 0.10400  0.11560  0.44550  Biso   1.000  N
  N36      1.0000 0.79880  0.41290  0.45910  Biso   1.000  N
  N37      1.0000 0.19820  0.02460  0.51584  Biso   1.000  N
  N38      1.0000 0.13260  0.98660  0.67150  Biso   1.000  N
  N39      1.0000 0.13300  0.98030  0.71530  Biso   1.000  N
  N40      1.0000 0.19750  0.98560  0.87970  Biso   1.000  N
  Fe5      1.0000 0.19774  0.01916  0.45022  Biso   1.000  Fe
  Au9      1.0000 0.95278  0.26414  0.45521  Biso   1.000  Au
  C91      1.0000 0.36570  0.82940  0.95080  Biso   1.000  C
  C92      1.0000 0.04030  0.81690  0.94800  Biso   1.000  C
  C93      1.0000 0.04110  0.14160  0.94330  Biso   1.000  C
  C94      1.0000 0.54960  0.63290  0.94380  Biso   1.000  C
  C95      1.0000 0.22690  0.90120  0.04460  Biso   1.000  C
  H51      1.0000 0.25130  0.85150  0.02990  Biso   1.000  H
  C96      1.0000 0.15500  0.03800  0.04280  Biso   1.000  C
  H52      1.0000 0.12870  0.08860  0.02660  Biso   1.000  H
  C97      1.0000 0.22820  0.89680  0.08930  Biso   1.000  C
  H53      1.0000 0.25550  0.84560  0.10480  Biso   1.000  H
  C98      1.0000 0.15140  0.03790  0.08710  Biso   1.000  C
  H54      1.0000 0.12250  0.08650  0.10070  Biso   1.000  H
  C99      1.0000 0.19090  0.96510  0.11180  Biso   1.000  C
  C100     1.0000 0.19620  0.96640  0.15990  Biso   1.000  C
  C101     1.0000 0.27100  0.92950  0.18680  Biso   1.000  C
  H55      1.0000 0.31970  0.89870  0.17470  Biso   1.000  H
  C102     1.0000 0.27290  0.93840  0.23060  Biso   1.000  C
  H56      1.0000 0.32370  0.91540  0.25000  Biso   1.000  H
  C103     1.0000 0.19950  0.98160  0.24660  Biso   1.000  C
  C104     1.0000 0.19670  0.99480  0.29430  Biso   1.000  C
  C105     1.0000 0.27940  0.00010  0.32270  Biso   1.000  C
  H57      1.0000 0.33780  0.99730  0.31150  Biso   1.000  H
  C106     1.0000 0.11390  0.00240  0.31260  Biso   1.000  C
  H58      1.0000 0.05590  0.00140  0.29440  Biso   1.000  H
  C107     1.0000 0.27610  0.00940  0.36680  Biso   1.000  C
  H59      1.0000 0.33330  0.01300  0.38560  Biso   1.000  H
  C108     1.0000 0.11630  0.01140  0.35730  Biso   1.000  C
  H60      1.0000 0.05890  0.01630  0.36930  Biso   1.000  H
  N41      1.0000 0.30700  0.88200  0.95280  Biso   1.000  N
  N42      1.0000 0.09630  0.87220  0.94380  Biso   1.000  N
  N43      1.0000 0.09150  0.08190  0.94350  Biso   1.000  N
  N44      1.0000 0.60100  0.57370  0.94560  Biso   1.000  N
  N45      1.0000 0.19220  0.97320  0.02090  Biso   1.000  N
  N46      1.0000 0.12590  0.00850  0.17650  Biso   1.000  N
  N47      1.0000 0.12720  0.01530  0.22000  Biso   1.000  N
  N48      1.0000 0.19630  0.01350  0.38460  Biso   1.000  N
  Fe6      1.0000 0.19736  0.98066  0.95014  Biso   1.000  Fe
  Au10     1.0000 0.45901  0.73334  0.94732  Biso   1.000  Au
  Au11     1.0000 0.94592  0.72598  0.95649  Biso   1.000  Au
  Au12     1.0000 0.95011  0.24145  0.94732  Biso   1.000  Au
  C109     1.0000 0.86570  0.67060  0.45080  Biso   1.000  C
  C110     1.0000 0.54030  0.68310  0.44800  Biso   1.000  C
  C111     1.0000 0.54110  0.35840  0.44330  Biso   1.000  C
  C112     1.0000 0.04960  0.86710  0.44380  Biso   1.000  C
  C113     1.0000 0.72690  0.59880  0.54460  Biso   1.000  C
  H61      1.0000 0.75130  0.64850  0.52990  Biso   1.000  H
  C114     1.0000 0.65500  0.46200  0.54280  Biso   1.000  C
  H62      1.0000 0.62870  0.41140  0.52660  Biso   1.000  H
  C115     1.0000 0.72820  0.60320  0.58930  Biso   1.000  C
  H63      1.0000 0.75550  0.65440  0.60480  Biso   1.000  H
  C116     1.0000 0.65140  0.46210  0.58710  Biso   1.000  C
  H64      1.0000 0.62250  0.41350  0.60070  Biso   1.000  H
  C117     1.0000 0.69090  0.53490  0.61180  Biso   1.000  C
  C118     1.0000 0.69620  0.53360  0.65990  Biso   1.000  C
  C119     1.0000 0.77100  0.57050  0.68680  Biso   1.000  C
  H65      1.0000 0.81970  0.60130  0.67470  Biso   1.000  H
  C120     1.0000 0.77290  0.56160  0.73060  Biso   1.000  C
  H66      1.0000 0.82370  0.58460  0.75000  Biso   1.000  H
  C121     1.0000 0.69950  0.51840  0.74660  Biso   1.000  C
  C122     1.0000 0.69670  0.50520  0.79430  Biso   1.000  C
  C123     1.0000 0.77940  0.49990  0.82270  Biso   1.000  C
  H67      1.0000 0.83780  0.50270  0.81150  Biso   1.000  H
  C124     1.0000 0.61390  0.49760  0.81260  Biso   1.000  C
  H68      1.0000 0.55590  0.49860  0.79440  Biso   1.000  H
  C125     1.0000 0.77610  0.49060  0.86680  Biso   1.000  C
  H69      1.0000 0.83330  0.48700  0.88560  Biso   1.000  H
  C126     1.0000 0.61630  0.48860  0.85730  Biso   1.000  C
  H70      1.0000 0.55890  0.48370  0.86930  Biso   1.000  H
  N49      1.0000 0.80700  0.61800  0.45280  Biso   1.000  N
  N50      1.0000 0.59630  0.62780  0.44380  Biso   1.000  N
  N51      1.0000 0.59150  0.41810  0.44350  Biso   1.000  N
  N52      1.0000 0.10100  0.92630  0.44560  Biso   1.000  N
  N53      1.0000 0.69220  0.52680  0.52090  Biso   1.000  N
  N54      1.0000 0.62590  0.49150  0.67650  Biso   1.000  N
  N55      1.0000 0.62720  0.48470  0.72000  Biso   1.000  N
  N56      1.0000 0.69630  0.48650  0.88460  Biso   1.000  N
  Fe7      1.0000 0.69736  0.51934  0.45014  Biso   1.000  Fe
  Au13     1.0000 0.95901  0.76666  0.44732  Biso   1.000  Au
  Au14     1.0000 0.44592  0.77402  0.45649  Biso   1.000  Au
  Au15     1.0000 0.45011  0.25855  0.44732  Biso   1.000  Au
  C127     1.0000 0.84750  0.63250  0.95990  Biso   1.000  C
  C128     1.0000 0.85300  0.33840  0.95070  Biso   1.000  C
  C129     1.0000 0.54900  0.33030  0.94750  Biso   1.000  C
  C130     1.0000 0.35480  0.14330  0.95900  Biso   1.000  C
  C131     1.0000 0.67170  0.54600  0.03870  Biso   1.000  C
  H71      1.0000 0.65320  0.60000  0.02310  Biso   1.000  H
  C132     1.0000 0.72140  0.40000  0.03900  Biso   1.000  C
  H72      1.0000 0.73700  0.34720  0.02360  Biso   1.000  H
  C133     1.0000 0.66940  0.54580  0.08290  Biso   1.000  C
  H73      1.0000 0.64900  0.59810  0.09710  Biso   1.000  H
  C134     1.0000 0.72410  0.39460  0.08430  Biso   1.000  C
  H74      1.0000 0.74420  0.34050  0.09940  Biso   1.000  H
  C135     1.0000 0.69700  0.46910  0.10690  Biso   1.000  C
  C136     1.0000 0.70010  0.46800  0.15530  Biso   1.000  C
  C137     1.0000 0.77310  0.42520  0.18190  Biso   1.000  C
  H75      1.0000 0.81990  0.39170  0.16970  Biso   1.000  H
  C138     1.0000 0.77410  0.43380  0.22590  Biso   1.000  C
  H76      1.0000 0.82220  0.40660  0.24540  Biso   1.000  H
  C139     1.0000 0.70370  0.48310  0.24190  Biso   1.000  C
  C140     1.0000 0.69950  0.49540  0.28970  Biso   1.000  C
  C141     1.0000 0.61670  0.50060  0.30740  Biso   1.000  C
  H77      1.0000 0.55890  0.49760  0.28900  Biso   1.000  H
  C142     1.0000 0.61840  0.51000  0.35180  Biso   1.000  C
  H78      1.0000 0.56060  0.51350  0.36350  Biso   1.000  H
  C143     1.0000 0.77730  0.51040  0.36220  Biso   1.000  C
  H79      1.0000 0.83420  0.51450  0.38120  Biso   1.000  H
  C144     1.0000 0.78180  0.50080  0.31820  Biso   1.000  C
  H80      1.0000 0.84050  0.49790  0.30720  Biso   1.000  H
  N57      1.0000 0.79200  0.57680  0.95740  Biso   1.000  N
  N58      1.0000 0.79630  0.38970  0.95245  Biso   1.000  N
  N59      1.0000 0.60400  0.38440  0.94550  Biso   1.000  N
  N60      1.0000 0.29880  0.08710  0.95910  Biso   1.000  N
  N61      1.0000 0.69820  0.47540  0.01584  Biso   1.000  N
  N62      1.0000 0.63260  0.51340  0.17150  Biso   1.000  N
  N63      1.0000 0.63300  0.51970  0.21530  Biso   1.000  N
  N64      1.0000 0.69750  0.51440  0.37970  Biso   1.000  N
  Fe8      1.0000 0.69774  0.48084  0.95022  Biso   1.000  Fe
  Au16     1.0000 0.45278  0.23586  0.95521  Biso   1.000  Au
