data_image0
_cell_length_a       15.0135
_cell_length_b       14.9245
_cell_length_c       31.4557
_cell_angle_alpha    90
_cell_angle_beta     98.206
_cell_angle_gamma    90

_symmetry_space_group_name_H-M    "P 1"
_symmetry_int_tables_number       1

loop_
  _symmetry_equiv_pos_as_xyz
  'x, y, z'

loop_
  _atom_site_label
  _atom_site_occupancy
  _atom_site_fract_x
  _atom_site_fract_y
  _atom_site_fract_z
  _atom_site_thermal_displace_type
  _atom_site_B_iso_or_equiv
  _atom_site_type_symbol
  Fe1      1.0000 0.69150  0.52066  0.45083  Biso   1.000  Fe
  Au1      1.0000 0.44626  0.77261  0.45604  Biso   1.000  Au
  Au2      1.0000 0.94965  0.76255  0.44758  Biso   1.000  Au
  C1       1.0000 0.85660  0.66820  0.45090  Biso   1.000  C
  C2       1.0000 0.54080  0.68380  0.44690  Biso   1.000  C
  C3       1.0000 0.53780  0.36250  0.44410  Biso   1.000  C
  C4       1.0000 0.84930  0.36260  0.46040  Biso   1.000  C
  N1       1.0000 0.79940  0.61730  0.45270  Biso   1.000  N
  N2       1.0000 0.59280  0.62860  0.44280  Biso   1.000  N
  N3       1.0000 0.58890  0.41930  0.44450  Biso   1.000  N
  N4       1.0000 0.79320  0.41530  0.46100  Biso   1.000  N
  N5       1.0000 0.69020  0.51050  0.38020  Biso   1.000  N
  C5       1.0000 0.76760  0.50620  0.36400  Biso   1.000  C
  H1       1.0000 0.82150  0.51180  0.38320  Biso   1.000  H
  C6       1.0000 0.77350  0.49390  0.32080  Biso   1.000  C
  H2       1.0000 0.83000  0.48920  0.31140  Biso   1.000  H
  C7       1.0000 0.69520  0.48860  0.29150  Biso   1.000  C
  C8       1.0000 0.61370  0.49570  0.30790  Biso   1.000  C
  H3       1.0000 0.55880  0.49420  0.28940  Biso   1.000  H
  C9       1.0000 0.61470  0.50500  0.35180  Biso   1.000  C
  H4       1.0000 0.55920  0.50750  0.36230  Biso   1.000  H
  C10      1.0000 0.69880  0.47560  0.24440  Biso   1.000  C
  C11      1.0000 0.77250  0.43850  0.22900  Biso   1.000  C
  H5       1.0000 0.82260  0.41880  0.24810  Biso   1.000  H
  N6       1.0000 0.62540  0.49850  0.17460  Biso   1.000  N
  N7       1.0000 0.62650  0.50400  0.21750  Biso   1.000  N
  C12      1.0000 0.77130  0.43090  0.18580  Biso   1.000  C
  H6       1.0000 0.81980  0.40510  0.17430  Biso   1.000  H
  C13      1.0000 0.69610  0.46250  0.15940  Biso   1.000  C
  C14      1.0000 0.69060  0.46160  0.11090  Biso   1.000  C
  C15      1.0000 0.64550  0.52890  0.08680  Biso   1.000  C
  H7       1.0000 0.61450  0.57340  0.10000  Biso   1.000  H
  C16      1.0000 0.64670  0.53000  0.04350  Biso   1.000  C
  H8       1.0000 0.61630  0.57690  0.02750  Biso   1.000  H
  C17      1.0000 0.72800  0.40190  0.04530  Biso   1.000  C
  H9       1.0000 0.75450  0.35570  0.03110  Biso   1.000  H
  C18      1.0000 0.73230  0.39680  0.08960  Biso   1.000  C
  H10      1.0000 0.76330  0.34950  0.10490  Biso   1.000  H
  N8       1.0000 0.68880  0.46800  0.02190  Biso   1.000  N
  Fe2      1.0000 0.19150  0.02066  0.45083  Biso   1.000  Fe
  Au3      1.0000 0.94626  0.27261  0.45604  Biso   1.000  Au
  Au4      1.0000 0.44965  0.26255  0.44758  Biso   1.000  Au
  C19      1.0000 0.35660  0.16820  0.45090  Biso   1.000  C
  C20      1.0000 0.04080  0.18380  0.44690  Biso   1.000  C
  C21      1.0000 0.03780  0.86250  0.44410  Biso   1.000  C
  C22      1.0000 0.34930  0.86260  0.46040  Biso   1.000  C
  N9       1.0000 0.29940  0.11730  0.45270  Biso   1.000  N
  N10      1.0000 0.09280  0.12860  0.44280  Biso   1.000  N
  N11      1.0000 0.08890  0.91930  0.44450  Biso   1.000  N
  N12      1.0000 0.29320  0.91530  0.46100  Biso   1.000  N
  N13      1.0000 0.19020  0.01050  0.38020  Biso   1.000  N
  C23      1.0000 0.26760  0.00620  0.36400  Biso   1.000  C
  H11      1.0000 0.32150  0.01180  0.38320  Biso   1.000  H
  C24      1.0000 0.27350  0.99390  0.32080  Biso   1.000  C
  H12      1.0000 0.33000  0.98920  0.31140  Biso   1.000  H
  C25      1.0000 0.19520  0.98860  0.29150  Biso   1.000  C
  C26      1.0000 0.11370  0.99570  0.30790  Biso   1.000  C
  H13      1.0000 0.05880  0.99420  0.28940  Biso   1.000  H
  C27      1.0000 0.11470  0.00500  0.35180  Biso   1.000  C
  H14      1.0000 0.05920  0.00750  0.36230  Biso   1.000  H
  C28      1.0000 0.19880  0.97560  0.24440  Biso   1.000  C
  C29      1.0000 0.27250  0.93850  0.22900  Biso   1.000  C
  H15      1.0000 0.32260  0.91880  0.24810  Biso   1.000  H
  N14      1.0000 0.12540  0.99850  0.17460  Biso   1.000  N
  N15      1.0000 0.12650  0.00400  0.21750  Biso   1.000  N
  C30      1.0000 0.27130  0.93090  0.18580  Biso   1.000  C
  H16      1.0000 0.31980  0.90510  0.17430  Biso   1.000  H
  C31      1.0000 0.19610  0.96250  0.15940  Biso   1.000  C
  C32      1.0000 0.19060  0.96160  0.11090  Biso   1.000  C
  C33      1.0000 0.14550  0.02890  0.08680  Biso   1.000  C
  H17      1.0000 0.11450  0.07340  0.10000  Biso   1.000  H
  C34      1.0000 0.14670  0.03000  0.04350  Biso   1.000  C
  H18      1.0000 0.11630  0.07690  0.02750  Biso   1.000  H
  C35      1.0000 0.22800  0.90190  0.04530  Biso   1.000  C
  H19      1.0000 0.25450  0.85570  0.03110  Biso   1.000  H
  C36      1.0000 0.23230  0.89680  0.08960  Biso   1.000  C
  H20      1.0000 0.26330  0.84950  0.10490  Biso   1.000  H
  N16      1.0000 0.18880  0.96800  0.02190  Biso   1.000  N
  Fe3      1.0000 0.69150  0.47934  0.95083  Biso   1.000  Fe
  Au5      1.0000 0.44626  0.22739  0.95604  Biso   1.000  Au
  Au6      1.0000 0.94965  0.23745  0.94758  Biso   1.000  Au
  C37      1.0000 0.85660  0.33180  0.95090  Biso   1.000  C
  C38      1.0000 0.54080  0.31620  0.94690  Biso   1.000  C
  C39      1.0000 0.53780  0.63750  0.94410  Biso   1.000  C
  C40      1.0000 0.84930  0.63740  0.96040  Biso   1.000  C
  N17      1.0000 0.79940  0.38270  0.95270  Biso   1.000  N
  N18      1.0000 0.59280  0.37140  0.94280  Biso   1.000  N
  N19      1.0000 0.58890  0.58070  0.94450  Biso   1.000  N
  N20      1.0000 0.79320  0.58470  0.96100  Biso   1.000  N
  N21      1.0000 0.69020  0.48950  0.88020  Biso   1.000  N
  C41      1.0000 0.76760  0.49380  0.86400  Biso   1.000  C
  H21      1.0000 0.82150  0.48820  0.88320  Biso   1.000  H
  C42      1.0000 0.77350  0.50610  0.82080  Biso   1.000  C
  H22      1.0000 0.83000  0.51080  0.81140  Biso   1.000  H
  C43      1.0000 0.69520  0.51140  0.79150  Biso   1.000  C
  C44      1.0000 0.61370  0.50430  0.80790  Biso   1.000  C
  H23      1.0000 0.55880  0.50580  0.78940  Biso   1.000  H
  C45      1.0000 0.61470  0.49500  0.85180  Biso   1.000  C
  H24      1.0000 0.55920  0.49250  0.86230  Biso   1.000  H
  C46      1.0000 0.69880  0.52440  0.74440  Biso   1.000  C
  C47      1.0000 0.77250  0.56150  0.72900  Biso   1.000  C
  H25      1.0000 0.82260  0.58120  0.74810  Biso   1.000  H
  N22      1.0000 0.62540  0.50150  0.67460  Biso   1.000  N
  N23      1.0000 0.62650  0.49600  0.71750  Biso   1.000  N
  C48      1.0000 0.77130  0.56910  0.68580  Biso   1.000  C
  H26      1.0000 0.81980  0.59490  0.67430  Biso   1.000  H
  C49      1.0000 0.69610  0.53750  0.65940  Biso   1.000  C
  C50      1.0000 0.69060  0.53840  0.61090  Biso   1.000  C
  C51      1.0000 0.64550  0.47110  0.58680  Biso   1.000  C
  H27      1.0000 0.61450  0.42660  0.60000  Biso   1.000  H
  C52      1.0000 0.64670  0.47000  0.54350  Biso   1.000  C
  H28      1.0000 0.61630  0.42310  0.52750  Biso   1.000  H
  C53      1.0000 0.72800  0.59810  0.54530  Biso   1.000  C
  H29      1.0000 0.75450  0.64430  0.53110  Biso   1.000  H
  C54      1.0000 0.73230  0.60320  0.58960  Biso   1.000  C
  H30      1.0000 0.76330  0.65050  0.60490  Biso   1.000  H
  N24      1.0000 0.68880  0.53200  0.52190  Biso   1.000  N
  Fe4      1.0000 0.19150  0.97934  0.95083  Biso   1.000  Fe
  Au7      1.0000 0.94626  0.72739  0.95604  Biso   1.000  Au
  Au8      1.0000 0.44965  0.73745  0.94758  Biso   1.000  Au
  C55      1.0000 0.35660  0.83180  0.95090  Biso   1.000  C
  C56      1.0000 0.04080  0.81620  0.94690  Biso   1.000  C
  C57      1.0000 0.03780  0.13750  0.94410  Biso   1.000  C
  C58      1.0000 0.34930  0.13740  0.96040  Biso   1.000  C
  N25      1.0000 0.29940  0.88270  0.95270  Biso   1.000  N
  N26      1.0000 0.09280  0.87140  0.94280  Biso   1.000  N
  N27      1.0000 0.08890  0.08070  0.94450  Biso   1.000  N
  N28      1.0000 0.29320  0.08470  0.96100  Biso   1.000  N
  N29      1.0000 0.19020  0.98950  0.88020  Biso   1.000  N
  C59      1.0000 0.26760  0.99380  0.86400  Biso   1.000  C
  H31      1.0000 0.32150  0.98820  0.88320  Biso   1.000  H
  C60      1.0000 0.27350  0.00610  0.82080  Biso   1.000  C
  H32      1.0000 0.33000  0.01080  0.81140  Biso   1.000  H
  C61      1.0000 0.19520  0.01140  0.79150  Biso   1.000  C
  C62      1.0000 0.11370  0.00430  0.80790  Biso   1.000  C
  H33      1.0000 0.05880  0.00580  0.78940  Biso   1.000  H
  C63      1.0000 0.11470  0.99500  0.85180  Biso   1.000  C
  H34      1.0000 0.05920  0.99250  0.86230  Biso   1.000  H
  C64      1.0000 0.19880  0.02440  0.74440  Biso   1.000  C
  C65      1.0000 0.27250  0.06150  0.72900  Biso   1.000  C
  H35      1.0000 0.32260  0.08120  0.74810  Biso   1.000  H
  N30      1.0000 0.12540  0.00150  0.67460  Biso   1.000  N
  N31      1.0000 0.12650  0.99600  0.71750  Biso   1.000  N
  C66      1.0000 0.27130  0.06910  0.68580  Biso   1.000  C
  H36      1.0000 0.31980  0.09490  0.67430  Biso   1.000  H
  C67      1.0000 0.19610  0.03750  0.65940  Biso   1.000  C
  C68      1.0000 0.19060  0.03840  0.61090  Biso   1.000  C
  C69      1.0000 0.14550  0.97110  0.58680  Biso   1.000  C
  H37      1.0000 0.11450  0.92660  0.60000  Biso   1.000  H
  C70      1.0000 0.14670  0.97000  0.54350  Biso   1.000  C
  H38      1.0000 0.11630  0.92310  0.52750  Biso   1.000  H
  C71      1.0000 0.22800  0.09810  0.54530  Biso   1.000  C
  H39      1.0000 0.25450  0.14430  0.53110  Biso   1.000  H
  C72      1.0000 0.23230  0.10320  0.58960  Biso   1.000  C
  H40      1.0000 0.26330  0.15050  0.60490  Biso   1.000  H
  N32      1.0000 0.18880  0.03200  0.52190  Biso   1.000  N
  Fe5      1.0000 0.30850  0.52066  0.04917  Biso   1.000  Fe
  Au9      1.0000 0.55374  0.77261  0.04396  Biso   1.000  Au
  Au10     1.0000 0.05035  0.76255  0.05242  Biso   1.000  Au
  C73      1.0000 0.14340  0.66820  0.04910  Biso   1.000  C
  C74      1.0000 0.45920  0.68380  0.05310  Biso   1.000  C
  C75      1.0000 0.46220  0.36250  0.05590  Biso   1.000  C
  C76      1.0000 0.15070  0.36260  0.03960  Biso   1.000  C
  N33      1.0000 0.20060  0.61730  0.04730  Biso   1.000  N
  N34      1.0000 0.40720  0.62860  0.05720  Biso   1.000  N
  N35      1.0000 0.41110  0.41930  0.05550  Biso   1.000  N
  N36      1.0000 0.20680  0.41530  0.03900  Biso   1.000  N
  N37      1.0000 0.30980  0.51050  0.11980  Biso   1.000  N
  C77      1.0000 0.23240  0.50620  0.13600  Biso   1.000  C
  H41      1.0000 0.17850  0.51180  0.11680  Biso   1.000  H
  C78      1.0000 0.22650  0.49390  0.17920  Biso   1.000  C
  H42      1.0000 0.17000  0.48920  0.18860  Biso   1.000  H
  C79      1.0000 0.30480  0.48860  0.20850  Biso   1.000  C
  C80      1.0000 0.38630  0.49570  0.19210  Biso   1.000  C
  H43      1.0000 0.44120  0.49420  0.21060  Biso   1.000  H
  C81      1.0000 0.38530  0.50500  0.14820  Biso   1.000  C
  H44      1.0000 0.44080  0.50750  0.13770  Biso   1.000  H
  C82      1.0000 0.30120  0.47560  0.25560  Biso   1.000  C
  C83      1.0000 0.22750  0.43850  0.27100  Biso   1.000  C
  H45      1.0000 0.17740  0.41880  0.25190  Biso   1.000  H
  N38      1.0000 0.37460  0.49850  0.32540  Biso   1.000  N
  N39      1.0000 0.37350  0.50400  0.28250  Biso   1.000  N
  C84      1.0000 0.22870  0.43090  0.31420  Biso   1.000  C
  H46      1.0000 0.18020  0.40510  0.32570  Biso   1.000  H
  C85      1.0000 0.30390  0.46250  0.34060  Biso   1.000  C
  C86      1.0000 0.30940  0.46160  0.38910  Biso   1.000  C
  C87      1.0000 0.35450  0.52890  0.41320  Biso   1.000  C
  H47      1.0000 0.38550  0.57340  0.40000  Biso   1.000  H
  C88      1.0000 0.35330  0.53000  0.45650  Biso   1.000  C
  H48      1.0000 0.38370  0.57690  0.47250  Biso   1.000  H
  C89      1.0000 0.27200  0.40190  0.45470  Biso   1.000  C
  H49      1.0000 0.24550  0.35570  0.46890  Biso   1.000  H
  C90      1.0000 0.26770  0.39680  0.41040  Biso   1.000  C
  H50      1.0000 0.23670  0.34950  0.39510  Biso   1.000  H
  N40      1.0000 0.31120  0.46800  0.47810  Biso   1.000  N
  Fe6      1.0000 0.80850  0.02066  0.04917  Biso   1.000  Fe
  Au11     1.0000 0.05374  0.27261  0.04396  Biso   1.000  Au
  Au12     1.0000 0.55035  0.26255  0.05242  Biso   1.000  Au
  C91      1.0000 0.64340  0.16820  0.04910  Biso   1.000  C
  C92      1.0000 0.95920  0.18380  0.05310  Biso   1.000  C
  C93      1.0000 0.96220  0.86250  0.05590  Biso   1.000  C
  C94      1.0000 0.65070  0.86260  0.03960  Biso   1.000  C
  N41      1.0000 0.70060  0.11730  0.04730  Biso   1.000  N
  N42      1.0000 0.90720  0.12860  0.05720  Biso   1.000  N
  N43      1.0000 0.91110  0.91930  0.05550  Biso   1.000  N
  N44      1.0000 0.70680  0.91530  0.03900  Biso   1.000  N
  N45      1.0000 0.80980  0.01050  0.11980  Biso   1.000  N
  C95      1.0000 0.73240  0.00620  0.13600  Biso   1.000  C
  H51      1.0000 0.67850  0.01180  0.11680  Biso   1.000  H
  C96      1.0000 0.72650  0.99390  0.17920  Biso   1.000  C
  H52      1.0000 0.67000  0.98920  0.18860  Biso   1.000  H
  C97      1.0000 0.80480  0.98860  0.20850  Biso   1.000  C
  C98      1.0000 0.88630  0.99570  0.19210  Biso   1.000  C
  H53      1.0000 0.94120  0.99420  0.21060  Biso   1.000  H
  C99      1.0000 0.88530  0.00500  0.14820  Biso   1.000  C
  H54      1.0000 0.94080  0.00750  0.13770  Biso   1.000  H
  C100     1.0000 0.80120  0.97560  0.25560  Biso   1.000  C
  C101     1.0000 0.72750  0.93850  0.27100  Biso   1.000  C
  H55      1.0000 0.67740  0.91880  0.25190  Biso   1.000  H
  N46      1.0000 0.87460  0.99850  0.32540  Biso   1.000  N
  N47      1.0000 0.87350  0.00400  0.28250  Biso   1.000  N
  C102     1.0000 0.72870  0.93090  0.31420  Biso   1.000  C
  H56      1.0000 0.68020  0.90510  0.32570  Biso   1.000  H
  C103     1.0000 0.80390  0.96250  0.34060  Biso   1.000  C
  C104     1.0000 0.80940  0.96160  0.38910  Biso   1.000  C
  C105     1.0000 0.85450  0.02890  0.41320  Biso   1.000  C
  H57      1.0000 0.88550  0.07340  0.40000  Biso   1.000  H
  C106     1.0000 0.85330  0.03000  0.45650  Biso   1.000  C
  H58      1.0000 0.88370  0.07690  0.47250  Biso   1.000  H
  C107     1.0000 0.77200  0.90190  0.45470  Biso   1.000  C
  H59      1.0000 0.74550  0.85570  0.46890  Biso   1.000  H
  C108     1.0000 0.76770  0.89680  0.41040  Biso   1.000  C
  H60      1.0000 0.73670  0.84950  0.39510  Biso   1.000  H
  N48      1.0000 0.81120  0.96800  0.47810  Biso   1.000  N
  Fe7      1.0000 0.30850  0.47934  0.54917  Biso   1.000  Fe
  Au13     1.0000 0.55374  0.22739  0.54396  Biso   1.000  Au
  Au14     1.0000 0.05035  0.23745  0.55242  Biso   1.000  Au
  C109     1.0000 0.14340  0.33180  0.54910  Biso   1.000  C
  C110     1.0000 0.45920  0.31620  0.55310  Biso   1.000  C
  C111     1.0000 0.46220  0.63750  0.55590  Biso   1.000  C
  C112     1.0000 0.15070  0.63740  0.53960  Biso   1.000  C
  N49      1.0000 0.20060  0.38270  0.54730  Biso   1.000  N
  N50      1.0000 0.40720  0.37140  0.55720  Biso   1.000  N
  N51      1.0000 0.41110  0.58070  0.55550  Biso   1.000  N
  N52      1.0000 0.20680  0.58470  0.53900  Biso   1.000  N
  N53      1.0000 0.30980  0.48950  0.61980  Biso   1.000  N
  C113     1.0000 0.23240  0.49380  0.63600  Biso   1.000  C
  H61      1.0000 0.17850  0.48820  0.61680  Biso   1.000  H
  C114     1.0000 0.22650  0.50610  0.67920  Biso   1.000  C
  H62      1.0000 0.17000  0.51080  0.68860  Biso   1.000  H
  C115     1.0000 0.30480  0.51140  0.70850  Biso   1.000  C
  C116     1.0000 0.38630  0.50430  0.69210  Biso   1.000  C
  H63      1.0000 0.44120  0.50580  0.71060  Biso   1.000  H
  C117     1.0000 0.38530  0.49500  0.64820  Biso   1.000  C
  H64      1.0000 0.44080  0.49250  0.63770  Biso   1.000  H
  C118     1.0000 0.30120  0.52440  0.75560  Biso   1.000  C
  C119     1.0000 0.22750  0.56150  0.77100  Biso   1.000  C
  H65      1.0000 0.17740  0.58120  0.75190  Biso   1.000  H
  N54      1.0000 0.37460  0.50150  0.82540  Biso   1.000  N
  N55      1.0000 0.37350  0.49600  0.78250  Biso   1.000  N
  C120     1.0000 0.22870  0.56910  0.81420  Biso   1.000  C
  H66      1.0000 0.18020  0.59490  0.82570  Biso   1.000  H
  C121     1.0000 0.30390  0.53750  0.84060  Biso   1.000  C
  C122     1.0000 0.30940  0.53840  0.88910  Biso   1.000  C
  C123     1.0000 0.35450  0.47110  0.91320  Biso   1.000  C
  H67      1.0000 0.38550  0.42660  0.90000  Biso   1.000  H
  C124     1.0000 0.35330  0.47000  0.95650  Biso   1.000  C
  H68      1.0000 0.38370  0.42310  0.97250  Biso   1.000  H
  C125     1.0000 0.27200  0.59810  0.95470  Biso   1.000  C
  H69      1.0000 0.24550  0.64430  0.96890  Biso   1.000  H
  C126     1.0000 0.26770  0.60320  0.91040  Biso   1.000  C
  H70      1.0000 0.23670  0.65050  0.89510  Biso   1.000  H
  N56      1.0000 0.31120  0.53200  0.97810  Biso   1.000  N
  Fe8      1.0000 0.80850  0.97934  0.54917  Biso   1.000  Fe
  Au15     1.0000 0.05374  0.72739  0.54396  Biso   1.000  Au
  Au16     1.0000 0.55035  0.73745  0.55242  Biso   1.000  Au
  C127     1.0000 0.64340  0.83180  0.54910  Biso   1.000  C
  C128     1.0000 0.95920  0.81620  0.55310  Biso   1.000  C
  C129     1.0000 0.96220  0.13750  0.55590  Biso   1.000  C
  C130     1.0000 0.65070  0.13740  0.53960  Biso   1.000  C
  N57      1.0000 0.70060  0.88270  0.54730  Biso   1.000  N
  N58      1.0000 0.90720  0.87140  0.55720  Biso   1.000  N
  N59      1.0000 0.91110  0.08070  0.55550  Biso   1.000  N
  N60      1.0000 0.70680  0.08470  0.53900  Biso   1.000  N
  N61      1.0000 0.80980  0.98950  0.61980  Biso   1.000  N
  C131     1.0000 0.73240  0.99380  0.63600  Biso   1.000  C
  H71      1.0000 0.67850  0.98820  0.61680  Biso   1.000  H
  C132     1.0000 0.72650  0.00610  0.67920  Biso   1.000  C
  H72      1.0000 0.67000  0.01080  0.68860  Biso   1.000  H
  C133     1.0000 0.80480  0.01140  0.70850  Biso   1.000  C
  C134     1.0000 0.88630  0.00430  0.69210  Biso   1.000  C
  H73      1.0000 0.94120  0.00580  0.71060  Biso   1.000  H
  C135     1.0000 0.88530  0.99500  0.64820  Biso   1.000  C
  H74      1.0000 0.94080  0.99250  0.63770  Biso   1.000  H
  C136     1.0000 0.80120  0.02440  0.75560  Biso   1.000  C
  C137     1.0000 0.72750  0.06150  0.77100  Biso   1.000  C
  H75      1.0000 0.67740  0.08120  0.75190  Biso   1.000  H
  N62      1.0000 0.87460  0.00150  0.82540  Biso   1.000  N
  N63      1.0000 0.87350  0.99600  0.78250  Biso   1.000  N
  C138     1.0000 0.72870  0.06910  0.81420  Biso   1.000  C
  H76      1.0000 0.68020  0.09490  0.82570  Biso   1.000  H
  C139     1.0000 0.80390  0.03750  0.84060  Biso   1.000  C
  C140     1.0000 0.80940  0.03840  0.88910  Biso   1.000  C
  C141     1.0000 0.85450  0.97110  0.91320  Biso   1.000  C
  H77      1.0000 0.88550  0.92660  0.90000  Biso   1.000  H
  C142     1.0000 0.85330  0.97000  0.95650  Biso   1.000  C
  H78      1.0000 0.88370  0.92310  0.97250  Biso   1.000  H
  C143     1.0000 0.77200  0.09810  0.95470  Biso   1.000  C
  H79      1.0000 0.74550  0.14430  0.96890  Biso   1.000  H
  C144     1.0000 0.76770  0.10320  0.91040  Biso   1.000  C
  H80      1.0000 0.73670  0.15050  0.89510  Biso   1.000  H
  N64      1.0000 0.81120  0.03200  0.97810  Biso   1.000  N
