data_image0
_cell_length_a       14.2256
_cell_length_b       14.4645
_cell_length_c       30.4429
_cell_angle_alpha    90
_cell_angle_beta     96.104
_cell_angle_gamma    90

_symmetry_space_group_name_H-M    "P 1"
_symmetry_int_tables_number       1

loop_
  _symmetry_equiv_pos_as_xyz
  'x, y, z'

loop_
  _atom_site_label
  _atom_site_occupancy
  _atom_site_fract_x
  _atom_site_fract_y
  _atom_site_fract_z
  _atom_site_thermal_displace_type
  _atom_site_B_iso_or_equiv
  _atom_site_type_symbol
  Fe1      1.0000 0.69945  0.51999  0.45031  Biso   1.000  Fe
  Au1      1.0000 0.45018  0.76886  0.45599  Biso   1.000  Au
  Au2      1.0000 0.95604  0.76354  0.44735  Biso   1.000  Au
  C1       1.0000 0.85890  0.66570  0.45040  Biso   1.000  C
  C2       1.0000 0.54900  0.67470  0.44880  Biso   1.000  C
  C3       1.0000 0.54770  0.36550  0.44410  Biso   1.000  C
  C4       1.0000 0.85030  0.36410  0.45870  Biso   1.000  C
  N1       1.0000 0.79980  0.61160  0.45203  Biso   1.000  N
  N2       1.0000 0.60530  0.61800  0.44623  Biso   1.000  N
  N3       1.0000 0.60120  0.42610  0.44576  Biso   1.000  N
  N4       1.0000 0.79360  0.42100  0.45664  Biso   1.000  N
  N5       1.0000 0.69800  0.51560  0.38451  Biso   1.000  N
  C5       1.0000 0.77890  0.51170  0.36590  Biso   1.000  C
  H1       1.0000 0.83680  0.51520  0.38450  Biso   1.000  H
  C6       1.0000 0.78240  0.50270  0.32100  Biso   1.000  C
  H2       1.0000 0.84160  0.49930  0.30930  Biso   1.000  H
  C7       1.0000 0.69860  0.49860  0.29300  Biso   1.000  C
  C8       1.0000 0.61470  0.50570  0.31190  Biso   1.000  C
  H3       1.0000 0.55600  0.50470  0.29390  Biso   1.000  H
  C9       1.0000 0.61670  0.51440  0.35730  Biso   1.000  C
  H4       1.0000 0.55850  0.51970  0.36980  Biso   1.000  H
  C10      1.0000 0.70130  0.48530  0.24470  Biso   1.000  C
  C11      1.0000 0.77390  0.43470  0.22840  Biso   1.000  C
  H5       1.0000 0.82310  0.40770  0.24770  Biso   1.000  H
  N6       1.0000 0.63020  0.51610  0.17420  Biso   1.000  N
  N7       1.0000 0.63070  0.52220  0.21830  Biso   1.000  N
  C12      1.0000 0.77150  0.42550  0.18380  Biso   1.000  C
  H6       1.0000 0.81830  0.39060  0.17120  Biso   1.000  H
  C13      1.0000 0.69880  0.46850  0.15740  Biso   1.000  C
  C14      1.0000 0.69620  0.46880  0.10850  Biso   1.000  C
  C15      1.0000 0.66710  0.54680  0.08440  Biso   1.000  C
  H7       1.0000 0.64450  0.59930  0.09880  Biso   1.000  H
  C16      1.0000 0.67110  0.54790  0.03930  Biso   1.000  C
  H8       1.0000 0.65340  0.60300  0.02360  Biso   1.000  H
  C17      1.0000 0.72330  0.39890  0.03980  Biso   1.000  C
  H9       1.0000 0.74080  0.34550  0.02440  Biso   1.000  H
  C18      1.0000 0.72470  0.39370  0.08540  Biso   1.000  C
  H10      1.0000 0.74510  0.33870  0.10060  Biso   1.000  H
  N8       1.0000 0.69860  0.47510  0.01636  Biso   1.000  N
  Fe2      1.0000 0.19945  0.01999  0.45031  Biso   1.000  Fe
  Au3      1.0000 0.95018  0.26886  0.45599  Biso   1.000  Au
  Au4      1.0000 0.45604  0.26354  0.44735  Biso   1.000  Au
  C19      1.0000 0.35890  0.16570  0.45040  Biso   1.000  C
  C20      1.0000 0.04900  0.17470  0.44880  Biso   1.000  C
  C21      1.0000 0.04770  0.86550  0.44410  Biso   1.000  C
  C22      1.0000 0.35030  0.86410  0.45870  Biso   1.000  C
  N9       1.0000 0.29980  0.11160  0.45203  Biso   1.000  N
  N10      1.0000 0.10530  0.11800  0.44623  Biso   1.000  N
  N11      1.0000 0.10120  0.92610  0.44576  Biso   1.000  N
  N12      1.0000 0.29360  0.92100  0.45664  Biso   1.000  N
  N13      1.0000 0.19800  0.01560  0.38451  Biso   1.000  N
  C23      1.0000 0.27890  0.01170  0.36590  Biso   1.000  C
  H11      1.0000 0.33680  0.01520  0.38450  Biso   1.000  H
  C24      1.0000 0.28240  0.00270  0.32100  Biso   1.000  C
  H12      1.0000 0.34160  0.99930  0.30930  Biso   1.000  H
  C25      1.0000 0.19860  0.99860  0.29300  Biso   1.000  C
  C26      1.0000 0.11470  0.00570  0.31190  Biso   1.000  C
  H13      1.0000 0.05600  0.00470  0.29390  Biso   1.000  H
  C27      1.0000 0.11670  0.01440  0.35730  Biso   1.000  C
  H14      1.0000 0.05850  0.01970  0.36980  Biso   1.000  H
  C28      1.0000 0.20130  0.98530  0.24470  Biso   1.000  C
  C29      1.0000 0.27390  0.93470  0.22840  Biso   1.000  C
  H15      1.0000 0.32310  0.90770  0.24770  Biso   1.000  H
  N14      1.0000 0.13020  0.01610  0.17420  Biso   1.000  N
  N15      1.0000 0.13070  0.02220  0.21830  Biso   1.000  N
  C30      1.0000 0.27150  0.92550  0.18380  Biso   1.000  C
  H16      1.0000 0.31830  0.89060  0.17120  Biso   1.000  H
  C31      1.0000 0.19880  0.96850  0.15740  Biso   1.000  C
  C32      1.0000 0.19620  0.96880  0.10850  Biso   1.000  C
  C33      1.0000 0.16710  0.04680  0.08440  Biso   1.000  C
  H17      1.0000 0.14450  0.09930  0.09880  Biso   1.000  H
  C34      1.0000 0.17110  0.04790  0.03930  Biso   1.000  C
  H18      1.0000 0.15340  0.10300  0.02360  Biso   1.000  H
  C35      1.0000 0.22330  0.89890  0.03980  Biso   1.000  C
  H19      1.0000 0.24080  0.84550  0.02440  Biso   1.000  H
  C36      1.0000 0.22470  0.89370  0.08540  Biso   1.000  C
  H20      1.0000 0.24510  0.83870  0.10060  Biso   1.000  H
  N16      1.0000 0.19860  0.97510  0.01636  Biso   1.000  N
  Fe3      1.0000 0.69945  0.48001  0.95031  Biso   1.000  Fe
  Au5      1.0000 0.45018  0.23114  0.95599  Biso   1.000  Au
  Au6      1.0000 0.95604  0.23646  0.94735  Biso   1.000  Au
  C37      1.0000 0.85890  0.33430  0.95040  Biso   1.000  C
  C38      1.0000 0.54900  0.32530  0.94880  Biso   1.000  C
  C39      1.0000 0.54770  0.63450  0.94410  Biso   1.000  C
  C40      1.0000 0.85030  0.63590  0.95870  Biso   1.000  C
  N17      1.0000 0.79980  0.38840  0.95203  Biso   1.000  N
  N18      1.0000 0.60530  0.38200  0.94623  Biso   1.000  N
  N19      1.0000 0.60120  0.57390  0.94576  Biso   1.000  N
  N20      1.0000 0.79360  0.57900  0.95664  Biso   1.000  N
  N21      1.0000 0.69800  0.48440  0.88451  Biso   1.000  N
  C41      1.0000 0.77890  0.48830  0.86590  Biso   1.000  C
  H21      1.0000 0.83680  0.48480  0.88450  Biso   1.000  H
  C42      1.0000 0.78240  0.49730  0.82100  Biso   1.000  C
  H22      1.0000 0.84160  0.50070  0.80930  Biso   1.000  H
  C43      1.0000 0.69860  0.50140  0.79300  Biso   1.000  C
  C44      1.0000 0.61470  0.49430  0.81190  Biso   1.000  C
  H23      1.0000 0.55600  0.49530  0.79390  Biso   1.000  H
  C45      1.0000 0.61670  0.48560  0.85730  Biso   1.000  C
  H24      1.0000 0.55850  0.48030  0.86980  Biso   1.000  H
  C46      1.0000 0.70130  0.51470  0.74470  Biso   1.000  C
  C47      1.0000 0.77390  0.56530  0.72840  Biso   1.000  C
  H25      1.0000 0.82310  0.59230  0.74770  Biso   1.000  H
  N22      1.0000 0.63020  0.48390  0.67420  Biso   1.000  N
  N23      1.0000 0.63070  0.47780  0.71830  Biso   1.000  N
  C48      1.0000 0.77150  0.57450  0.68380  Biso   1.000  C
  H26      1.0000 0.81830  0.60940  0.67120  Biso   1.000  H
  C49      1.0000 0.69880  0.53150  0.65740  Biso   1.000  C
  C50      1.0000 0.69620  0.53120  0.60850  Biso   1.000  C
  C51      1.0000 0.66710  0.45320  0.58440  Biso   1.000  C
  H27      1.0000 0.64450  0.40070  0.59880  Biso   1.000  H
  C52      1.0000 0.67110  0.45210  0.53930  Biso   1.000  C
  H28      1.0000 0.65340  0.39700  0.52360  Biso   1.000  H
  C53      1.0000 0.72330  0.60110  0.53980  Biso   1.000  C
  H29      1.0000 0.74080  0.65450  0.52440  Biso   1.000  H
  C54      1.0000 0.72470  0.60630  0.58540  Biso   1.000  C
  H30      1.0000 0.74510  0.66130  0.60060  Biso   1.000  H
  N24      1.0000 0.69860  0.52490  0.51636  Biso   1.000  N
  Fe4      1.0000 0.19945  0.98001  0.95031  Biso   1.000  Fe
  Au7      1.0000 0.95018  0.73114  0.95599  Biso   1.000  Au
  Au8      1.0000 0.45604  0.73646  0.94735  Biso   1.000  Au
  C55      1.0000 0.35890  0.83430  0.95040  Biso   1.000  C
  C56      1.0000 0.04900  0.82530  0.94880  Biso   1.000  C
  C57      1.0000 0.04770  0.13450  0.94410  Biso   1.000  C
  C58      1.0000 0.35030  0.13590  0.95870  Biso   1.000  C
  N25      1.0000 0.29980  0.88840  0.95203  Biso   1.000  N
  N26      1.0000 0.10530  0.88200  0.94623  Biso   1.000  N
  N27      1.0000 0.10120  0.07390  0.94576  Biso   1.000  N
  N28      1.0000 0.29360  0.07900  0.95664  Biso   1.000  N
  N29      1.0000 0.19800  0.98440  0.88451  Biso   1.000  N
  C59      1.0000 0.27890  0.98830  0.86590  Biso   1.000  C
  H31      1.0000 0.33680  0.98480  0.88450  Biso   1.000  H
  C60      1.0000 0.28240  0.99730  0.82100  Biso   1.000  C
  H32      1.0000 0.34160  0.00070  0.80930  Biso   1.000  H
  C61      1.0000 0.19860  0.00140  0.79300  Biso   1.000  C
  C62      1.0000 0.11470  0.99430  0.81190  Biso   1.000  C
  H33      1.0000 0.05600  0.99530  0.79390  Biso   1.000  H
  C63      1.0000 0.11670  0.98560  0.85730  Biso   1.000  C
  H34      1.0000 0.05850  0.98030  0.86980  Biso   1.000  H
  C64      1.0000 0.20130  0.01470  0.74470  Biso   1.000  C
  C65      1.0000 0.27390  0.06530  0.72840  Biso   1.000  C
  H35      1.0000 0.32310  0.09230  0.74770  Biso   1.000  H
  N30      1.0000 0.13020  0.98390  0.67420  Biso   1.000  N
  N31      1.0000 0.13070  0.97780  0.71830  Biso   1.000  N
  C66      1.0000 0.27150  0.07450  0.68380  Biso   1.000  C
  H36      1.0000 0.31830  0.10940  0.67120  Biso   1.000  H
  C67      1.0000 0.19880  0.03150  0.65740  Biso   1.000  C
  C68      1.0000 0.19620  0.03120  0.60850  Biso   1.000  C
  C69      1.0000 0.16710  0.95320  0.58440  Biso   1.000  C
  H37      1.0000 0.14450  0.90070  0.59880  Biso   1.000  H
  C70      1.0000 0.17110  0.95210  0.53930  Biso   1.000  C
  H38      1.0000 0.15340  0.89700  0.52360  Biso   1.000  H
  C71      1.0000 0.22330  0.10110  0.53980  Biso   1.000  C
  H39      1.0000 0.24080  0.15450  0.52440  Biso   1.000  H
  C72      1.0000 0.22470  0.10630  0.58540  Biso   1.000  C
  H40      1.0000 0.24510  0.16130  0.60060  Biso   1.000  H
  N32      1.0000 0.19860  0.02490  0.51636  Biso   1.000  N
  Fe5      1.0000 0.30055  0.51999  0.04969  Biso   1.000  Fe
  Au9      1.0000 0.54982  0.76886  0.04401  Biso   1.000  Au
  Au10     1.0000 0.04396  0.76354  0.05265  Biso   1.000  Au
  C73      1.0000 0.14110  0.66570  0.04960  Biso   1.000  C
  C74      1.0000 0.45100  0.67470  0.05120  Biso   1.000  C
  C75      1.0000 0.45230  0.36550  0.05590  Biso   1.000  C
  C76      1.0000 0.14970  0.36410  0.04130  Biso   1.000  C
  N33      1.0000 0.20020  0.61160  0.04797  Biso   1.000  N
  N34      1.0000 0.39470  0.61800  0.05377  Biso   1.000  N
  N35      1.0000 0.39880  0.42610  0.05424  Biso   1.000  N
  N36      1.0000 0.20640  0.42100  0.04336  Biso   1.000  N
  N37      1.0000 0.30200  0.51560  0.11549  Biso   1.000  N
  C77      1.0000 0.22110  0.51170  0.13410  Biso   1.000  C
  H41      1.0000 0.16320  0.51520  0.11550  Biso   1.000  H
  C78      1.0000 0.21760  0.50270  0.17900  Biso   1.000  C
  H42      1.0000 0.15840  0.49930  0.19070  Biso   1.000  H
  C79      1.0000 0.30140  0.49860  0.20700  Biso   1.000  C
  C80      1.0000 0.38530  0.50570  0.18810  Biso   1.000  C
  H43      1.0000 0.44400  0.50470  0.20610  Biso   1.000  H
  C81      1.0000 0.38330  0.51440  0.14270  Biso   1.000  C
  H44      1.0000 0.44150  0.51970  0.13020  Biso   1.000  H
  C82      1.0000 0.29870  0.48530  0.25530  Biso   1.000  C
  C83      1.0000 0.22610  0.43470  0.27160  Biso   1.000  C
  H45      1.0000 0.17690  0.40770  0.25230  Biso   1.000  H
  N38      1.0000 0.36980  0.51610  0.32580  Biso   1.000  N
  N39      1.0000 0.36930  0.52220  0.28170  Biso   1.000  N
  C84      1.0000 0.22850  0.42550  0.31620  Biso   1.000  C
  H46      1.0000 0.18170  0.39060  0.32880  Biso   1.000  H
  C85      1.0000 0.30120  0.46850  0.34260  Biso   1.000  C
  C86      1.0000 0.30380  0.46880  0.39150  Biso   1.000  C
  C87      1.0000 0.33290  0.54680  0.41560  Biso   1.000  C
  H47      1.0000 0.35550  0.59930  0.40120  Biso   1.000  H
  C88      1.0000 0.32890  0.54790  0.46070  Biso   1.000  C
  H48      1.0000 0.34660  0.60300  0.47640  Biso   1.000  H
  C89      1.0000 0.27670  0.39890  0.46020  Biso   1.000  C
  H49      1.0000 0.25920  0.34550  0.47560  Biso   1.000  H
  C90      1.0000 0.27530  0.39370  0.41460  Biso   1.000  C
  H50      1.0000 0.25490  0.33870  0.39940  Biso   1.000  H
  N40      1.0000 0.30140  0.47510  0.48364  Biso   1.000  N
  Fe6      1.0000 0.80055  0.01999  0.04969  Biso   1.000  Fe
  Au11     1.0000 0.04982  0.26886  0.04401  Biso   1.000  Au
  Au12     1.0000 0.54396  0.26354  0.05265  Biso   1.000  Au
  C91      1.0000 0.64110  0.16570  0.04960  Biso   1.000  C
  C92      1.0000 0.95100  0.17470  0.05120  Biso   1.000  C
  C93      1.0000 0.95230  0.86550  0.05590  Biso   1.000  C
  C94      1.0000 0.64970  0.86410  0.04130  Biso   1.000  C
  N41      1.0000 0.70020  0.11160  0.04797  Biso   1.000  N
  N42      1.0000 0.89470  0.11800  0.05377  Biso   1.000  N
  N43      1.0000 0.89880  0.92610  0.05424  Biso   1.000  N
  N44      1.0000 0.70640  0.92100  0.04336  Biso   1.000  N
  N45      1.0000 0.80200  0.01560  0.11549  Biso   1.000  N
  C95      1.0000 0.72110  0.01170  0.13410  Biso   1.000  C
  H51      1.0000 0.66320  0.01520  0.11550  Biso   1.000  H
  C96      1.0000 0.71760  0.00270  0.17900  Biso   1.000  C
  H52      1.0000 0.65840  0.99930  0.19070  Biso   1.000  H
  C97      1.0000 0.80140  0.99860  0.20700  Biso   1.000  C
  C98      1.0000 0.88530  0.00570  0.18810  Biso   1.000  C
  H53      1.0000 0.94400  0.00470  0.20610  Biso   1.000  H
  C99      1.0000 0.88330  0.01440  0.14270  Biso   1.000  C
  H54      1.0000 0.94150  0.01970  0.13020  Biso   1.000  H
  C100     1.0000 0.79870  0.98530  0.25530  Biso   1.000  C
  C101     1.0000 0.72610  0.93470  0.27160  Biso   1.000  C
  H55      1.0000 0.67690  0.90770  0.25230  Biso   1.000  H
  N46      1.0000 0.86980  0.01610  0.32580  Biso   1.000  N
  N47      1.0000 0.86930  0.02220  0.28170  Biso   1.000  N
  C102     1.0000 0.72850  0.92550  0.31620  Biso   1.000  C
  H56      1.0000 0.68170  0.89060  0.32880  Biso   1.000  H
  C103     1.0000 0.80120  0.96850  0.34260  Biso   1.000  C
  C104     1.0000 0.80380  0.96880  0.39150  Biso   1.000  C
  C105     1.0000 0.83290  0.04680  0.41560  Biso   1.000  C
  H57      1.0000 0.85550  0.09930  0.40120  Biso   1.000  H
  C106     1.0000 0.82890  0.04790  0.46070  Biso   1.000  C
  H58      1.0000 0.84660  0.10300  0.47640  Biso   1.000  H
  C107     1.0000 0.77670  0.89890  0.46020  Biso   1.000  C
  H59      1.0000 0.75920  0.84550  0.47560  Biso   1.000  H
  C108     1.0000 0.77530  0.89370  0.41460  Biso   1.000  C
  H60      1.0000 0.75490  0.83870  0.39940  Biso   1.000  H
  N48      1.0000 0.80140  0.97510  0.48364  Biso   1.000  N
  Fe7      1.0000 0.30055  0.48001  0.54969  Biso   1.000  Fe
  Au13     1.0000 0.54982  0.23114  0.54401  Biso   1.000  Au
  Au14     1.0000 0.04396  0.23646  0.55265  Biso   1.000  Au
  C109     1.0000 0.14110  0.33430  0.54960  Biso   1.000  C
  C110     1.0000 0.45100  0.32530  0.55120  Biso   1.000  C
  C111     1.0000 0.45230  0.63450  0.55590  Biso   1.000  C
  C112     1.0000 0.14970  0.63590  0.54130  Biso   1.000  C
  N49      1.0000 0.20020  0.38840  0.54797  Biso   1.000  N
  N50      1.0000 0.39470  0.38200  0.55377  Biso   1.000  N
  N51      1.0000 0.39880  0.57390  0.55424  Biso   1.000  N
  N52      1.0000 0.20640  0.57900  0.54336  Biso   1.000  N
  N53      1.0000 0.30200  0.48440  0.61549  Biso   1.000  N
  C113     1.0000 0.22110  0.48830  0.63410  Biso   1.000  C
  H61      1.0000 0.16320  0.48480  0.61550  Biso   1.000  H
  C114     1.0000 0.21760  0.49730  0.67900  Biso   1.000  C
  H62      1.0000 0.15840  0.50070  0.69070  Biso   1.000  H
  C115     1.0000 0.30140  0.50140  0.70700  Biso   1.000  C
  C116     1.0000 0.38530  0.49430  0.68810  Biso   1.000  C
  H63      1.0000 0.44400  0.49530  0.70610  Biso   1.000  H
  C117     1.0000 0.38330  0.48560  0.64270  Biso   1.000  C
  H64      1.0000 0.44150  0.48030  0.63020  Biso   1.000  H
  C118     1.0000 0.29870  0.51470  0.75530  Biso   1.000  C
  C119     1.0000 0.22610  0.56530  0.77160  Biso   1.000  C
  H65      1.0000 0.17690  0.59230  0.75230  Biso   1.000  H
  N54      1.0000 0.36980  0.48390  0.82580  Biso   1.000  N
  N55      1.0000 0.36930  0.47780  0.78170  Biso   1.000  N
  C120     1.0000 0.22850  0.57450  0.81620  Biso   1.000  C
  H66      1.0000 0.18170  0.60940  0.82880  Biso   1.000  H
  C121     1.0000 0.30120  0.53150  0.84260  Biso   1.000  C
  C122     1.0000 0.30380  0.53120  0.89150  Biso   1.000  C
  C123     1.0000 0.33290  0.45320  0.91560  Biso   1.000  C
  H67      1.0000 0.35550  0.40070  0.90120  Biso   1.000  H
  C124     1.0000 0.32890  0.45210  0.96070  Biso   1.000  C
  H68      1.0000 0.34660  0.39700  0.97640  Biso   1.000  H
  C125     1.0000 0.27670  0.60110  0.96020  Biso   1.000  C
  H69      1.0000 0.25920  0.65450  0.97560  Biso   1.000  H
  C126     1.0000 0.27530  0.60630  0.91460  Biso   1.000  C
  H70      1.0000 0.25490  0.66130  0.89940  Biso   1.000  H
  N56      1.0000 0.30140  0.52490  0.98364  Biso   1.000  N
  Fe8      1.0000 0.80055  0.98001  0.54969  Biso   1.000  Fe
  Au15     1.0000 0.04982  0.73114  0.54401  Biso   1.000  Au
  Au16     1.0000 0.54396  0.73646  0.55265  Biso   1.000  Au
  C127     1.0000 0.64110  0.83430  0.54960  Biso   1.000  C
  C128     1.0000 0.95100  0.82530  0.55120  Biso   1.000  C
  C129     1.0000 0.95230  0.13450  0.55590  Biso   1.000  C
  C130     1.0000 0.64970  0.13590  0.54130  Biso   1.000  C
  N57      1.0000 0.70020  0.88840  0.54797  Biso   1.000  N
  N58      1.0000 0.89470  0.88200  0.55377  Biso   1.000  N
  N59      1.0000 0.89880  0.07390  0.55424  Biso   1.000  N
  N60      1.0000 0.70640  0.07900  0.54336  Biso   1.000  N
  N61      1.0000 0.80200  0.98440  0.61549  Biso   1.000  N
  C131     1.0000 0.72110  0.98830  0.63410  Biso   1.000  C
  H71      1.0000 0.66320  0.98480  0.61550  Biso   1.000  H
  C132     1.0000 0.71760  0.99730  0.67900  Biso   1.000  C
  H72      1.0000 0.65840  0.00070  0.69070  Biso   1.000  H
  C133     1.0000 0.80140  0.00140  0.70700  Biso   1.000  C
  C134     1.0000 0.88530  0.99430  0.68810  Biso   1.000  C
  H73      1.0000 0.94400  0.99530  0.70610  Biso   1.000  H
  C135     1.0000 0.88330  0.98560  0.64270  Biso   1.000  C
  H74      1.0000 0.94150  0.98030  0.63020  Biso   1.000  H
  C136     1.0000 0.79870  0.01470  0.75530  Biso   1.000  C
  C137     1.0000 0.72610  0.06530  0.77160  Biso   1.000  C
  H75      1.0000 0.67690  0.09230  0.75230  Biso   1.000  H
  N62      1.0000 0.86980  0.98390  0.82580  Biso   1.000  N
  N63      1.0000 0.86930  0.97780  0.78170  Biso   1.000  N
  C138     1.0000 0.72850  0.07450  0.81620  Biso   1.000  C
  H76      1.0000 0.68170  0.10940  0.82880  Biso   1.000  H
  C139     1.0000 0.80120  0.03150  0.84260  Biso   1.000  C
  C140     1.0000 0.80380  0.03120  0.89150  Biso   1.000  C
  C141     1.0000 0.83290  0.95320  0.91560  Biso   1.000  C
  H77      1.0000 0.85550  0.90070  0.90120  Biso   1.000  H
  C142     1.0000 0.82890  0.95210  0.96070  Biso   1.000  C
  H78      1.0000 0.84660  0.89700  0.97640  Biso   1.000  H
  C143     1.0000 0.77670  0.10110  0.96020  Biso   1.000  C
  H79      1.0000 0.75920  0.15450  0.97560  Biso   1.000  H
  C144     1.0000 0.77530  0.10630  0.91460  Biso   1.000  C
  H80      1.0000 0.75490  0.16130  0.89940  Biso   1.000  H
  N64      1.0000 0.80140  0.02490  0.98364  Biso   1.000  N
