data_image0
_cell_length_a       18.7698
_cell_length_b       18.7698
_cell_length_c       18.7698
_cell_angle_alpha    109.471
_cell_angle_beta     109.471
_cell_angle_gamma    109.471

_symmetry_space_group_name_H-M    P 1
_symmetry_int_tables_number       1

loop_
  _symmetry_equiv_pos_as_xyz
  'x, y, z'

loop_
  _atom_site_label
  _atom_site_occupancy
  _atom_site_fract_x
  _atom_site_fract_y
  _atom_site_fract_z
  _atom_site_thermal_displace_type
  _atom_site_B_iso_or_equiv
  _atom_site_type_symbol
  Ni1      1.0000 0.53524  0.64825  0.64825  Biso   1.000  Ni
  Ni2      1.0000 0.00000  0.88699  0.35175  Biso   1.000  Ni
  Ni3      1.0000 0.00000  0.35175  0.88699  Biso   1.000  Ni
  Ni4      1.0000 0.46476  0.11301  0.11301  Biso   1.000  Ni
  Ni5      1.0000 0.88699  0.00000  0.35175  Biso   1.000  Ni
  Ni6      1.0000 0.11301  0.46476  0.11301  Biso   1.000  Ni
  Ni7      1.0000 0.64825  0.53524  0.64825  Biso   1.000  Ni
  Ni8      1.0000 0.35175  0.00000  0.88699  Biso   1.000  Ni
  Ni9      1.0000 0.88699  0.35175  0.00000  Biso   1.000  Ni
  Ni10     1.0000 0.64825  0.64825  0.53524  Biso   1.000  Ni
  Ni11     1.0000 0.11301  0.11301  0.46476  Biso   1.000  Ni
  Ni12     1.0000 0.35175  0.88699  0.00000  Biso   1.000  Ni
  H1       1.0000 0.62840  0.92270  0.75830  Biso   1.000  H
  H2       1.0000 0.30450  0.43620  0.59730  Biso   1.000  H
  H3       1.0000 0.18090  0.30730  0.54680  Biso   1.000  H
  H4       1.0000 0.16440  0.87010  0.24170  Biso   1.000  H
  H5       1.0000 0.83890  0.70720  0.40270  Biso   1.000  H
  H6       1.0000 0.76050  0.63410  0.45320  Biso   1.000  H
  H7       1.0000 0.83560  0.07730  0.70570  Biso   1.000  H
  H8       1.0000 0.16110  0.56380  0.86830  Biso   1.000  H
  H9       1.0000 0.23950  0.69270  0.87360  Biso   1.000  H
  H10      1.0000 0.37160  0.12990  0.29430  Biso   1.000  H
  H11      1.0000 0.69550  0.29280  0.13170  Biso   1.000  H
  H12      1.0000 0.81910  0.36590  0.12640  Biso   1.000  H
  H13      1.0000 0.70570  0.83560  0.07730  Biso   1.000  H
  H14      1.0000 0.86830  0.16110  0.56380  Biso   1.000  H
  H15      1.0000 0.87360  0.23950  0.69270  Biso   1.000  H
  H16      1.0000 0.29430  0.37160  0.12990  Biso   1.000  H
  H17      1.0000 0.13170  0.69550  0.29280  Biso   1.000  H
  H18      1.0000 0.12640  0.81910  0.36590  Biso   1.000  H
  H19      1.0000 0.75830  0.62840  0.92270  Biso   1.000  H
  H20      1.0000 0.59730  0.30450  0.43620  Biso   1.000  H
  H21      1.0000 0.54680  0.18090  0.30730  Biso   1.000  H
  H22      1.0000 0.24170  0.16440  0.87010  Biso   1.000  H
  H23      1.0000 0.40270  0.83890  0.70720  Biso   1.000  H
  H24      1.0000 0.45320  0.76050  0.63410  Biso   1.000  H
  H25      1.0000 0.87010  0.24170  0.16440  Biso   1.000  H
  H26      1.0000 0.70720  0.40270  0.83890  Biso   1.000  H
  H27      1.0000 0.63410  0.45320  0.76050  Biso   1.000  H
  H28      1.0000 0.92270  0.75830  0.62840  Biso   1.000  H
  H29      1.0000 0.43620  0.59730  0.30450  Biso   1.000  H
  H30      1.0000 0.30730  0.54680  0.18090  Biso   1.000  H
  H31      1.0000 0.12990  0.29430  0.37160  Biso   1.000  H
  H32      1.0000 0.29280  0.13170  0.69550  Biso   1.000  H
  H33      1.0000 0.36590  0.12640  0.81910  Biso   1.000  H
  H34      1.0000 0.07730  0.70570  0.83560  Biso   1.000  H
  H35      1.0000 0.56380  0.86830  0.16110  Biso   1.000  H
  H36      1.0000 0.69270  0.87360  0.23950  Biso   1.000  H
  H37      1.0000 0.87010  0.16440  0.24170  Biso   1.000  H
  H38      1.0000 0.70720  0.83890  0.40270  Biso   1.000  H
  H39      1.0000 0.63410  0.76050  0.45320  Biso   1.000  H
  H40      1.0000 0.92270  0.62840  0.75830  Biso   1.000  H
  H41      1.0000 0.43620  0.30450  0.59730  Biso   1.000  H
  H42      1.0000 0.30730  0.18090  0.54680  Biso   1.000  H
  H43      1.0000 0.12990  0.37160  0.29430  Biso   1.000  H
  H44      1.0000 0.29280  0.69550  0.13170  Biso   1.000  H
  H45      1.0000 0.36590  0.81910  0.12640  Biso   1.000  H
  H46      1.0000 0.07730  0.83560  0.70570  Biso   1.000  H
  H47      1.0000 0.56380  0.16110  0.86830  Biso   1.000  H
  H48      1.0000 0.69270  0.23950  0.87360  Biso   1.000  H
  H49      1.0000 0.62840  0.75830  0.92270  Biso   1.000  H
  H50      1.0000 0.30450  0.59730  0.43620  Biso   1.000  H
  H51      1.0000 0.18090  0.54680  0.30730  Biso   1.000  H
  H52      1.0000 0.16440  0.24170  0.87010  Biso   1.000  H
  H53      1.0000 0.83890  0.40270  0.70720  Biso   1.000  H
  H54      1.0000 0.76050  0.45320  0.63410  Biso   1.000  H
  H55      1.0000 0.83560  0.70570  0.07730  Biso   1.000  H
  H56      1.0000 0.16110  0.86830  0.56380  Biso   1.000  H
  H57      1.0000 0.23950  0.87360  0.69270  Biso   1.000  H
  H58      1.0000 0.37160  0.29430  0.12990  Biso   1.000  H
  H59      1.0000 0.69550  0.13170  0.29280  Biso   1.000  H
  H60      1.0000 0.81910  0.12640  0.36590  Biso   1.000  H
  H61      1.0000 0.70570  0.07730  0.83560  Biso   1.000  H
  H62      1.0000 0.86830  0.56380  0.16110  Biso   1.000  H
  H63      1.0000 0.87360  0.69270  0.23950  Biso   1.000  H
  H64      1.0000 0.29430  0.12990  0.37160  Biso   1.000  H
  H65      1.0000 0.13170  0.29280  0.69550  Biso   1.000  H
  H66      1.0000 0.12640  0.36590  0.81910  Biso   1.000  H
  H67      1.0000 0.75830  0.92270  0.62840  Biso   1.000  H
  H68      1.0000 0.59730  0.43620  0.30450  Biso   1.000  H
  H69      1.0000 0.54680  0.30730  0.18090  Biso   1.000  H
  H70      1.0000 0.24170  0.87010  0.16440  Biso   1.000  H
  H71      1.0000 0.40270  0.70720  0.83890  Biso   1.000  H
  H72      1.0000 0.45320  0.63410  0.76050  Biso   1.000  H
  H73      1.0000 0.55400  0.55400  0.55400  Biso   1.000  H
  H74      1.0000 0.00000  0.00000  0.44600  Biso   1.000  H
  H75      1.0000 0.00000  0.44600  0.00000  Biso   1.000  H
  H76      1.0000 0.44600  0.00000  0.00000  Biso   1.000  H
  C1       1.0000 0.67710  0.95370  0.75420  Biso   1.000  C
  C2       1.0000 0.30680  0.38390  0.58510  Biso   1.000  C
  C3       1.0000 0.23330  0.30640  0.55530  Biso   1.000  C
  C4       1.0000 0.19950  0.92290  0.24580  Biso   1.000  C
  C5       1.0000 0.79880  0.72170  0.41490  Biso   1.000  C
  C6       1.0000 0.75110  0.67800  0.44470  Biso   1.000  C
  C7       1.0000 0.80050  0.04630  0.72340  Biso   1.000  C
  C8       1.0000 0.20120  0.61610  0.92290  Biso   1.000  C
  C9       1.0000 0.24890  0.69360  0.92690  Biso   1.000  C
  C10      1.0000 0.32290  0.07710  0.27660  Biso   1.000  C
  C11      1.0000 0.69320  0.27830  0.07710  Biso   1.000  C
  C12      1.0000 0.76670  0.32200  0.07310  Biso   1.000  C
  C13      1.0000 0.72340  0.80050  0.04630  Biso   1.000  C
  C14      1.0000 0.92290  0.20120  0.61610  Biso   1.000  C
  C15      1.0000 0.92690  0.24890  0.69360  Biso   1.000  C
  C16      1.0000 0.27660  0.32290  0.07710  Biso   1.000  C
  C17      1.0000 0.07710  0.69320  0.27830  Biso   1.000  C
  C18      1.0000 0.07310  0.76670  0.32200  Biso   1.000  C
  C19      1.0000 0.75420  0.67710  0.95370  Biso   1.000  C
  C20      1.0000 0.58510  0.30680  0.38390  Biso   1.000  C
  C21      1.0000 0.55530  0.23330  0.30640  Biso   1.000  C
  C22      1.0000 0.24580  0.19950  0.92290  Biso   1.000  C
  C23      1.0000 0.41490  0.79880  0.72170  Biso   1.000  C
  C24      1.0000 0.44470  0.75110  0.67800  Biso   1.000  C
  C25      1.0000 0.92290  0.24580  0.19950  Biso   1.000  C
  C26      1.0000 0.72170  0.41490  0.79880  Biso   1.000  C
  C27      1.0000 0.67800  0.44470  0.75110  Biso   1.000  C
  C28      1.0000 0.95370  0.75420  0.67710  Biso   1.000  C
  C29      1.0000 0.38390  0.58510  0.30680  Biso   1.000  C
  C30      1.0000 0.30640  0.55530  0.23330  Biso   1.000  C
  C31      1.0000 0.07710  0.27660  0.32290  Biso   1.000  C
  C32      1.0000 0.27830  0.07710  0.69320  Biso   1.000  C
  C33      1.0000 0.32200  0.07310  0.76670  Biso   1.000  C
  C34      1.0000 0.04630  0.72340  0.80050  Biso   1.000  C
  C35      1.0000 0.61610  0.92290  0.20120  Biso   1.000  C
  C36      1.0000 0.69360  0.92690  0.24890  Biso   1.000  C
  C37      1.0000 0.92290  0.19950  0.24580  Biso   1.000  C
  C38      1.0000 0.72170  0.79880  0.41490  Biso   1.000  C
  C39      1.0000 0.67800  0.75110  0.44470  Biso   1.000  C
  C40      1.0000 0.95370  0.67710  0.75420  Biso   1.000  C
  C41      1.0000 0.38390  0.30680  0.58510  Biso   1.000  C
  C42      1.0000 0.30640  0.23330  0.55530  Biso   1.000  C
  C43      1.0000 0.07710  0.32290  0.27660  Biso   1.000  C
  C44      1.0000 0.27830  0.69320  0.07710  Biso   1.000  C
  C45      1.0000 0.32200  0.76670  0.07310  Biso   1.000  C
  C46      1.0000 0.04630  0.80050  0.72340  Biso   1.000  C
  C47      1.0000 0.61610  0.20120  0.92290  Biso   1.000  C
  C48      1.0000 0.69360  0.24890  0.92690  Biso   1.000  C
  C49      1.0000 0.67710  0.75420  0.95370  Biso   1.000  C
  C50      1.0000 0.30680  0.58510  0.38390  Biso   1.000  C
  C51      1.0000 0.23330  0.55530  0.30640  Biso   1.000  C
  C52      1.0000 0.19950  0.24580  0.92290  Biso   1.000  C
  C53      1.0000 0.79880  0.41490  0.72170  Biso   1.000  C
  C54      1.0000 0.75110  0.44470  0.67800  Biso   1.000  C
  C55      1.0000 0.80050  0.72340  0.04630  Biso   1.000  C
  C56      1.0000 0.20120  0.92290  0.61610  Biso   1.000  C
  C57      1.0000 0.24890  0.92690  0.69360  Biso   1.000  C
  C58      1.0000 0.32290  0.27660  0.07710  Biso   1.000  C
  C59      1.0000 0.69320  0.07710  0.27830  Biso   1.000  C
  C60      1.0000 0.76670  0.07310  0.32200  Biso   1.000  C
  C61      1.0000 0.72340  0.04630  0.80050  Biso   1.000  C
  C62      1.0000 0.92290  0.61610  0.20120  Biso   1.000  C
  C63      1.0000 0.92690  0.69360  0.24890  Biso   1.000  C
  C64      1.0000 0.27660  0.07710  0.32290  Biso   1.000  C
  C65      1.0000 0.07710  0.27830  0.69320  Biso   1.000  C
  C66      1.0000 0.07310  0.32200  0.76670  Biso   1.000  C
  C67      1.0000 0.75420  0.95370  0.67710  Biso   1.000  C
  C68      1.0000 0.58510  0.38390  0.30680  Biso   1.000  C
  C69      1.0000 0.55530  0.30640  0.23330  Biso   1.000  C
  C70      1.0000 0.24580  0.92290  0.19950  Biso   1.000  C
  C71      1.0000 0.41490  0.72170  0.79880  Biso   1.000  C
  C72      1.0000 0.44470  0.67800  0.75110  Biso   1.000  C
  C73      1.0000 0.46110  0.46110  0.61540  Biso   1.000  C
  C74      1.0000 0.38320  0.38320  0.59660  Biso   1.000  C
  C75      1.0000 0.84570  0.84570  0.38460  Biso   1.000  C
  C76      1.0000 0.78660  0.78660  0.40340  Biso   1.000  C
  C77      1.0000 0.15430  0.53890  0.00000  Biso   1.000  C
  C78      1.0000 0.21340  0.61680  0.00000  Biso   1.000  C
  C79      1.0000 0.53890  0.15430  0.00000  Biso   1.000  C
  C80      1.0000 0.61680  0.21340  0.00000  Biso   1.000  C
  C81      1.0000 0.00000  0.15430  0.53890  Biso   1.000  C
  C82      1.0000 0.00000  0.21340  0.61680  Biso   1.000  C
  C83      1.0000 0.00000  0.53890  0.15430  Biso   1.000  C
  C84      1.0000 0.00000  0.61680  0.21340  Biso   1.000  C
  C85      1.0000 0.61540  0.46110  0.46110  Biso   1.000  C
  C86      1.0000 0.59660  0.38320  0.38320  Biso   1.000  C
  C87      1.0000 0.38460  0.84570  0.84570  Biso   1.000  C
  C88      1.0000 0.40340  0.78660  0.78660  Biso   1.000  C
  C89      1.0000 0.84570  0.38460  0.84570  Biso   1.000  C
  C90      1.0000 0.78660  0.40340  0.78660  Biso   1.000  C
  C91      1.0000 0.46110  0.61540  0.46110  Biso   1.000  C
  C92      1.0000 0.38320  0.59660  0.38320  Biso   1.000  C
  C93      1.0000 0.15430  0.00000  0.53890  Biso   1.000  C
  C94      1.0000 0.21340  0.00000  0.61680  Biso   1.000  C
  C95      1.0000 0.53890  0.00000  0.15430  Biso   1.000  C
  C96      1.0000 0.61680  0.00000  0.21340  Biso   1.000  C
  C97      1.0000 0.66090  0.81100  0.66090  Biso   1.000  C
  C98      1.0000 0.70280  0.90840  0.70280  Biso   1.000  C
  C99      1.0000 0.15010  0.00000  0.33910  Biso   1.000  C
  C100     1.0000 0.20560  0.00000  0.29720  Biso   1.000  C
  C101     1.0000 0.84990  0.18900  0.84990  Biso   1.000  C
  C102     1.0000 0.79440  0.09160  0.79440  Biso   1.000  C
  C103     1.0000 0.33910  0.00000  0.15010  Biso   1.000  C
  C104     1.0000 0.29720  0.00000  0.20560  Biso   1.000  C
  C105     1.0000 0.84990  0.84990  0.18900  Biso   1.000  C
  C106     1.0000 0.79440  0.79440  0.09160  Biso   1.000  C
  C107     1.0000 0.15010  0.33910  0.00000  Biso   1.000  C
  C108     1.0000 0.20560  0.29720  0.00000  Biso   1.000  C
  C109     1.0000 0.66090  0.66090  0.81100  Biso   1.000  C
  C110     1.0000 0.70280  0.70280  0.90840  Biso   1.000  C
  C111     1.0000 0.33910  0.15010  0.00000  Biso   1.000  C
  C112     1.0000 0.29720  0.20560  0.00000  Biso   1.000  C
  C113     1.0000 0.00000  0.33910  0.15010  Biso   1.000  C
  C114     1.0000 0.00000  0.29720  0.20560  Biso   1.000  C
  C115     1.0000 0.81100  0.66090  0.66090  Biso   1.000  C
  C116     1.0000 0.90840  0.70280  0.70280  Biso   1.000  C
  C117     1.0000 0.00000  0.15010  0.33910  Biso   1.000  C
  C118     1.0000 0.00000  0.20560  0.29720  Biso   1.000  C
  C119     1.0000 0.18900  0.84990  0.84990  Biso   1.000  C
  C120     1.0000 0.09160  0.79440  0.79440  Biso   1.000  C
  N1       1.0000 0.23210  0.23210  0.53840  Biso   1.000  N
  N2       1.0000 0.69370  0.69370  0.46160  Biso   1.000  N
  N3       1.0000 0.30630  0.76790  0.00000  Biso   1.000  N
  N4       1.0000 0.76790  0.30630  0.00000  Biso   1.000  N
  N5       1.0000 0.00000  0.30630  0.76790  Biso   1.000  N
  N6       1.0000 0.00000  0.76790  0.30630  Biso   1.000  N
  N7       1.0000 0.53840  0.23210  0.23210  Biso   1.000  N
  N8       1.0000 0.46160  0.69370  0.69370  Biso   1.000  N
  N9       1.0000 0.69370  0.46160  0.69370  Biso   1.000  N
  N10      1.0000 0.23210  0.53840  0.23210  Biso   1.000  N
  N11      1.0000 0.30630  0.00000  0.76790  Biso   1.000  N
  N12      1.0000 0.76790  0.00000  0.30630  Biso   1.000  N
  O1       1.0000 0.60920  0.77505  0.68145  Biso   1.000  O
  O2       1.0000 0.45192  0.52543  0.62051  Biso   1.000  O
  O3       1.0000 0.09360  0.92775  0.31855  Biso   1.000  O
  O4       1.0000 0.90492  0.83141  0.37949  Biso   1.000  O
  O5       1.0000 0.90640  0.22495  0.83415  Biso   1.000  O
  O6       1.0000 0.09508  0.47457  0.92649  Biso   1.000  O
  O7       1.0000 0.39080  0.07225  0.16585  Biso   1.000  O
  O8       1.0000 0.54808  0.16859  0.07351  Biso   1.000  O
  O9       1.0000 0.83415  0.90640  0.22495  Biso   1.000  O
  O10      1.0000 0.92649  0.09508  0.47457  Biso   1.000  O
  O11      1.0000 0.16585  0.39080  0.07225  Biso   1.000  O
  O12      1.0000 0.07351  0.54808  0.16859  Biso   1.000  O
  O13      1.0000 0.68145  0.60920  0.77505  Biso   1.000  O
  O14      1.0000 0.62051  0.45192  0.52543  Biso   1.000  O
  O15      1.0000 0.31855  0.09360  0.92775  Biso   1.000  O
  O16      1.0000 0.37949  0.90492  0.83141  Biso   1.000  O
  O17      1.0000 0.92775  0.31855  0.09360  Biso   1.000  O
  O18      1.0000 0.83141  0.37949  0.90492  Biso   1.000  O
  O19      1.0000 0.77505  0.68145  0.60920  Biso   1.000  O
  O20      1.0000 0.52543  0.62051  0.45192  Biso   1.000  O
  O21      1.0000 0.07225  0.16585  0.39080  Biso   1.000  O
  O22      1.0000 0.16859  0.07351  0.54808  Biso   1.000  O
  O23      1.0000 0.22495  0.83415  0.90640  Biso   1.000  O
  O24      1.0000 0.47457  0.92649  0.09508  Biso   1.000  O
  O25      1.0000 0.92775  0.09360  0.31855  Biso   1.000  O
  O26      1.0000 0.83141  0.90492  0.37949  Biso   1.000  O
  O27      1.0000 0.77505  0.60920  0.68145  Biso   1.000  O
  O28      1.0000 0.52543  0.45192  0.62051  Biso   1.000  O
  O29      1.0000 0.07225  0.39080  0.16585  Biso   1.000  O
  O30      1.0000 0.16859  0.54808  0.07351  Biso   1.000  O
  O31      1.0000 0.22495  0.90640  0.83415  Biso   1.000  O
  O32      1.0000 0.47457  0.09508  0.92649  Biso   1.000  O
  O33      1.0000 0.60920  0.68145  0.77505  Biso   1.000  O
  O34      1.0000 0.45192  0.62051  0.52543  Biso   1.000  O
  O35      1.0000 0.09360  0.31855  0.92775  Biso   1.000  O
  O36      1.0000 0.90492  0.37949  0.83141  Biso   1.000  O
  O37      1.0000 0.90640  0.83415  0.22495  Biso   1.000  O
  O38      1.0000 0.09508  0.92649  0.47457  Biso   1.000  O
  O39      1.0000 0.39080  0.16585  0.07225  Biso   1.000  O
  O40      1.0000 0.54808  0.07351  0.16859  Biso   1.000  O
  O41      1.0000 0.83415  0.22495  0.90640  Biso   1.000  O
  O42      1.0000 0.92649  0.47457  0.09508  Biso   1.000  O
  O43      1.0000 0.16585  0.07225  0.39080  Biso   1.000  O
  O44      1.0000 0.07351  0.16859  0.54808  Biso   1.000  O
  O45      1.0000 0.68145  0.77505  0.60920  Biso   1.000  O
  O46      1.0000 0.62051  0.52543  0.45192  Biso   1.000  O
  O47      1.0000 0.31855  0.92775  0.09360  Biso   1.000  O
  O48      1.0000 0.37949  0.83141  0.90492  Biso   1.000  O
  O49      1.0000 0.60720  0.60720  0.60720  Biso   1.000  O
  O50      1.0000 0.00000  0.00000  0.39280  Biso   1.000  O
  O51      1.0000 0.00000  0.39280  0.00000  Biso   1.000  O
  O52      1.0000 0.39280  0.00000  0.00000  Biso   1.000  O
