data_image0
_cell_length_a       14.9971
_cell_length_b       20.3454
_cell_length_c       22.4622
_cell_angle_alpha    103.852
_cell_angle_beta     90
_cell_angle_gamma    90

_symmetry_space_group_name_H-M    P 1
_symmetry_int_tables_number       1

loop_
  _symmetry_equiv_pos_as_xyz
  'x, y, z'

loop_
  _atom_site_label
  _atom_site_occupancy
  _atom_site_fract_x
  _atom_site_fract_y
  _atom_site_fract_z
  _atom_site_thermal_displace_type
  _atom_site_B_iso_or_equiv
  _atom_site_type_symbol
  Cd1      1.0000 0.77104  0.09859  0.20617  Biso   1.000  Cd
  Cd2      1.0000 0.71563  0.98983  0.31362  Biso   1.000  Cd
  Cd3      1.0000 0.27104  0.40141  0.29383  Biso   1.000  Cd
  Cd4      1.0000 0.21563  0.51017  0.18638  Biso   1.000  Cd
  Cd5      1.0000 0.22896  0.90141  0.79383  Biso   1.000  Cd
  Cd6      1.0000 0.28437  0.01017  0.68638  Biso   1.000  Cd
  Cd7      1.0000 0.72896  0.59859  0.70617  Biso   1.000  Cd
  Cd8      1.0000 0.78437  0.48983  0.81362  Biso   1.000  Cd
  H1       1.0000 0.41960  0.20180  0.37570  Biso   1.000  H
  H2       1.0000 0.45250  0.06730  0.47730  Biso   1.000  H
  H3       1.0000 0.80100  0.13380  0.53210  Biso   1.000  H
  H4       1.0000 0.74590  0.27630  0.68570  Biso   1.000  H
  H5       1.0000 0.38370  0.25890  0.68840  Biso   1.000  H
  H6       1.0000 0.33440  0.40150  0.59660  Biso   1.000  H
  H7       1.0000 0.66740  0.47770  0.53650  Biso   1.000  H
  H8       1.0000 0.72770  0.33510  0.38410  Biso   1.000  H
  H9       1.0000 0.81600  0.18700  0.41060  Biso   1.000  H
  H10      1.0000 0.73770  0.23730  0.40230  Biso   1.000  H
  H11      1.0000 0.54990  0.11140  0.68180  Biso   1.000  H
  H12      1.0000 0.55680  0.05110  0.62130  Biso   1.000  H
  H13      1.0000 0.62160  0.45160  0.63980  Biso   1.000  H
  H14      1.0000 0.71090  0.41390  0.61190  Biso   1.000  H
  H15      1.0000 0.39470  0.41150  0.47880  Biso   1.000  H
  H16      1.0000 0.33200  0.34740  0.47540  Biso   1.000  H
  H17      1.0000 0.20310  0.15610  0.39280  Biso   1.000  H
  H18      1.0000 0.28570  0.14770  0.34640  Biso   1.000  H
  H19      1.0000 0.28100  0.21150  0.40410  Biso   1.000  H
  H20      1.0000 0.22790  0.04450  0.40530  Biso   1.000  H
  H21      1.0000 0.32190  0.02170  0.42750  Biso   1.000  H
  H22      1.0000 0.31220  0.03480  0.36030  Biso   1.000  H
  H23      1.0000 0.22570  0.14250  0.49830  Biso   1.000  H
  H24      1.0000 0.30680  0.19510  0.50970  Biso   1.000  H
  H25      1.0000 0.32090  0.12030  0.51920  Biso   1.000  H
  H26      1.0000 0.91730  0.17380  0.68150  Biso   1.000  H
  H27      1.0000 0.00450  0.18860  0.64580  Biso   1.000  H
  H28      1.0000 0.93640  0.13060  0.61320  Biso   1.000  H
  H29      1.0000 0.88030  0.28980  0.70170  Biso   1.000  H
  H30      1.0000 0.87390  0.33080  0.64930  Biso   1.000  H
  H31      1.0000 0.96820  0.30280  0.66570  Biso   1.000  H
  H32      1.0000 0.91450  0.18490  0.52790  Biso   1.000  H
  H33      1.0000 0.99030  0.23610  0.56100  Biso   1.000  H
  H34      1.0000 0.89870  0.26480  0.54080  Biso   1.000  H
  H35      1.0000 0.20980  0.29130  0.56050  Biso   1.000  H
  H36      1.0000 0.20120  0.37120  0.58830  Biso   1.000  H
  H37      1.0000 0.12600  0.32120  0.60240  Biso   1.000  H
  H38      1.0000 0.24180  0.21560  0.62470  Biso   1.000  H
  H39      1.0000 0.15710  0.24430  0.66610  Biso   1.000  H
  H40      1.0000 0.25270  0.24250  0.69730  Biso   1.000  H
  H41      1.0000 0.22320  0.41720  0.70040  Biso   1.000  H
  H42      1.0000 0.24120  0.36640  0.74360  Biso   1.000  H
  H43      1.0000 0.14580  0.36750  0.71190  Biso   1.000  H
  H44      1.0000 0.85620  0.39750  0.52450  Biso   1.000  H
  H45      1.0000 0.81550  0.47120  0.55190  Biso   1.000  H
  H46      1.0000 0.90990  0.46320  0.51770  Biso   1.000  H
  H47      1.0000 0.77200  0.51240  0.41550  Biso   1.000  H
  H48      1.0000 0.86290  0.52860  0.45350  Biso   1.000  H
  H49      1.0000 0.76910  0.53890  0.48850  Biso   1.000  H
  H50      1.0000 0.84050  0.40000  0.37050  Biso   1.000  H
  H51      1.0000 0.87330  0.35510  0.41590  Biso   1.000  H
  H52      1.0000 0.92480  0.42350  0.41400  Biso   1.000  H
  H53      1.0000 0.85980  0.03730  0.37960  Biso   1.000  H
  H54      1.0000 0.78720  0.03590  0.42450  Biso   1.000  H
  H55      1.0000 0.89440  0.92990  0.36760  Biso   1.000  H
  H56      1.0000 0.80210  0.91550  0.39770  Biso   1.000  H
  H57      1.0000 0.85410  0.97590  0.49430  Biso   1.000  H
  H58      1.0000 0.91320  0.91050  0.46610  Biso   1.000  H
  H59      1.0000 0.96010  0.04430  0.46610  Biso   1.000  H
  H60      1.0000 0.01870  0.97940  0.43520  Biso   1.000  H
  H61      1.0000 0.98810  0.10370  0.19590  Biso   1.000  H
  H62      1.0000 0.11180  0.97930  0.27880  Biso   1.000  H
  H63      1.0000 0.01790  0.95340  0.24810  Biso   1.000  H
  H64      1.0000 0.02100  0.01150  0.31030  Biso   1.000  H
  H65      1.0000 0.18740  0.03890  0.23590  Biso   1.000  H
  H66      1.0000 0.14850  0.11260  0.23770  Biso   1.000  H
  H67      1.0000 0.14560  0.05480  0.17530  Biso   1.000  H
  H68      1.0000 0.53890  0.13880  0.24540  Biso   1.000  H
  H69      1.0000 0.47910  0.95080  0.17270  Biso   1.000  H
  H70      1.0000 0.58330  0.96720  0.18150  Biso   1.000  H
  H71      1.0000 0.52960  0.98840  0.12750  Biso   1.000  H
  H72      1.0000 0.39800  0.00630  0.23970  Biso   1.000  H
  H73      1.0000 0.38690  0.08570  0.24490  Biso   1.000  H
  H74      1.0000 0.44790  0.05990  0.29320  Biso   1.000  H
  H75      1.0000 0.91960  0.29820  0.12430  Biso   1.000  H
  H76      1.0000 0.95250  0.43270  0.02270  Biso   1.000  H
  H77      1.0000 0.30100  0.36620  0.96790  Biso   1.000  H
  H78      1.0000 0.24590  0.22370  0.81430  Biso   1.000  H
  H79      1.0000 0.88370  0.24110  0.81160  Biso   1.000  H
  H80      1.0000 0.83440  0.09850  0.90340  Biso   1.000  H
  H81      1.0000 0.16740  0.02230  0.96350  Biso   1.000  H
  H82      1.0000 0.22770  0.16490  0.11590  Biso   1.000  H
  H83      1.0000 0.31600  0.31300  0.08940  Biso   1.000  H
  H84      1.0000 0.23770  0.26270  0.09770  Biso   1.000  H
  H85      1.0000 0.04990  0.38860  0.81820  Biso   1.000  H
  H86      1.0000 0.05680  0.44890  0.87870  Biso   1.000  H
  H87      1.0000 0.12160  0.04840  0.86020  Biso   1.000  H
  H88      1.0000 0.21090  0.08610  0.88810  Biso   1.000  H
  H89      1.0000 0.89470  0.08850  0.02120  Biso   1.000  H
  H90      1.0000 0.83200  0.15260  0.02460  Biso   1.000  H
  H91      1.0000 0.70310  0.34390  0.10720  Biso   1.000  H
  H92      1.0000 0.78570  0.35230  0.15360  Biso   1.000  H
  H93      1.0000 0.78100  0.28850  0.09590  Biso   1.000  H
  H94      1.0000 0.72790  0.45550  0.09470  Biso   1.000  H
  H95      1.0000 0.82190  0.47830  0.07250  Biso   1.000  H
  H96      1.0000 0.81220  0.46520  0.13970  Biso   1.000  H
  H97      1.0000 0.72570  0.35750  0.00170  Biso   1.000  H
  H98      1.0000 0.80680  0.30490  0.99030  Biso   1.000  H
  H99      1.0000 0.82090  0.37970  0.98080  Biso   1.000  H
  H100     1.0000 0.41730  0.32620  0.81850  Biso   1.000  H
  H101     1.0000 0.50450  0.31140  0.85420  Biso   1.000  H
  H102     1.0000 0.43640  0.36940  0.88680  Biso   1.000  H
  H103     1.0000 0.38030  0.21020  0.79830  Biso   1.000  H
  H104     1.0000 0.37390  0.16920  0.85070  Biso   1.000  H
  H105     1.0000 0.46820  0.19720  0.83430  Biso   1.000  H
  H106     1.0000 0.41450  0.31510  0.97210  Biso   1.000  H
  H107     1.0000 0.49030  0.26390  0.93900  Biso   1.000  H
  H108     1.0000 0.39870  0.23520  0.95920  Biso   1.000  H
  H109     1.0000 0.70980  0.20870  0.93950  Biso   1.000  H
  H110     1.0000 0.70120  0.12880  0.91170  Biso   1.000  H
  H111     1.0000 0.62600  0.17880  0.89760  Biso   1.000  H
  H112     1.0000 0.74180  0.28440  0.87530  Biso   1.000  H
  H113     1.0000 0.65710  0.25570  0.83390  Biso   1.000  H
  H114     1.0000 0.75270  0.25750  0.80270  Biso   1.000  H
  H115     1.0000 0.72320  0.08280  0.79960  Biso   1.000  H
  H116     1.0000 0.74120  0.13360  0.75640  Biso   1.000  H
  H117     1.0000 0.64580  0.13250  0.78810  Biso   1.000  H
  H118     1.0000 0.35620  0.10250  0.97550  Biso   1.000  H
  H119     1.0000 0.31550  0.02880  0.94810  Biso   1.000  H
  H120     1.0000 0.40990  0.03680  0.98230  Biso   1.000  H
  H121     1.0000 0.27200  0.98760  0.08450  Biso   1.000  H
  H122     1.0000 0.36290  0.97140  0.04650  Biso   1.000  H
  H123     1.0000 0.26910  0.96110  0.01150  Biso   1.000  H
  H124     1.0000 0.34050  0.10000  0.12950  Biso   1.000  H
  H125     1.0000 0.37330  0.14490  0.08410  Biso   1.000  H
  H126     1.0000 0.42480  0.07650  0.08600  Biso   1.000  H
  H127     1.0000 0.35980  0.46270  0.12040  Biso   1.000  H
  H128     1.0000 0.28720  0.46410  0.07550  Biso   1.000  H
  H129     1.0000 0.39440  0.57010  0.13240  Biso   1.000  H
  H130     1.0000 0.30210  0.58450  0.10230  Biso   1.000  H
  H131     1.0000 0.35410  0.52410  0.00570  Biso   1.000  H
  H132     1.0000 0.41320  0.58950  0.03390  Biso   1.000  H
  H133     1.0000 0.46010  0.45570  0.03390  Biso   1.000  H
  H134     1.0000 0.51870  0.52060  0.06480  Biso   1.000  H
  H135     1.0000 0.48810  0.39630  0.30410  Biso   1.000  H
  H136     1.0000 0.61180  0.52070  0.22120  Biso   1.000  H
  H137     1.0000 0.51790  0.54660  0.25190  Biso   1.000  H
  H138     1.0000 0.52100  0.48850  0.18970  Biso   1.000  H
  H139     1.0000 0.68740  0.46110  0.26410  Biso   1.000  H
  H140     1.0000 0.64850  0.38740  0.26230  Biso   1.000  H
  H141     1.0000 0.64560  0.44520  0.32470  Biso   1.000  H
  H142     1.0000 0.03890  0.36120  0.25460  Biso   1.000  H
  H143     1.0000 0.97910  0.54920  0.32730  Biso   1.000  H
  H144     1.0000 0.08330  0.53280  0.31850  Biso   1.000  H
  H145     1.0000 0.02960  0.51160  0.37250  Biso   1.000  H
  H146     1.0000 0.89800  0.49370  0.26030  Biso   1.000  H
  H147     1.0000 0.88690  0.41430  0.25510  Biso   1.000  H
  H148     1.0000 0.94790  0.44010  0.20680  Biso   1.000  H
  H149     1.0000 0.58040  0.79820  0.62430  Biso   1.000  H
  H150     1.0000 0.54750  0.93270  0.52270  Biso   1.000  H
  H151     1.0000 0.19900  0.86620  0.46790  Biso   1.000  H
  H152     1.0000 0.25410  0.72370  0.31430  Biso   1.000  H
  H153     1.0000 0.61630  0.74110  0.31160  Biso   1.000  H
  H154     1.0000 0.66560  0.59850  0.40340  Biso   1.000  H
  H155     1.0000 0.33260  0.52230  0.46350  Biso   1.000  H
  H156     1.0000 0.27230  0.66490  0.61590  Biso   1.000  H
  H157     1.0000 0.18400  0.81300  0.58940  Biso   1.000  H
  H158     1.0000 0.26230  0.76270  0.59770  Biso   1.000  H
  H159     1.0000 0.45010  0.88860  0.31820  Biso   1.000  H
  H160     1.0000 0.44320  0.94890  0.37870  Biso   1.000  H
  H161     1.0000 0.37840  0.54840  0.36020  Biso   1.000  H
  H162     1.0000 0.28910  0.58610  0.38810  Biso   1.000  H
  H163     1.0000 0.60530  0.58850  0.52120  Biso   1.000  H
  H164     1.0000 0.66800  0.65260  0.52460  Biso   1.000  H
  H165     1.0000 0.79690  0.84390  0.60720  Biso   1.000  H
  H166     1.0000 0.71430  0.85230  0.65360  Biso   1.000  H
  H167     1.0000 0.71900  0.78850  0.59590  Biso   1.000  H
  H168     1.0000 0.77210  0.95550  0.59470  Biso   1.000  H
  H169     1.0000 0.67810  0.97830  0.57250  Biso   1.000  H
  H170     1.0000 0.68780  0.96520  0.63970  Biso   1.000  H
  H171     1.0000 0.77430  0.85750  0.50170  Biso   1.000  H
  H172     1.0000 0.69320  0.80490  0.49030  Biso   1.000  H
  H173     1.0000 0.67910  0.87970  0.48080  Biso   1.000  H
  H174     1.0000 0.08270  0.82620  0.31850  Biso   1.000  H
  H175     1.0000 0.99550  0.81140  0.35420  Biso   1.000  H
  H176     1.0000 0.06360  0.86940  0.38680  Biso   1.000  H
  H177     1.0000 0.11970  0.71020  0.29830  Biso   1.000  H
  H178     1.0000 0.12610  0.66920  0.35070  Biso   1.000  H
  H179     1.0000 0.03180  0.69720  0.33430  Biso   1.000  H
  H180     1.0000 0.08550  0.81510  0.47210  Biso   1.000  H
  H181     1.0000 0.00970  0.76390  0.43900  Biso   1.000  H
  H182     1.0000 0.10130  0.73520  0.45920  Biso   1.000  H
  H183     1.0000 0.79020  0.70870  0.43950  Biso   1.000  H
  H184     1.0000 0.79880  0.62880  0.41170  Biso   1.000  H
  H185     1.0000 0.87400  0.67880  0.39760  Biso   1.000  H
  H186     1.0000 0.75820  0.78440  0.37530  Biso   1.000  H
  H187     1.0000 0.84290  0.75570  0.33390  Biso   1.000  H
  H188     1.0000 0.74730  0.75750  0.30270  Biso   1.000  H
  H189     1.0000 0.77680  0.58280  0.29960  Biso   1.000  H
  H190     1.0000 0.75880  0.63360  0.25640  Biso   1.000  H
  H191     1.0000 0.85420  0.63250  0.28810  Biso   1.000  H
  H192     1.0000 0.14380  0.60250  0.47550  Biso   1.000  H
  H193     1.0000 0.18450  0.52880  0.44810  Biso   1.000  H
  H194     1.0000 0.09010  0.53680  0.48230  Biso   1.000  H
  H195     1.0000 0.22800  0.48760  0.58450  Biso   1.000  H
  H196     1.0000 0.13710  0.47140  0.54650  Biso   1.000  H
  H197     1.0000 0.23090  0.46110  0.51150  Biso   1.000  H
  H198     1.0000 0.15950  0.60000  0.62950  Biso   1.000  H
  H199     1.0000 0.12670  0.64490  0.58410  Biso   1.000  H
  H200     1.0000 0.07520  0.57650  0.58600  Biso   1.000  H
  H201     1.0000 0.14020  0.96270  0.62040  Biso   1.000  H
  H202     1.0000 0.21280  0.96410  0.57550  Biso   1.000  H
  H203     1.0000 0.10560  0.07010  0.63240  Biso   1.000  H
  H204     1.0000 0.19790  0.08450  0.60230  Biso   1.000  H
  H205     1.0000 0.14590  0.02410  0.50570  Biso   1.000  H
  H206     1.0000 0.08680  0.08950  0.53390  Biso   1.000  H
  H207     1.0000 0.03990  0.95570  0.53390  Biso   1.000  H
  H208     1.0000 0.98130  0.02060  0.56480  Biso   1.000  H
  H209     1.0000 0.01190  0.89630  0.80410  Biso   1.000  H
  H210     1.0000 0.88820  0.02070  0.72120  Biso   1.000  H
  H211     1.0000 0.98210  0.04660  0.75190  Biso   1.000  H
  H212     1.0000 0.97900  0.98850  0.68970  Biso   1.000  H
  H213     1.0000 0.81260  0.96110  0.76410  Biso   1.000  H
  H214     1.0000 0.85150  0.88740  0.76230  Biso   1.000  H
  H215     1.0000 0.85440  0.94520  0.82470  Biso   1.000  H
  H216     1.0000 0.46110  0.86120  0.75460  Biso   1.000  H
  H217     1.0000 0.52090  0.04920  0.82730  Biso   1.000  H
  H218     1.0000 0.41670  0.03280  0.81850  Biso   1.000  H
  H219     1.0000 0.47040  0.01160  0.87250  Biso   1.000  H
  H220     1.0000 0.60200  0.99370  0.76030  Biso   1.000  H
  H221     1.0000 0.61310  0.91430  0.75510  Biso   1.000  H
  H222     1.0000 0.55210  0.94010  0.70680  Biso   1.000  H
  H223     1.0000 0.08040  0.70180  0.87570  Biso   1.000  H
  H224     1.0000 0.04750  0.56730  0.97730  Biso   1.000  H
  H225     1.0000 0.69900  0.63380  0.03210  Biso   1.000  H
  H226     1.0000 0.75410  0.77630  0.18570  Biso   1.000  H
  H227     1.0000 0.11630  0.75890  0.18840  Biso   1.000  H
  H228     1.0000 0.16560  0.90150  0.09660  Biso   1.000  H
  H229     1.0000 0.83260  0.97770  0.03650  Biso   1.000  H
  H230     1.0000 0.77230  0.83510  0.88410  Biso   1.000  H
  H231     1.0000 0.68400  0.68700  0.91060  Biso   1.000  H
  H232     1.0000 0.76230  0.73730  0.90230  Biso   1.000  H
  H233     1.0000 0.95010  0.61140  0.18180  Biso   1.000  H
  H234     1.0000 0.94320  0.55110  0.12130  Biso   1.000  H
  H235     1.0000 0.87840  0.95160  0.13980  Biso   1.000  H
  H236     1.0000 0.78910  0.91390  0.11190  Biso   1.000  H
  H237     1.0000 0.10530  0.91150  0.97880  Biso   1.000  H
  H238     1.0000 0.16800  0.84740  0.97540  Biso   1.000  H
  H239     1.0000 0.29690  0.65610  0.89280  Biso   1.000  H
  H240     1.0000 0.21430  0.64770  0.84640  Biso   1.000  H
  H241     1.0000 0.21900  0.71150  0.90410  Biso   1.000  H
  H242     1.0000 0.27210  0.54450  0.90530  Biso   1.000  H
  H243     1.0000 0.17810  0.52170  0.92750  Biso   1.000  H
  H244     1.0000 0.18780  0.53480  0.86030  Biso   1.000  H
  H245     1.0000 0.27430  0.64250  0.99830  Biso   1.000  H
  H246     1.0000 0.19320  0.69510  0.00970  Biso   1.000  H
  H247     1.0000 0.17910  0.62030  0.01920  Biso   1.000  H
  H248     1.0000 0.58270  0.67380  0.18150  Biso   1.000  H
  H249     1.0000 0.49550  0.68860  0.14580  Biso   1.000  H
  H250     1.0000 0.56360  0.63060  0.11320  Biso   1.000  H
  H251     1.0000 0.61970  0.78980  0.20170  Biso   1.000  H
  H252     1.0000 0.62610  0.83080  0.14930  Biso   1.000  H
  H253     1.0000 0.53180  0.80280  0.16570  Biso   1.000  H
  H254     1.0000 0.58550  0.68490  0.02790  Biso   1.000  H
  H255     1.0000 0.50970  0.73610  0.06100  Biso   1.000  H
  H256     1.0000 0.60130  0.76480  0.04080  Biso   1.000  H
  H257     1.0000 0.29020  0.79130  0.06050  Biso   1.000  H
  H258     1.0000 0.29880  0.87120  0.08830  Biso   1.000  H
  H259     1.0000 0.37400  0.82120  0.10240  Biso   1.000  H
  H260     1.0000 0.25820  0.71560  0.12470  Biso   1.000  H
  H261     1.0000 0.34290  0.74430  0.16610  Biso   1.000  H
  H262     1.0000 0.24730  0.74250  0.19730  Biso   1.000  H
  H263     1.0000 0.27680  0.91720  0.20040  Biso   1.000  H
  H264     1.0000 0.25880  0.86640  0.24360  Biso   1.000  H
  H265     1.0000 0.35420  0.86750  0.21190  Biso   1.000  H
  H266     1.0000 0.64380  0.89750  0.02450  Biso   1.000  H
  H267     1.0000 0.68450  0.97120  0.05190  Biso   1.000  H
  H268     1.0000 0.59010  0.96320  0.01770  Biso   1.000  H
  H269     1.0000 0.72800  0.01240  0.91550  Biso   1.000  H
  H270     1.0000 0.63710  0.02860  0.95350  Biso   1.000  H
  H271     1.0000 0.73090  0.03890  0.98850  Biso   1.000  H
  H272     1.0000 0.65950  0.90000  0.87050  Biso   1.000  H
  H273     1.0000 0.62670  0.85510  0.91590  Biso   1.000  H
  H274     1.0000 0.57520  0.92350  0.91400  Biso   1.000  H
  H275     1.0000 0.64020  0.53730  0.87960  Biso   1.000  H
  H276     1.0000 0.71280  0.53590  0.92450  Biso   1.000  H
  H277     1.0000 0.60560  0.42990  0.86760  Biso   1.000  H
  H278     1.0000 0.69790  0.41550  0.89770  Biso   1.000  H
  H279     1.0000 0.64590  0.47590  0.99430  Biso   1.000  H
  H280     1.0000 0.58680  0.41050  0.96610  Biso   1.000  H
  H281     1.0000 0.53990  0.54430  0.96610  Biso   1.000  H
  H282     1.0000 0.48130  0.47940  0.93520  Biso   1.000  H
  H283     1.0000 0.51190  0.60370  0.69590  Biso   1.000  H
  H284     1.0000 0.38820  0.47930  0.77880  Biso   1.000  H
  H285     1.0000 0.48210  0.45340  0.74810  Biso   1.000  H
  H286     1.0000 0.47900  0.51150  0.81030  Biso   1.000  H
  H287     1.0000 0.31260  0.53890  0.73590  Biso   1.000  H
  H288     1.0000 0.35150  0.61260  0.73770  Biso   1.000  H
  H289     1.0000 0.35440  0.55480  0.67530  Biso   1.000  H
  H290     1.0000 0.96110  0.63880  0.74540  Biso   1.000  H
  H291     1.0000 0.02090  0.45080  0.67270  Biso   1.000  H
  H292     1.0000 0.91670  0.46720  0.68150  Biso   1.000  H
  H293     1.0000 0.97040  0.48840  0.62750  Biso   1.000  H
  H294     1.0000 0.10200  0.50630  0.73970  Biso   1.000  H
  H295     1.0000 0.11310  0.58570  0.74490  Biso   1.000  H
  H296     1.0000 0.05210  0.55990  0.79320  Biso   1.000  H
  C1       1.0000 0.60520  0.15560  0.42720  Biso   1.000  C
  C2       1.0000 0.54910  0.19100  0.39670  Biso   1.000  C
  C3       1.0000 0.45750  0.17780  0.39700  Biso   1.000  C
  C4       1.0000 0.41850  0.13290  0.42570  Biso   1.000  C
  C5       1.0000 0.47630  0.09890  0.45660  Biso   1.000  C
  C6       1.0000 0.56780  0.11000  0.45790  Biso   1.000  C
  C7       1.0000 0.61320  0.16330  0.60440  Biso   1.000  C
  C8       1.0000 0.67260  0.13210  0.55910  Biso   1.000  C
  C9       1.0000 0.76000  0.15490  0.56310  Biso   1.000  C
  C10      1.0000 0.78990  0.20730  0.61040  Biso   1.000  C
  C11      1.0000 0.72780  0.23930  0.65360  Biso   1.000  C
  C12      1.0000 0.63980  0.21790  0.65030  Biso   1.000  C
  C13      1.0000 0.52820  0.35150  0.63590  Biso   1.000  C
  C14      1.0000 0.49510  0.30390  0.66590  Biso   1.000  C
  C15      1.0000 0.40420  0.29270  0.66900  Biso   1.000  C
  C16      1.0000 0.34260  0.32940  0.64440  Biso   1.000  C
  C17      1.0000 0.37550  0.37580  0.61390  Biso   1.000  C
  C18      1.0000 0.46700  0.38630  0.60750  Biso   1.000  C
  C19      1.0000 0.54030  0.35390  0.46040  Biso   1.000  C
  C20      1.0000 0.56720  0.41020  0.50810  Biso   1.000  C
  C21      1.0000 0.65120  0.43870  0.50580  Biso   1.000  C
  C22      1.0000 0.71230  0.41150  0.45980  Biso   1.000  C
  C23      1.0000 0.68660  0.35460  0.41560  Biso   1.000  C
  C24      1.0000 0.60350  0.32520  0.41560  Biso   1.000  C
  C25      1.0000 0.75390  0.18900  0.39610  Biso   1.000  C
  C26      1.0000 0.75020  0.15610  0.32910  Biso   1.000  C
  C27      1.0000 0.52190  0.09160  0.64150  Biso   1.000  C
  C28      1.0000 0.42860  0.07040  0.65180  Biso   1.000  C
  C29      1.0000 0.66450  0.41590  0.64370  Biso   1.000  C
  C30      1.0000 0.70790  0.43700  0.70450  Biso   1.000  C
  C31      1.0000 0.38240  0.36480  0.45510  Biso   1.000  C
  C32      1.0000 0.35280  0.36790  0.39230  Biso   1.000  C
  C33      1.0000 0.31780  0.12310  0.42810  Biso   1.000  C
  C34      1.0000 0.26740  0.16320  0.38940  Biso   1.000  C
  C35      1.0000 0.29270  0.04950  0.40310  Biso   1.000  C
  C36      1.0000 0.29040  0.14740  0.49470  Biso   1.000  C
  C37      1.0000 0.88800  0.22850  0.61500  Biso   1.000  C
  C38      1.0000 0.94160  0.17540  0.64130  Biso   1.000  C
  C39      1.0000 0.90400  0.29370  0.66200  Biso   1.000  C
  C40      1.0000 0.92590  0.22860  0.55660  Biso   1.000  C
  C41      1.0000 0.24120  0.31980  0.65280  Biso   1.000  C
  C42      1.0000 0.18990  0.32650  0.59590  Biso   1.000  C
  C43      1.0000 0.22140  0.24930  0.66090  Biso   1.000  C
  C44      1.0000 0.21020  0.37220  0.70670  Biso   1.000  C
  C45      1.0000 0.80560  0.44060  0.46010  Biso   1.000  C
  C46      1.0000 0.85050  0.44340  0.51830  Biso   1.000  C
  C47      1.0000 0.80210  0.51100  0.45390  Biso   1.000  C
  C48      1.0000 0.86640  0.40140  0.41080  Biso   1.000  C
  C49      1.0000 0.85110  0.94870  0.40060  Biso   1.000  C
  C50      1.0000 0.89680  0.95610  0.46130  Biso   1.000  C
  C51      1.0000 0.97650  0.99810  0.46890  Biso   1.000  C
  C52      1.0000 0.98110  0.07110  0.21960  Biso   1.000  C
  C53      1.0000 0.05100  0.99290  0.27110  Biso   1.000  C
  C54      1.0000 0.14090  0.06400  0.22000  Biso   1.000  C
  C55      1.0000 0.55520  0.09980  0.21470  Biso   1.000  C
  C56      1.0000 0.52600  0.98340  0.16980  Biso   1.000  C
  C57      1.0000 0.42820  0.05030  0.25030  Biso   1.000  C
  C58      1.0000 0.10520  0.34440  0.07280  Biso   1.000  C
  C59      1.0000 0.04910  0.30900  0.10330  Biso   1.000  C
  C60      1.0000 0.95750  0.32220  0.10300  Biso   1.000  C
  C61      1.0000 0.91850  0.36710  0.07430  Biso   1.000  C
  C62      1.0000 0.97630  0.40110  0.04340  Biso   1.000  C
  C63      1.0000 0.06780  0.39000  0.04210  Biso   1.000  C
  C64      1.0000 0.11320  0.33670  0.89560  Biso   1.000  C
  C65      1.0000 0.17260  0.36790  0.94090  Biso   1.000  C
  C66      1.0000 0.26000  0.34510  0.93690  Biso   1.000  C
  C67      1.0000 0.28990  0.29270  0.88960  Biso   1.000  C
  C68      1.0000 0.22780  0.26070  0.84640  Biso   1.000  C
  C69      1.0000 0.13980  0.28210  0.84970  Biso   1.000  C
  C70      1.0000 0.02820  0.14850  0.86410  Biso   1.000  C
  C71      1.0000 0.99510  0.19610  0.83410  Biso   1.000  C
  C72      1.0000 0.90420  0.20730  0.83100  Biso   1.000  C
  C73      1.0000 0.84260  0.17060  0.85560  Biso   1.000  C
  C74      1.0000 0.87550  0.12420  0.88610  Biso   1.000  C
  C75      1.0000 0.96700  0.11370  0.89250  Biso   1.000  C
  C76      1.0000 0.04030  0.14610  0.03960  Biso   1.000  C
  C77      1.0000 0.06720  0.08980  0.99190  Biso   1.000  C
  C78      1.0000 0.15120  0.06130  0.99420  Biso   1.000  C
  C79      1.0000 0.21230  0.08850  0.04020  Biso   1.000  C
  C80      1.0000 0.18660  0.14540  0.08440  Biso   1.000  C
  C81      1.0000 0.10350  0.17480  0.08440  Biso   1.000  C
  C82      1.0000 0.25390  0.31100  0.10390  Biso   1.000  C
  C83      1.0000 0.25020  0.34390  0.17090  Biso   1.000  C
  C84      1.0000 0.02190  0.40840  0.85850  Biso   1.000  C
  C85      1.0000 0.92860  0.42960  0.84820  Biso   1.000  C
  C86      1.0000 0.16450  0.08410  0.85630  Biso   1.000  C
  C87      1.0000 0.20790  0.06300  0.79550  Biso   1.000  C
  C88      1.0000 0.88240  0.13520  0.04490  Biso   1.000  C
  C89      1.0000 0.85280  0.13210  0.10770  Biso   1.000  C
  C90      1.0000 0.81780  0.37690  0.07190  Biso   1.000  C
  C91      1.0000 0.76740  0.33680  0.11060  Biso   1.000  C
  C92      1.0000 0.79270  0.45050  0.09690  Biso   1.000  C
  C93      1.0000 0.79040  0.35260  0.00530  Biso   1.000  C
  C94      1.0000 0.38800  0.27150  0.88500  Biso   1.000  C
  C95      1.0000 0.44160  0.32460  0.85870  Biso   1.000  C
  C96      1.0000 0.40400  0.20630  0.83800  Biso   1.000  C
  C97      1.0000 0.42590  0.27140  0.94340  Biso   1.000  C
  C98      1.0000 0.74120  0.18020  0.84720  Biso   1.000  C
  C99      1.0000 0.68990  0.17350  0.90410  Biso   1.000  C
  C100     1.0000 0.72140  0.25070  0.83910  Biso   1.000  C
  C101     1.0000 0.71020  0.12780  0.79330  Biso   1.000  C
  C102     1.0000 0.30560  0.05940  0.03990  Biso   1.000  C
  C103     1.0000 0.35050  0.05660  0.98170  Biso   1.000  C
  C104     1.0000 0.30210  0.98900  0.04610  Biso   1.000  C
  C105     1.0000 0.36640  0.09860  0.08920  Biso   1.000  C
  C106     1.0000 0.35110  0.55130  0.09940  Biso   1.000  C
  C107     1.0000 0.39680  0.54390  0.03870  Biso   1.000  C
  C108     1.0000 0.47650  0.50190  0.03110  Biso   1.000  C
  C109     1.0000 0.48110  0.42890  0.28040  Biso   1.000  C
  C110     1.0000 0.55100  0.50710  0.22890  Biso   1.000  C
  C111     1.0000 0.64090  0.43600  0.28000  Biso   1.000  C
  C112     1.0000 0.05520  0.40020  0.28530  Biso   1.000  C
  C113     1.0000 0.02600  0.51660  0.33020  Biso   1.000  C
  C114     1.0000 0.92820  0.44970  0.24970  Biso   1.000  C
  C115     1.0000 0.39480  0.84440  0.57280  Biso   1.000  C
  C116     1.0000 0.45090  0.80900  0.60330  Biso   1.000  C
  C117     1.0000 0.54250  0.82220  0.60300  Biso   1.000  C
  C118     1.0000 0.58150  0.86710  0.57430  Biso   1.000  C
  C119     1.0000 0.52370  0.90110  0.54340  Biso   1.000  C
  C120     1.0000 0.43220  0.89000  0.54210  Biso   1.000  C
  C121     1.0000 0.38680  0.83670  0.39560  Biso   1.000  C
  C122     1.0000 0.32740  0.86790  0.44090  Biso   1.000  C
  C123     1.0000 0.24000  0.84510  0.43690  Biso   1.000  C
  C124     1.0000 0.21010  0.79270  0.38960  Biso   1.000  C
  C125     1.0000 0.27220  0.76070  0.34640  Biso   1.000  C
  C126     1.0000 0.36020  0.78210  0.34970  Biso   1.000  C
  C127     1.0000 0.47180  0.64850  0.36410  Biso   1.000  C
  C128     1.0000 0.50490  0.69610  0.33410  Biso   1.000  C
  C129     1.0000 0.59580  0.70730  0.33100  Biso   1.000  C
  C130     1.0000 0.65740  0.67060  0.35560  Biso   1.000  C
  C131     1.0000 0.62450  0.62420  0.38610  Biso   1.000  C
  C132     1.0000 0.53300  0.61370  0.39250  Biso   1.000  C
  C133     1.0000 0.45970  0.64610  0.53960  Biso   1.000  C
  C134     1.0000 0.43280  0.58980  0.49190  Biso   1.000  C
  C135     1.0000 0.34880  0.56130  0.49420  Biso   1.000  C
  C136     1.0000 0.28770  0.58850  0.54020  Biso   1.000  C
  C137     1.0000 0.31340  0.64540  0.58440  Biso   1.000  C
  C138     1.0000 0.39650  0.67480  0.58440  Biso   1.000  C
  C139     1.0000 0.24610  0.81100  0.60390  Biso   1.000  C
  C140     1.0000 0.24980  0.84390  0.67090  Biso   1.000  C
  C141     1.0000 0.47810  0.90840  0.35850  Biso   1.000  C
  C142     1.0000 0.57140  0.92960  0.34820  Biso   1.000  C
  C143     1.0000 0.33550  0.58410  0.35630  Biso   1.000  C
  C144     1.0000 0.29210  0.56300  0.29550  Biso   1.000  C
  C145     1.0000 0.61760  0.63520  0.54490  Biso   1.000  C
  C146     1.0000 0.64720  0.63210  0.60770  Biso   1.000  C
  C147     1.0000 0.68220  0.87690  0.57190  Biso   1.000  C
  C148     1.0000 0.73260  0.83680  0.61060  Biso   1.000  C
  C149     1.0000 0.70730  0.95050  0.59690  Biso   1.000  C
  C150     1.0000 0.70960  0.85260  0.50530  Biso   1.000  C
  C151     1.0000 0.11200  0.77150  0.38500  Biso   1.000  C
  C152     1.0000 0.05840  0.82460  0.35870  Biso   1.000  C
  C153     1.0000 0.09600  0.70630  0.33800  Biso   1.000  C
  C154     1.0000 0.07410  0.77140  0.44340  Biso   1.000  C
  C155     1.0000 0.75880  0.68020  0.34720  Biso   1.000  C
  C156     1.0000 0.81010  0.67350  0.40410  Biso   1.000  C
  C157     1.0000 0.77860  0.75070  0.33910  Biso   1.000  C
  C158     1.0000 0.78980  0.62780  0.29330  Biso   1.000  C
  C159     1.0000 0.19440  0.55940  0.53990  Biso   1.000  C
  C160     1.0000 0.14950  0.55660  0.48170  Biso   1.000  C
  C161     1.0000 0.19790  0.48900  0.54610  Biso   1.000  C
  C162     1.0000 0.13360  0.59860  0.58920  Biso   1.000  C
  C163     1.0000 0.14890  0.05130  0.59940  Biso   1.000  C
  C164     1.0000 0.10320  0.04390  0.53870  Biso   1.000  C
  C165     1.0000 0.02350  0.00190  0.53110  Biso   1.000  C
  C166     1.0000 0.01890  0.92890  0.78040  Biso   1.000  C
  C167     1.0000 0.94900  0.00710  0.72890  Biso   1.000  C
  C168     1.0000 0.85910  0.93600  0.78000  Biso   1.000  C
  C169     1.0000 0.44480  0.90020  0.78530  Biso   1.000  C
  C170     1.0000 0.47400  0.01660  0.83020  Biso   1.000  C
  C171     1.0000 0.57180  0.94970  0.74970  Biso   1.000  C
  C172     1.0000 0.89480  0.65560  0.92720  Biso   1.000  C
  C173     1.0000 0.95090  0.69100  0.89670  Biso   1.000  C
  C174     1.0000 0.04250  0.67780  0.89700  Biso   1.000  C
  C175     1.0000 0.08150  0.63290  0.92570  Biso   1.000  C
  C176     1.0000 0.02370  0.59890  0.95660  Biso   1.000  C
  C177     1.0000 0.93220  0.61000  0.95790  Biso   1.000  C
  C178     1.0000 0.88680  0.66330  0.10440  Biso   1.000  C
  C179     1.0000 0.82740  0.63210  0.05910  Biso   1.000  C
  C180     1.0000 0.74000  0.65490  0.06310  Biso   1.000  C
  C181     1.0000 0.71010  0.70730  0.11040  Biso   1.000  C
  C182     1.0000 0.77220  0.73930  0.15360  Biso   1.000  C
  C183     1.0000 0.86020  0.71790  0.15030  Biso   1.000  C
  C184     1.0000 0.97180  0.85150  0.13590  Biso   1.000  C
  C185     1.0000 0.00490  0.80390  0.16590  Biso   1.000  C
  C186     1.0000 0.09580  0.79270  0.16900  Biso   1.000  C
  C187     1.0000 0.15740  0.82940  0.14440  Biso   1.000  C
  C188     1.0000 0.12450  0.87580  0.11390  Biso   1.000  C
  C189     1.0000 0.03300  0.88630  0.10750  Biso   1.000  C
  C190     1.0000 0.95970  0.85390  0.96040  Biso   1.000  C
  C191     1.0000 0.93280  0.91020  0.00810  Biso   1.000  C
  C192     1.0000 0.84880  0.93870  0.00580  Biso   1.000  C
  C193     1.0000 0.78770  0.91150  0.95980  Biso   1.000  C
  C194     1.0000 0.81340  0.85460  0.91560  Biso   1.000  C
  C195     1.0000 0.89650  0.82520  0.91560  Biso   1.000  C
  C196     1.0000 0.74610  0.68900  0.89610  Biso   1.000  C
  C197     1.0000 0.74980  0.65610  0.82910  Biso   1.000  C
  C198     1.0000 0.97810  0.59160  0.14150  Biso   1.000  C
  C199     1.0000 0.07140  0.57040  0.15180  Biso   1.000  C
  C200     1.0000 0.83550  0.91590  0.14370  Biso   1.000  C
  C201     1.0000 0.79210  0.93700  0.20450  Biso   1.000  C
  C202     1.0000 0.11760  0.86480  0.95510  Biso   1.000  C
  C203     1.0000 0.14720  0.86790  0.89230  Biso   1.000  C
  C204     1.0000 0.18220  0.62310  0.92810  Biso   1.000  C
  C205     1.0000 0.23260  0.66320  0.88940  Biso   1.000  C
  C206     1.0000 0.20730  0.54950  0.90310  Biso   1.000  C
  C207     1.0000 0.20960  0.64740  0.99470  Biso   1.000  C
  C208     1.0000 0.61200  0.72850  0.11500  Biso   1.000  C
  C209     1.0000 0.55840  0.67540  0.14130  Biso   1.000  C
  C210     1.0000 0.59600  0.79370  0.16200  Biso   1.000  C
  C211     1.0000 0.57410  0.72860  0.05660  Biso   1.000  C
  C212     1.0000 0.25880  0.81980  0.15280  Biso   1.000  C
  C213     1.0000 0.31010  0.82650  0.09590  Biso   1.000  C
  C214     1.0000 0.27860  0.74930  0.16090  Biso   1.000  C
  C215     1.0000 0.28980  0.87220  0.20670  Biso   1.000  C
  C216     1.0000 0.69440  0.94060  0.96010  Biso   1.000  C
  C217     1.0000 0.64950  0.94340  0.01830  Biso   1.000  C
  C218     1.0000 0.69790  0.01100  0.95390  Biso   1.000  C
  C219     1.0000 0.63360  0.90140  0.91080  Biso   1.000  C
  C220     1.0000 0.64890  0.44870  0.90060  Biso   1.000  C
  C221     1.0000 0.60320  0.45610  0.96130  Biso   1.000  C
  C222     1.0000 0.52350  0.49810  0.96890  Biso   1.000  C
  C223     1.0000 0.51890  0.57110  0.71960  Biso   1.000  C
  C224     1.0000 0.44900  0.49290  0.77110  Biso   1.000  C
  C225     1.0000 0.35910  0.56400  0.72000  Biso   1.000  C
  C226     1.0000 0.94480  0.59980  0.71470  Biso   1.000  C
  C227     1.0000 0.97400  0.48340  0.66980  Biso   1.000  C
  C228     1.0000 0.07180  0.55030  0.75030  Biso   1.000  C
  S1       1.0000 0.63689  0.06458  0.49846  Biso   1.000  S
  S2       1.0000 0.56548  0.26091  0.70793  Biso   1.000  S
  S3       1.0000 0.49626  0.45035  0.56914  Biso   1.000  S
  S4       1.0000 0.58139  0.25207  0.35652  Biso   1.000  S
  S5       1.0000 0.13689  0.43542  0.00154  Biso   1.000  S
  S6       1.0000 0.06548  0.23909  0.79207  Biso   1.000  S
  S7       1.0000 0.99626  0.04965  0.93086  Biso   1.000  S
  S8       1.0000 0.08139  0.24793  0.14348  Biso   1.000  S
  S9       1.0000 0.36311  0.93542  0.50154  Biso   1.000  S
  S10      1.0000 0.43452  0.73909  0.29207  Biso   1.000  S
  S11      1.0000 0.50374  0.54965  0.43086  Biso   1.000  S
  S12      1.0000 0.41861  0.74793  0.64348  Biso   1.000  S
  S13      1.0000 0.86311  0.56458  0.99846  Biso   1.000  S
  S14      1.0000 0.93452  0.76091  0.20793  Biso   1.000  S
  S15      1.0000 0.00374  0.95035  0.06914  Biso   1.000  S
  S16      1.0000 0.91861  0.75207  0.85652  Biso   1.000  S
  N1       1.0000 0.81420  0.01150  0.38940  Biso   1.000  N
  N2       1.0000 0.05420  0.04290  0.23660  Biso   1.000  N
  N3       1.0000 0.50510  0.04870  0.21060  Biso   1.000  N
  N4       1.0000 0.31420  0.48850  0.11060  Biso   1.000  N
  N5       1.0000 0.55420  0.45710  0.26340  Biso   1.000  N
  N6       1.0000 0.00510  0.45130  0.28940  Biso   1.000  N
  N7       1.0000 0.18580  0.98850  0.61060  Biso   1.000  N
  N8       1.0000 0.94580  0.95710  0.76340  Biso   1.000  N
  N9       1.0000 0.49490  0.95130  0.78940  Biso   1.000  N
  N10      1.0000 0.68580  0.51150  0.88940  Biso   1.000  N
  N11      1.0000 0.44580  0.54290  0.73660  Biso   1.000  N
  N12      1.0000 0.99490  0.54870  0.71060  Biso   1.000  N
  O1       1.0000 0.69690  0.15900  0.43250  Biso   1.000  O
  O2       1.0000 0.70980  0.10230  0.31000  Biso   1.000  O
  O3       1.0000 0.78940  0.18540  0.29370  Biso   1.000  O
  O4       1.0000 0.52580  0.13980  0.60490  Biso   1.000  O
  O5       1.0000 0.36400  0.08650  0.62720  Biso   1.000  O
  O6       1.0000 0.42550  0.03100  0.68760  Biso   1.000  O
  O7       1.0000 0.61930  0.35370  0.63060  Biso   1.000  O
  O8       1.0000 0.69610  0.40700  0.74530  Biso   1.000  O
  O9       1.0000 0.76060  0.48640  0.71060  Biso   1.000  O
  O10      1.0000 0.45900  0.32430  0.45910  Biso   1.000  O
  O11      1.0000 0.37500  0.32750  0.34670  Biso   1.000  O
  O12      1.0000 0.30020  0.41570  0.39210  Biso   1.000  O
  O13      1.0000 0.90640  0.05720  0.23290  Biso   1.000  O
  O14      1.0000 0.62360  0.10630  0.18380  Biso   1.000  O
  O15      1.0000 0.19690  0.34100  0.06750  Biso   1.000  O
  O16      1.0000 0.20980  0.39770  0.19000  Biso   1.000  O
  O17      1.0000 0.28940  0.31460  0.20630  Biso   1.000  O
  O18      1.0000 0.02580  0.36020  0.89510  Biso   1.000  O
  O19      1.0000 0.86400  0.41350  0.87280  Biso   1.000  O
  O20      1.0000 0.92550  0.46900  0.81240  Biso   1.000  O
  O21      1.0000 0.11930  0.14630  0.86940  Biso   1.000  O
  O22      1.0000 0.19610  0.09300  0.75470  Biso   1.000  O
  O23      1.0000 0.26060  0.01360  0.78940  Biso   1.000  O
  O24      1.0000 0.95900  0.17570  0.04090  Biso   1.000  O
  O25      1.0000 0.87500  0.17250  0.15330  Biso   1.000  O
  O26      1.0000 0.80020  0.08430  0.10790  Biso   1.000  O
  O27      1.0000 0.40640  0.44280  0.26710  Biso   1.000  O
  O28      1.0000 0.12360  0.39370  0.31620  Biso   1.000  O
  O29      1.0000 0.30310  0.84100  0.56750  Biso   1.000  O
  O30      1.0000 0.29020  0.89770  0.69000  Biso   1.000  O
  O31      1.0000 0.21060  0.81460  0.70630  Biso   1.000  O
  O32      1.0000 0.47420  0.86020  0.39510  Biso   1.000  O
  O33      1.0000 0.63600  0.91350  0.37280  Biso   1.000  O
  O34      1.0000 0.57450  0.96900  0.31240  Biso   1.000  O
  O35      1.0000 0.38070  0.64630  0.36940  Biso   1.000  O
  O36      1.0000 0.30390  0.59300  0.25470  Biso   1.000  O
  O37      1.0000 0.23940  0.51360  0.28940  Biso   1.000  O
  O38      1.0000 0.54100  0.67570  0.54090  Biso   1.000  O
  O39      1.0000 0.62500  0.67250  0.65330  Biso   1.000  O
  O40      1.0000 0.69980  0.58430  0.60790  Biso   1.000  O
  O41      1.0000 0.09360  0.94280  0.76710  Biso   1.000  O
  O42      1.0000 0.37640  0.89370  0.81620  Biso   1.000  O
  O43      1.0000 0.80310  0.65900  0.93250  Biso   1.000  O
  O44      1.0000 0.79020  0.60230  0.81000  Biso   1.000  O
  O45      1.0000 0.71060  0.68540  0.79370  Biso   1.000  O
  O46      1.0000 0.97420  0.63980  0.10490  Biso   1.000  O
  O47      1.0000 0.13600  0.58650  0.12720  Biso   1.000  O
  O48      1.0000 0.07450  0.53100  0.18760  Biso   1.000  O
  O49      1.0000 0.88070  0.85370  0.13060  Biso   1.000  O
  O50      1.0000 0.80390  0.90700  0.24530  Biso   1.000  O
  O51      1.0000 0.73940  0.98640  0.21060  Biso   1.000  O
  O52      1.0000 0.04100  0.82430  0.95910  Biso   1.000  O
  O53      1.0000 0.12500  0.82750  0.84670  Biso   1.000  O
  O54      1.0000 0.19980  0.91570  0.89210  Biso   1.000  O
  O55      1.0000 0.59360  0.55720  0.73290  Biso   1.000  O
  O56      1.0000 0.87640  0.60630  0.68380  Biso   1.000  O
