data_image0
_cell_length_a       12.7259
_cell_length_b       18.7486
_cell_length_c       36.7932
_cell_angle_alpha    90
_cell_angle_beta     90
_cell_angle_gamma    101.452

_symmetry_space_group_name_H-M    P 1
_symmetry_int_tables_number       1

loop_
  _symmetry_equiv_pos_as_xyz
  'x, y, z'

loop_
  _atom_site_label
  _atom_site_occupancy
  _atom_site_fract_x
  _atom_site_fract_y
  _atom_site_fract_z
  _atom_site_thermal_displace_type
  _atom_site_B_iso_or_equiv
  _atom_site_type_symbol
  Na1      1.0000 0.03406  0.01926  0.84611  Biso   1.000  Na
  Na2      1.0000 0.46594  0.48074  0.34611  Biso   1.000  Na
  Na3      1.0000 0.96594  0.98074  0.15389  Biso   1.000  Na
  Na4      1.0000 0.53406  0.51926  0.65389  Biso   1.000  Na
  Co1      1.0000 0.58053  0.82891  0.71069  Biso   1.000  Co
  Co2      1.0000 0.91947  0.67109  0.21069  Biso   1.000  Co
  Co3      1.0000 0.41947  0.17109  0.28931  Biso   1.000  Co
  Co4      1.0000 0.08053  0.32891  0.78931  Biso   1.000  Co
  Co5      1.0000 0.00000  0.00000  0.00000  Biso   1.000  Co
  Co6      1.0000 0.50000  0.50000  0.50000  Biso   1.000  Co
  H1       1.0000 0.98790  0.06230  0.94000  Biso   1.000  H
  H2       1.0000 0.99320  0.13160  0.97110  Biso   1.000  H
  H3       1.0000 0.97800  0.70210  0.79660  Biso   1.000  H
  H4       1.0000 0.29390  0.78370  0.80760  Biso   1.000  H
  H5       1.0000 0.30960  0.02050  0.89890  Biso   1.000  H
  H6       1.0000 0.30170  0.17630  0.82400  Biso   1.000  H
  H7       1.0000 0.27180  0.01900  0.69540  Biso   1.000  H
  H8       1.0000 0.95370  0.94540  0.68560  Biso   1.000  H
  H9       1.0000 0.76540  0.04480  0.80420  Biso   1.000  H
  H10      1.0000 0.77370  0.88520  0.87700  Biso   1.000  H
  H11      1.0000 0.01060  0.84150  0.90810  Biso   1.000  H
  H12      1.0000 0.13710  0.87280  0.91060  Biso   1.000  H
  H13      1.0000 0.45580  0.99010  0.77140  Biso   1.000  H
  H14      1.0000 0.43350  0.92210  0.79860  Biso   1.000  H
  H15      1.0000 0.12380  0.17930  0.77300  Biso   1.000  H
  H16      1.0000 0.99880  0.15520  0.76350  Biso   1.000  H
  H17      1.0000 0.93150  0.78580  0.73680  Biso   1.000  H
  H18      1.0000 0.85040  0.76640  0.77020  Biso   1.000  H
  H19      1.0000 0.31680  0.67670  0.78320  Biso   1.000  H
  H20      1.0000 0.29340  0.65350  0.74170  Biso   1.000  H
  H21      1.0000 0.31360  0.73760  0.75300  Biso   1.000  H
  H22      1.0000 0.14590  0.59190  0.80080  Biso   1.000  H
  H23      1.0000 0.03660  0.59880  0.78090  Biso   1.000  H
  H24      1.0000 0.12880  0.57050  0.75890  Biso   1.000  H
  H25      1.0000 0.12310  0.66430  0.71300  Biso   1.000  H
  H26      1.0000 0.03220  0.69220  0.73590  Biso   1.000  H
  H27      1.0000 0.13930  0.74810  0.72460  Biso   1.000  H
  H28      1.0000 0.16190  0.14720  0.91260  Biso   1.000  H
  H29      1.0000 0.22760  0.09410  0.93260  Biso   1.000  H
  H30      1.0000 0.24220  0.17720  0.94510  Biso   1.000  H
  H31      1.0000 0.46440  0.12260  0.90890  Biso   1.000  H
  H32      1.0000 0.47990  0.20700  0.91930  Biso   1.000  H
  H33      1.0000 0.41060  0.14660  0.94500  Biso   1.000  H
  H34      1.0000 0.40740  0.26270  0.88220  Biso   1.000  H
  H35      1.0000 0.29450  0.24130  0.86180  Biso   1.000  H
  H36      1.0000 0.29890  0.26710  0.90330  Biso   1.000  H
  H37      1.0000 0.25360  0.01360  0.62720  Biso   1.000  H
  H38      1.0000 0.29520  0.95520  0.65230  Biso   1.000  H
  H39      1.0000 0.25190  0.93320  0.61220  Biso   1.000  H
  H40      1.0000 0.04140  0.83980  0.66790  Biso   1.000  H
  H41      1.0000 0.12230  0.82860  0.63600  Biso   1.000  H
  H42      1.0000 0.16680  0.84870  0.67620  Biso   1.000  H
  H43      1.0000 0.05870  0.00020  0.61480  Biso   1.000  H
  H44      1.0000 0.05940  0.92120  0.59850  Biso   1.000  H
  H45      1.0000 0.97680  0.93070  0.63000  Biso   1.000  H
  H46      1.0000 0.54820  0.93630  0.86680  Biso   1.000  H
  H47      1.0000 0.62170  0.91390  0.89850  Biso   1.000  H
  H48      1.0000 0.55920  0.97910  0.90470  Biso   1.000  H
  H49      1.0000 0.60520  0.05500  0.83510  Biso   1.000  H
  H50      1.0000 0.61540  0.09500  0.87370  Biso   1.000  H
  H51      1.0000 0.71490  0.10800  0.84620  Biso   1.000  H
  H52      1.0000 0.73290  0.06140  0.92120  Biso   1.000  H
  H53      1.0000 0.79420  0.99570  0.91480  Biso   1.000  H
  H54      1.0000 0.83210  0.07110  0.89370  Biso   1.000  H
  H55      1.0000 0.47500  0.20170  0.04870  Biso   1.000  H
  H56      1.0000 0.90240  0.40480  0.09180  Biso   1.000  H
  H57      1.0000 0.40500  0.02970  0.00560  Biso   1.000  H
  H58      1.0000 0.22960  0.97590  0.99430  Biso   1.000  H
  H59      1.0000 0.12570  0.14650  0.02940  Biso   1.000  H
  H60      1.0000 0.29470  0.20510  0.04310  Biso   1.000  H
  H61      1.0000 0.76550  0.15140  0.00530  Biso   1.000  H
  H62      1.0000 0.92430  0.22820  0.02110  Biso   1.000  H
  H63      1.0000 0.92490  0.31950  0.06350  Biso   1.000  H
  H64      1.0000 0.60240  0.26120  0.07170  Biso   1.000  H
  H65      1.0000 0.69960  0.47690  0.13380  Biso   1.000  H
  H66      1.0000 0.73380  0.57800  0.17050  Biso   1.000  H
  H67      1.0000 0.04250  0.58190  0.16790  Biso   1.000  H
  H68      1.0000 0.01820  0.48550  0.12790  Biso   1.000  H
  H69      1.0000 0.51210  0.43770  0.44000  Biso   1.000  H
  H70      1.0000 0.50680  0.36840  0.47110  Biso   1.000  H
  H71      1.0000 0.52200  0.79790  0.29660  Biso   1.000  H
  H72      1.0000 0.20610  0.71630  0.30760  Biso   1.000  H
  H73      1.0000 0.19040  0.47950  0.39890  Biso   1.000  H
  H74      1.0000 0.19830  0.32370  0.32400  Biso   1.000  H
  H75      1.0000 0.22820  0.48100  0.19540  Biso   1.000  H
  H76      1.0000 0.54630  0.55460  0.18560  Biso   1.000  H
  H77      1.0000 0.73460  0.45520  0.30420  Biso   1.000  H
  H78      1.0000 0.72630  0.61480  0.37700  Biso   1.000  H
  H79      1.0000 0.48940  0.65850  0.40810  Biso   1.000  H
  H80      1.0000 0.36290  0.62720  0.41060  Biso   1.000  H
  H81      1.0000 0.04420  0.50990  0.27140  Biso   1.000  H
  H82      1.0000 0.06650  0.57790  0.29860  Biso   1.000  H
  H83      1.0000 0.37620  0.32070  0.27300  Biso   1.000  H
  H84      1.0000 0.50120  0.34480  0.26350  Biso   1.000  H
  H85      1.0000 0.56850  0.71420  0.23680  Biso   1.000  H
  H86      1.0000 0.64960  0.73360  0.27020  Biso   1.000  H
  H87      1.0000 0.18320  0.82330  0.28320  Biso   1.000  H
  H88      1.0000 0.20660  0.84650  0.24170  Biso   1.000  H
  H89      1.0000 0.18640  0.76240  0.25300  Biso   1.000  H
  H90      1.0000 0.35410  0.90810  0.30080  Biso   1.000  H
  H91      1.0000 0.46340  0.90120  0.28090  Biso   1.000  H
  H92      1.0000 0.37120  0.92950  0.25890  Biso   1.000  H
  H93      1.0000 0.37690  0.83570  0.21300  Biso   1.000  H
  H94      1.0000 0.46780  0.80780  0.23590  Biso   1.000  H
  H95      1.0000 0.36070  0.75190  0.22460  Biso   1.000  H
  H96      1.0000 0.33810  0.35280  0.41260  Biso   1.000  H
  H97      1.0000 0.27240  0.40590  0.43260  Biso   1.000  H
  H98      1.0000 0.25780  0.32280  0.44510  Biso   1.000  H
  H99      1.0000 0.03560  0.37740  0.40890  Biso   1.000  H
  H100     1.0000 0.02010  0.29300  0.41930  Biso   1.000  H
  H101     1.0000 0.08940  0.35340  0.44500  Biso   1.000  H
  H102     1.0000 0.09260  0.23730  0.38220  Biso   1.000  H
  H103     1.0000 0.20550  0.25870  0.36180  Biso   1.000  H
  H104     1.0000 0.20110  0.23290  0.40330  Biso   1.000  H
  H105     1.0000 0.24640  0.48640  0.12720  Biso   1.000  H
  H106     1.0000 0.20480  0.54480  0.15230  Biso   1.000  H
  H107     1.0000 0.24810  0.56680  0.11220  Biso   1.000  H
  H108     1.0000 0.45860  0.66020  0.16790  Biso   1.000  H
  H109     1.0000 0.37770  0.67140  0.13600  Biso   1.000  H
  H110     1.0000 0.33320  0.65130  0.17620  Biso   1.000  H
  H111     1.0000 0.44130  0.49980  0.11480  Biso   1.000  H
  H112     1.0000 0.44060  0.57880  0.09850  Biso   1.000  H
  H113     1.0000 0.52320  0.56930  0.13000  Biso   1.000  H
  H114     1.0000 0.95180  0.56370  0.36680  Biso   1.000  H
  H115     1.0000 0.87830  0.58610  0.39850  Biso   1.000  H
  H116     1.0000 0.94080  0.52090  0.40470  Biso   1.000  H
  H117     1.0000 0.89480  0.44500  0.33510  Biso   1.000  H
  H118     1.0000 0.88460  0.40500  0.37370  Biso   1.000  H
  H119     1.0000 0.78510  0.39200  0.34620  Biso   1.000  H
  H120     1.0000 0.76710  0.43860  0.42120  Biso   1.000  H
  H121     1.0000 0.70580  0.50430  0.41480  Biso   1.000  H
  H122     1.0000 0.66790  0.42890  0.39370  Biso   1.000  H
  H123     1.0000 0.02500  0.29830  0.54870  Biso   1.000  H
  H124     1.0000 0.59760  0.09520  0.59180  Biso   1.000  H
  H125     1.0000 0.09500  0.47030  0.50560  Biso   1.000  H
  H126     1.0000 0.27040  0.52410  0.49430  Biso   1.000  H
  H127     1.0000 0.37430  0.35350  0.52940  Biso   1.000  H
  H128     1.0000 0.20530  0.29490  0.54310  Biso   1.000  H
  H129     1.0000 0.73450  0.34860  0.50530  Biso   1.000  H
  H130     1.0000 0.57570  0.27180  0.52110  Biso   1.000  H
  H131     1.0000 0.57510  0.18050  0.56350  Biso   1.000  H
  H132     1.0000 0.89760  0.23880  0.57170  Biso   1.000  H
  H133     1.0000 0.80040  0.02310  0.63380  Biso   1.000  H
  H134     1.0000 0.76620  0.92200  0.67050  Biso   1.000  H
  H135     1.0000 0.45750  0.91810  0.66790  Biso   1.000  H
  H136     1.0000 0.48180  0.01450  0.62790  Biso   1.000  H
  H137     1.0000 0.01210  0.93770  0.06000  Biso   1.000  H
  H138     1.0000 0.00680  0.86840  0.02890  Biso   1.000  H
  H139     1.0000 0.02200  0.29790  0.20340  Biso   1.000  H
  H140     1.0000 0.70610  0.21630  0.19240  Biso   1.000  H
  H141     1.0000 0.69040  0.97950  0.10110  Biso   1.000  H
  H142     1.0000 0.69830  0.82370  0.17600  Biso   1.000  H
  H143     1.0000 0.72820  0.98100  0.30460  Biso   1.000  H
  H144     1.0000 0.04630  0.05460  0.31440  Biso   1.000  H
  H145     1.0000 0.23460  0.95520  0.19580  Biso   1.000  H
  H146     1.0000 0.22630  0.11480  0.12300  Biso   1.000  H
  H147     1.0000 0.98940  0.15850  0.09190  Biso   1.000  H
  H148     1.0000 0.86290  0.12720  0.08940  Biso   1.000  H
  H149     1.0000 0.54420  0.00990  0.22860  Biso   1.000  H
  H150     1.0000 0.56650  0.07790  0.20140  Biso   1.000  H
  H151     1.0000 0.87620  0.82070  0.22700  Biso   1.000  H
  H152     1.0000 0.00120  0.84480  0.23650  Biso   1.000  H
  H153     1.0000 0.06850  0.21420  0.26320  Biso   1.000  H
  H154     1.0000 0.14960  0.23360  0.22980  Biso   1.000  H
  H155     1.0000 0.68320  0.32330  0.21680  Biso   1.000  H
  H156     1.0000 0.70660  0.34650  0.25830  Biso   1.000  H
  H157     1.0000 0.68640  0.26240  0.24700  Biso   1.000  H
  H158     1.0000 0.85410  0.40810  0.19920  Biso   1.000  H
  H159     1.0000 0.96340  0.40120  0.21910  Biso   1.000  H
  H160     1.0000 0.87120  0.42950  0.24110  Biso   1.000  H
  H161     1.0000 0.87690  0.33570  0.28700  Biso   1.000  H
  H162     1.0000 0.96780  0.30780  0.26410  Biso   1.000  H
  H163     1.0000 0.86070  0.25190  0.27540  Biso   1.000  H
  H164     1.0000 0.83810  0.85280  0.08740  Biso   1.000  H
  H165     1.0000 0.77240  0.90590  0.06740  Biso   1.000  H
  H166     1.0000 0.75780  0.82280  0.05490  Biso   1.000  H
  H167     1.0000 0.53560  0.87740  0.09110  Biso   1.000  H
  H168     1.0000 0.52010  0.79300  0.08070  Biso   1.000  H
  H169     1.0000 0.58940  0.85340  0.05500  Biso   1.000  H
  H170     1.0000 0.59260  0.73730  0.11780  Biso   1.000  H
  H171     1.0000 0.70550  0.75870  0.13820  Biso   1.000  H
  H172     1.0000 0.70110  0.73290  0.09670  Biso   1.000  H
  H173     1.0000 0.74640  0.98640  0.37280  Biso   1.000  H
  H174     1.0000 0.70480  0.04480  0.34770  Biso   1.000  H
  H175     1.0000 0.74810  0.06680  0.38780  Biso   1.000  H
  H176     1.0000 0.95860  0.16020  0.33210  Biso   1.000  H
  H177     1.0000 0.87770  0.17140  0.36400  Biso   1.000  H
  H178     1.0000 0.83320  0.15130  0.32380  Biso   1.000  H
  H179     1.0000 0.94130  0.99980  0.38520  Biso   1.000  H
  H180     1.0000 0.94060  0.07880  0.40150  Biso   1.000  H
  H181     1.0000 0.02320  0.06930  0.37000  Biso   1.000  H
  H182     1.0000 0.45180  0.06370  0.13320  Biso   1.000  H
  H183     1.0000 0.37830  0.08610  0.10150  Biso   1.000  H
  H184     1.0000 0.44080  0.02090  0.09530  Biso   1.000  H
  H185     1.0000 0.39480  0.94500  0.16490  Biso   1.000  H
  H186     1.0000 0.38460  0.90500  0.12630  Biso   1.000  H
  H187     1.0000 0.28510  0.89200  0.15380  Biso   1.000  H
  H188     1.0000 0.26710  0.93860  0.07880  Biso   1.000  H
  H189     1.0000 0.20580  0.00430  0.08520  Biso   1.000  H
  H190     1.0000 0.16790  0.92890  0.10630  Biso   1.000  H
  H191     1.0000 0.52500  0.79830  0.95130  Biso   1.000  H
  H192     1.0000 0.09760  0.59520  0.90820  Biso   1.000  H
  H193     1.0000 0.59500  0.97030  0.99440  Biso   1.000  H
  H194     1.0000 0.77040  0.02410  0.00570  Biso   1.000  H
  H195     1.0000 0.87430  0.85350  0.97060  Biso   1.000  H
  H196     1.0000 0.70530  0.79490  0.95690  Biso   1.000  H
  H197     1.0000 0.23450  0.84860  0.99470  Biso   1.000  H
  H198     1.0000 0.07570  0.77180  0.97890  Biso   1.000  H
  H199     1.0000 0.07510  0.68050  0.93650  Biso   1.000  H
  H200     1.0000 0.39760  0.73880  0.92830  Biso   1.000  H
  H201     1.0000 0.30040  0.52310  0.86620  Biso   1.000  H
  H202     1.0000 0.26620  0.42200  0.82950  Biso   1.000  H
  H203     1.0000 0.95750  0.41810  0.83210  Biso   1.000  H
  H204     1.0000 0.98180  0.51450  0.87210  Biso   1.000  H
  H205     1.0000 0.48790  0.56230  0.56000  Biso   1.000  H
  H206     1.0000 0.49320  0.63160  0.52890  Biso   1.000  H
  H207     1.0000 0.47800  0.20210  0.70340  Biso   1.000  H
  H208     1.0000 0.79390  0.28370  0.69240  Biso   1.000  H
  H209     1.0000 0.80960  0.52050  0.60110  Biso   1.000  H
  H210     1.0000 0.80170  0.67630  0.67600  Biso   1.000  H
  H211     1.0000 0.77180  0.51900  0.80460  Biso   1.000  H
  H212     1.0000 0.45370  0.44540  0.81440  Biso   1.000  H
  H213     1.0000 0.26540  0.54480  0.69580  Biso   1.000  H
  H214     1.0000 0.27370  0.38520  0.62300  Biso   1.000  H
  H215     1.0000 0.51060  0.34150  0.59190  Biso   1.000  H
  H216     1.0000 0.63710  0.37280  0.58940  Biso   1.000  H
  H217     1.0000 0.95580  0.49010  0.72860  Biso   1.000  H
  H218     1.0000 0.93350  0.42210  0.70140  Biso   1.000  H
  H219     1.0000 0.62380  0.67930  0.72700  Biso   1.000  H
  H220     1.0000 0.49880  0.65520  0.73650  Biso   1.000  H
  H221     1.0000 0.43150  0.28580  0.76320  Biso   1.000  H
  H222     1.0000 0.35040  0.26640  0.72980  Biso   1.000  H
  H223     1.0000 0.81680  0.17670  0.71680  Biso   1.000  H
  H224     1.0000 0.79340  0.15350  0.75830  Biso   1.000  H
  H225     1.0000 0.81360  0.23760  0.74700  Biso   1.000  H
  H226     1.0000 0.64590  0.09190  0.69920  Biso   1.000  H
  H227     1.0000 0.53660  0.09880  0.71910  Biso   1.000  H
  H228     1.0000 0.62880  0.07050  0.74110  Biso   1.000  H
  H229     1.0000 0.62310  0.16430  0.78700  Biso   1.000  H
  H230     1.0000 0.53220  0.19220  0.76410  Biso   1.000  H
  H231     1.0000 0.63930  0.24810  0.77540  Biso   1.000  H
  H232     1.0000 0.66190  0.64720  0.58740  Biso   1.000  H
  H233     1.0000 0.72760  0.59410  0.56740  Biso   1.000  H
  H234     1.0000 0.74220  0.67720  0.55490  Biso   1.000  H
  H235     1.0000 0.96440  0.62260  0.59110  Biso   1.000  H
  H236     1.0000 0.97990  0.70700  0.58070  Biso   1.000  H
  H237     1.0000 0.91060  0.64660  0.55500  Biso   1.000  H
  H238     1.0000 0.90740  0.76270  0.61780  Biso   1.000  H
  H239     1.0000 0.79450  0.74130  0.63820  Biso   1.000  H
  H240     1.0000 0.79890  0.76710  0.59670  Biso   1.000  H
  H241     1.0000 0.75360  0.51360  0.87280  Biso   1.000  H
  H242     1.0000 0.79520  0.45520  0.84770  Biso   1.000  H
  H243     1.0000 0.75190  0.43320  0.88780  Biso   1.000  H
  H244     1.0000 0.54140  0.33980  0.83210  Biso   1.000  H
  H245     1.0000 0.62230  0.32860  0.86400  Biso   1.000  H
  H246     1.0000 0.66680  0.34870  0.82380  Biso   1.000  H
  H247     1.0000 0.55870  0.50020  0.88520  Biso   1.000  H
  H248     1.0000 0.55940  0.42120  0.90150  Biso   1.000  H
  H249     1.0000 0.47680  0.43070  0.87000  Biso   1.000  H
  H250     1.0000 0.04820  0.43630  0.63320  Biso   1.000  H
  H251     1.0000 0.12170  0.41390  0.60150  Biso   1.000  H
  H252     1.0000 0.05920  0.47910  0.59530  Biso   1.000  H
  H253     1.0000 0.10520  0.55500  0.66490  Biso   1.000  H
  H254     1.0000 0.11540  0.59500  0.62630  Biso   1.000  H
  H255     1.0000 0.21490  0.60800  0.65380  Biso   1.000  H
  H256     1.0000 0.23290  0.56140  0.57880  Biso   1.000  H
  H257     1.0000 0.29420  0.49570  0.58520  Biso   1.000  H
  H258     1.0000 0.33210  0.57110  0.60630  Biso   1.000  H
  H259     1.0000 0.97500  0.70170  0.45130  Biso   1.000  H
  H260     1.0000 0.40240  0.90480  0.40820  Biso   1.000  H
  H261     1.0000 0.90500  0.52970  0.49440  Biso   1.000  H
  H262     1.0000 0.72960  0.47590  0.50570  Biso   1.000  H
  H263     1.0000 0.62570  0.64650  0.47060  Biso   1.000  H
  H264     1.0000 0.79470  0.70510  0.45690  Biso   1.000  H
  H265     1.0000 0.26550  0.65140  0.49470  Biso   1.000  H
  H266     1.0000 0.42430  0.72820  0.47890  Biso   1.000  H
  H267     1.0000 0.42490  0.81950  0.43650  Biso   1.000  H
  H268     1.0000 0.10240  0.76120  0.42830  Biso   1.000  H
  H269     1.0000 0.19960  0.97690  0.36620  Biso   1.000  H
  H270     1.0000 0.23380  0.07800  0.32950  Biso   1.000  H
  H271     1.0000 0.54250  0.08190  0.33210  Biso   1.000  H
  H272     1.0000 0.51820  0.98550  0.37210  Biso   1.000  H
  C1       1.0000 0.09407  0.84287  0.84388  Biso   1.000  C
  C2       1.0000 0.01078  0.79108  0.82938  Biso   1.000  C
  C3       1.0000 0.03502  0.73772  0.80614  Biso   1.000  C
  C4       1.0000 0.14023  0.73493  0.79648  Biso   1.000  C
  C5       1.0000 0.22130  0.78540  0.81282  Biso   1.000  C
  C6       1.0000 0.19908  0.83828  0.83651  Biso   1.000  C
  C7       1.0000 0.30084  0.00414  0.81075  Biso   1.000  C
  C8       1.0000 0.30233  0.98343  0.84691  Biso   1.000  C
  C9       1.0000 0.30810  0.03540  0.87423  Biso   1.000  C
  C10      1.0000 0.31160  0.10830  0.86656  Biso   1.000  C
  C11      1.0000 0.30340  0.12730  0.83010  Biso   1.000  C
  C12      1.0000 0.29770  0.07630  0.80261  Biso   1.000  C
  C13      1.0000 0.08096  0.04446  0.75059  Biso   1.000  C
  C14      1.0000 0.18423  0.04963  0.73694  Biso   1.000  C
  C15      1.0000 0.20070  0.01580  0.70414  Biso   1.000  C
  C16      1.0000 0.11570  0.97770  0.68410  Biso   1.000  C
  C17      1.0000 0.01310  0.97260  0.69845  Biso   1.000  C
  C18      1.0000 0.99526  0.00566  0.73049  Biso   1.000  C
  C19      1.0000 0.86796  0.89986  0.79423  Biso   1.000  C
  C20      1.0000 0.84015  0.96615  0.78580  Biso   1.000  C
  C21      1.0000 0.78390  0.99980  0.81062  Biso   1.000  C
  C22      1.0000 0.75370  0.97000  0.84461  Biso   1.000  C
  C23      1.0000 0.78880  0.90560  0.85346  Biso   1.000  C
  C24      1.0000 0.84499  0.87079  0.82895  Biso   1.000  C
  C25      1.0000 0.06780  0.88440  0.90297  Biso   1.000  C
  C26      1.0000 0.04740  0.94810  0.92405  Biso   1.000  C
  C27      1.0000 0.40740  0.94290  0.77639  Biso   1.000  C
  C28      1.0000 0.41190  0.89180  0.74474  Biso   1.000  C
  C29      1.0000 0.05471  0.14981  0.78138  Biso   1.000  C
  C30      1.0000 0.02640  0.17640  0.81792  Biso   1.000  C
  C31      1.0000 0.87670  0.80350  0.75145  Biso   1.000  C
  C32      1.0000 0.78446  0.81166  0.72705  Biso   1.000  C
  C33      1.0000 0.16290  0.68130  0.76721  Biso   1.000  C
  C34      1.0000 0.28230  0.68790  0.76070  Biso   1.000  C
  C35      1.0000 0.11430  0.60380  0.77789  Biso   1.000  C
  C36      1.0000 0.10970  0.69800  0.73208  Biso   1.000  C
  C37      1.0000 0.32210  0.16540  0.89678  Biso   1.000  C
  C38      1.0000 0.23010  0.14400  0.92430  Biso   1.000  C
  C39      1.0000 0.43010  0.15990  0.91980  Biso   1.000  C
  C40      1.0000 0.33150  0.24020  0.88510  Biso   1.000  C
  C41      1.0000 0.13040  0.93710  0.64877  Biso   1.000  C
  C42      1.0000 0.24280  0.96200  0.63381  Biso   1.000  C
  C43      1.0000 0.11370  0.85630  0.65804  Biso   1.000  C
  C44      1.0000 0.04920  0.94830  0.62056  Biso   1.000  C
  C45      1.0000 0.69320  0.00870  0.87199  Biso   1.000  C
  C46      1.0000 0.59700  0.95470  0.88683  Biso   1.000  C
  C47      1.0000 0.65370  0.07230  0.85527  Biso   1.000  C
  C48      1.0000 0.77010  0.03680  0.90324  Biso   1.000  C
  C49      1.0000 0.34900  0.05490  0.01089  Biso   1.000  C
  C50      1.0000 0.24390  0.02360  0.00426  Biso   1.000  C
  C51      1.0000 0.18340  0.12240  0.02476  Biso   1.000  C
  C52      1.0000 0.28350  0.15780  0.03271  Biso   1.000  C
  C53      1.0000 0.37140  0.12510  0.02566  Biso   1.000  C
  C54      1.0000 0.56840  0.14840  0.02391  Biso   1.000  C
  C55      1.0000 0.66800  0.19920  0.03629  Biso   1.000  C
  C56      1.0000 0.76440  0.18980  0.02210  Biso   1.000  C
  C57      1.0000 0.85880  0.23480  0.03167  Biso   1.000  C
  C58      1.0000 0.85910  0.28910  0.05641  Biso   1.000  C
  C59      1.0000 0.76150  0.30000  0.07137  Biso   1.000  C
  C60      1.0000 0.66830  0.25470  0.06133  Biso   1.000  C
  C61      1.0000 0.75540  0.35890  0.09758  Biso   1.000  C
  C62      1.0000 0.85550  0.46960  0.12691  Biso   1.000  C
  C63      1.0000 0.77150  0.49830  0.14010  Biso   1.000  C
  C64      1.0000 0.79270  0.55800  0.16240  Biso   1.000  C
  C65      1.0000 0.97170  0.56080  0.16040  Biso   1.000  C
  C66      1.0000 0.95790  0.50270  0.13704  Biso   1.000  C
  C67      1.0000 0.40593  0.65713  0.34388  Biso   1.000  C
  C68      1.0000 0.48922  0.70892  0.32938  Biso   1.000  C
  C69      1.0000 0.46498  0.76228  0.30614  Biso   1.000  C
  C70      1.0000 0.35977  0.76507  0.29648  Biso   1.000  C
  C71      1.0000 0.27870  0.71460  0.31282  Biso   1.000  C
  C72      1.0000 0.30092  0.66172  0.33651  Biso   1.000  C
  C73      1.0000 0.19916  0.49586  0.31075  Biso   1.000  C
  C74      1.0000 0.19767  0.51657  0.34691  Biso   1.000  C
  C75      1.0000 0.19190  0.46460  0.37423  Biso   1.000  C
  C76      1.0000 0.18840  0.39170  0.36656  Biso   1.000  C
  C77      1.0000 0.19660  0.37270  0.33010  Biso   1.000  C
  C78      1.0000 0.20230  0.42370  0.30261  Biso   1.000  C
  C79      1.0000 0.41904  0.45554  0.25059  Biso   1.000  C
  C80      1.0000 0.31577  0.45037  0.23694  Biso   1.000  C
  C81      1.0000 0.29930  0.48420  0.20414  Biso   1.000  C
  C82      1.0000 0.38430  0.52230  0.18410  Biso   1.000  C
  C83      1.0000 0.48690  0.52740  0.19845  Biso   1.000  C
  C84      1.0000 0.50474  0.49434  0.23049  Biso   1.000  C
  C85      1.0000 0.63204  0.60014  0.29423  Biso   1.000  C
  C86      1.0000 0.65985  0.53385  0.28580  Biso   1.000  C
  C87      1.0000 0.71610  0.50020  0.31062  Biso   1.000  C
  C88      1.0000 0.74630  0.53000  0.34461  Biso   1.000  C
  C89      1.0000 0.71120  0.59440  0.35346  Biso   1.000  C
  C90      1.0000 0.65501  0.62921  0.32895  Biso   1.000  C
  C91      1.0000 0.43220  0.61560  0.40297  Biso   1.000  C
  C92      1.0000 0.45260  0.55190  0.42405  Biso   1.000  C
  C93      1.0000 0.09260  0.55710  0.27639  Biso   1.000  C
  C94      1.0000 0.08810  0.60820  0.24474  Biso   1.000  C
  C95      1.0000 0.44529  0.35019  0.28138  Biso   1.000  C
  C96      1.0000 0.47360  0.32360  0.31792  Biso   1.000  C
  C97      1.0000 0.62330  0.69650  0.25145  Biso   1.000  C
  C98      1.0000 0.71554  0.68834  0.22705  Biso   1.000  C
  C99      1.0000 0.33710  0.81870  0.26721  Biso   1.000  C
  C100     1.0000 0.21770  0.81210  0.26070  Biso   1.000  C
  C101     1.0000 0.38570  0.89620  0.27789  Biso   1.000  C
  C102     1.0000 0.39030  0.80200  0.23208  Biso   1.000  C
  C103     1.0000 0.17790  0.33460  0.39678  Biso   1.000  C
  C104     1.0000 0.26990  0.35600  0.42430  Biso   1.000  C
  C105     1.0000 0.06990  0.34010  0.41980  Biso   1.000  C
  C106     1.0000 0.16850  0.25980  0.38510  Biso   1.000  C
  C107     1.0000 0.36960  0.56290  0.14877  Biso   1.000  C
  C108     1.0000 0.25720  0.53800  0.13381  Biso   1.000  C
  C109     1.0000 0.38630  0.64370  0.15804  Biso   1.000  C
  C110     1.0000 0.45080  0.55170  0.12056  Biso   1.000  C
  C111     1.0000 0.80680  0.49130  0.37199  Biso   1.000  C
  C112     1.0000 0.90300  0.54530  0.38683  Biso   1.000  C
  C113     1.0000 0.84630  0.42770  0.35527  Biso   1.000  C
  C114     1.0000 0.72990  0.46320  0.40324  Biso   1.000  C
  C115     1.0000 0.15100  0.44510  0.51089  Biso   1.000  C
  C116     1.0000 0.25610  0.47640  0.50426  Biso   1.000  C
  C117     1.0000 0.31660  0.37760  0.52476  Biso   1.000  C
  C118     1.0000 0.21650  0.34220  0.53271  Biso   1.000  C
  C119     1.0000 0.12860  0.37490  0.52566  Biso   1.000  C
  C120     1.0000 0.93160  0.35160  0.52391  Biso   1.000  C
  C121     1.0000 0.83200  0.30080  0.53629  Biso   1.000  C
  C122     1.0000 0.73560  0.31020  0.52210  Biso   1.000  C
  C123     1.0000 0.64120  0.26520  0.53167  Biso   1.000  C
  C124     1.0000 0.64090  0.21090  0.55641  Biso   1.000  C
  C125     1.0000 0.73850  0.20000  0.57137  Biso   1.000  C
  C126     1.0000 0.83170  0.24530  0.56133  Biso   1.000  C
  C127     1.0000 0.74460  0.14110  0.59758  Biso   1.000  C
  C128     1.0000 0.64450  0.03040  0.62691  Biso   1.000  C
  C129     1.0000 0.72850  0.00170  0.64010  Biso   1.000  C
  C130     1.0000 0.70730  0.94200  0.66240  Biso   1.000  C
  C131     1.0000 0.52830  0.93920  0.66040  Biso   1.000  C
  C132     1.0000 0.54210  0.99730  0.63704  Biso   1.000  C
  C133     1.0000 0.90593  0.15713  0.15612  Biso   1.000  C
  C134     1.0000 0.98922  0.20892  0.17062  Biso   1.000  C
  C135     1.0000 0.96498  0.26228  0.19386  Biso   1.000  C
  C136     1.0000 0.85977  0.26507  0.20352  Biso   1.000  C
  C137     1.0000 0.77870  0.21460  0.18718  Biso   1.000  C
  C138     1.0000 0.80092  0.16172  0.16349  Biso   1.000  C
  C139     1.0000 0.69916  0.99586  0.18925  Biso   1.000  C
  C140     1.0000 0.69767  0.01657  0.15309  Biso   1.000  C
  C141     1.0000 0.69190  0.96460  0.12577  Biso   1.000  C
  C142     1.0000 0.68840  0.89170  0.13344  Biso   1.000  C
  C143     1.0000 0.69660  0.87270  0.16990  Biso   1.000  C
  C144     1.0000 0.70230  0.92370  0.19739  Biso   1.000  C
  C145     1.0000 0.91904  0.95554  0.24941  Biso   1.000  C
  C146     1.0000 0.81577  0.95037  0.26306  Biso   1.000  C
  C147     1.0000 0.79930  0.98420  0.29586  Biso   1.000  C
  C148     1.0000 0.88430  0.02230  0.31590  Biso   1.000  C
  C149     1.0000 0.98690  0.02740  0.30155  Biso   1.000  C
  C150     1.0000 0.00474  0.99434  0.26951  Biso   1.000  C
  C151     1.0000 0.13204  0.10014  0.20577  Biso   1.000  C
  C152     1.0000 0.15985  0.03385  0.21420  Biso   1.000  C
  C153     1.0000 0.21610  0.00020  0.18938  Biso   1.000  C
  C154     1.0000 0.24630  0.03000  0.15539  Biso   1.000  C
  C155     1.0000 0.21120  0.09440  0.14654  Biso   1.000  C
  C156     1.0000 0.15501  0.12921  0.17105  Biso   1.000  C
  C157     1.0000 0.93220  0.11560  0.09703  Biso   1.000  C
  C158     1.0000 0.95260  0.05190  0.07595  Biso   1.000  C
  C159     1.0000 0.59260  0.05710  0.22361  Biso   1.000  C
  C160     1.0000 0.58810  0.10820  0.25526  Biso   1.000  C
  C161     1.0000 0.94529  0.85019  0.21862  Biso   1.000  C
  C162     1.0000 0.97360  0.82360  0.18208  Biso   1.000  C
  C163     1.0000 0.12330  0.19650  0.24855  Biso   1.000  C
  C164     1.0000 0.21554  0.18834  0.27295  Biso   1.000  C
  C165     1.0000 0.83710  0.31870  0.23279  Biso   1.000  C
  C166     1.0000 0.71770  0.31210  0.23930  Biso   1.000  C
  C167     1.0000 0.88570  0.39620  0.22211  Biso   1.000  C
  C168     1.0000 0.89030  0.30200  0.26792  Biso   1.000  C
  C169     1.0000 0.67790  0.83460  0.10322  Biso   1.000  C
  C170     1.0000 0.76990  0.85600  0.07570  Biso   1.000  C
  C171     1.0000 0.56990  0.84010  0.08020  Biso   1.000  C
  C172     1.0000 0.66850  0.75980  0.11490  Biso   1.000  C
  C173     1.0000 0.86960  0.06290  0.35123  Biso   1.000  C
  C174     1.0000 0.75720  0.03800  0.36619  Biso   1.000  C
  C175     1.0000 0.88630  0.14370  0.34196  Biso   1.000  C
  C176     1.0000 0.95080  0.05170  0.37944  Biso   1.000  C
  C177     1.0000 0.30680  0.99130  0.12801  Biso   1.000  C
  C178     1.0000 0.40300  0.04530  0.11317  Biso   1.000  C
  C179     1.0000 0.34630  0.92770  0.14473  Biso   1.000  C
  C180     1.0000 0.22990  0.96320  0.09676  Biso   1.000  C
  C181     1.0000 0.65100  0.94510  0.98911  Biso   1.000  C
  C182     1.0000 0.75610  0.97640  0.99574  Biso   1.000  C
  C183     1.0000 0.81660  0.87760  0.97524  Biso   1.000  C
  C184     1.0000 0.71650  0.84220  0.96729  Biso   1.000  C
  C185     1.0000 0.62860  0.87490  0.97434  Biso   1.000  C
  C186     1.0000 0.43160  0.85160  0.97609  Biso   1.000  C
  C187     1.0000 0.33200  0.80080  0.96371  Biso   1.000  C
  C188     1.0000 0.23560  0.81020  0.97790  Biso   1.000  C
  C189     1.0000 0.14120  0.76520  0.96833  Biso   1.000  C
  C190     1.0000 0.14090  0.71090  0.94359  Biso   1.000  C
  C191     1.0000 0.23850  0.70000  0.92863  Biso   1.000  C
  C192     1.0000 0.33170  0.74530  0.93867  Biso   1.000  C
  C193     1.0000 0.24460  0.64110  0.90242  Biso   1.000  C
  C194     1.0000 0.14450  0.53040  0.87309  Biso   1.000  C
  C195     1.0000 0.22850  0.50170  0.85990  Biso   1.000  C
  C196     1.0000 0.20730  0.44200  0.83760  Biso   1.000  C
  C197     1.0000 0.02830  0.43920  0.83960  Biso   1.000  C
  C198     1.0000 0.04210  0.49730  0.86296  Biso   1.000  C
  C199     1.0000 0.59407  0.34287  0.65612  Biso   1.000  C
  C200     1.0000 0.51078  0.29108  0.67062  Biso   1.000  C
  C201     1.0000 0.53502  0.23772  0.69386  Biso   1.000  C
  C202     1.0000 0.64023  0.23493  0.70352  Biso   1.000  C
  C203     1.0000 0.72130  0.28540  0.68718  Biso   1.000  C
  C204     1.0000 0.69908  0.33828  0.66349  Biso   1.000  C
  C205     1.0000 0.80084  0.50414  0.68925  Biso   1.000  C
  C206     1.0000 0.80233  0.48343  0.65309  Biso   1.000  C
  C207     1.0000 0.80810  0.53540  0.62577  Biso   1.000  C
  C208     1.0000 0.81160  0.60830  0.63344  Biso   1.000  C
  C209     1.0000 0.80340  0.62730  0.66990  Biso   1.000  C
  C210     1.0000 0.79770  0.57630  0.69739  Biso   1.000  C
  C211     1.0000 0.58096  0.54446  0.74941  Biso   1.000  C
  C212     1.0000 0.68423  0.54963  0.76306  Biso   1.000  C
  C213     1.0000 0.70070  0.51580  0.79586  Biso   1.000  C
  C214     1.0000 0.61570  0.47770  0.81590  Biso   1.000  C
  C215     1.0000 0.51310  0.47260  0.80155  Biso   1.000  C
  C216     1.0000 0.49526  0.50566  0.76951  Biso   1.000  C
  C217     1.0000 0.36796  0.39986  0.70577  Biso   1.000  C
  C218     1.0000 0.34015  0.46615  0.71420  Biso   1.000  C
  C219     1.0000 0.28390  0.49980  0.68938  Biso   1.000  C
  C220     1.0000 0.25370  0.47000  0.65539  Biso   1.000  C
  C221     1.0000 0.28880  0.40560  0.64654  Biso   1.000  C
  C222     1.0000 0.34499  0.37079  0.67105  Biso   1.000  C
  C223     1.0000 0.56780  0.38440  0.59703  Biso   1.000  C
  C224     1.0000 0.54740  0.44810  0.57595  Biso   1.000  C
  C225     1.0000 0.90740  0.44290  0.72361  Biso   1.000  C
  C226     1.0000 0.91190  0.39180  0.75526  Biso   1.000  C
  C227     1.0000 0.55471  0.64981  0.71862  Biso   1.000  C
  C228     1.0000 0.52640  0.67640  0.68208  Biso   1.000  C
  C229     1.0000 0.37670  0.30350  0.74855  Biso   1.000  C
  C230     1.0000 0.28446  0.31166  0.77295  Biso   1.000  C
  C231     1.0000 0.66290  0.18130  0.73279  Biso   1.000  C
  C232     1.0000 0.78230  0.18790  0.73930  Biso   1.000  C
  C233     1.0000 0.61430  0.10380  0.72211  Biso   1.000  C
  C234     1.0000 0.60970  0.19800  0.76792  Biso   1.000  C
  C235     1.0000 0.82210  0.66540  0.60322  Biso   1.000  C
  C236     1.0000 0.73010  0.64400  0.57570  Biso   1.000  C
  C237     1.0000 0.93010  0.65990  0.58020  Biso   1.000  C
  C238     1.0000 0.83150  0.74020  0.61490  Biso   1.000  C
  C239     1.0000 0.63040  0.43710  0.85123  Biso   1.000  C
  C240     1.0000 0.74280  0.46200  0.86619  Biso   1.000  C
  C241     1.0000 0.61370  0.35630  0.84196  Biso   1.000  C
  C242     1.0000 0.54920  0.44830  0.87944  Biso   1.000  C
  C243     1.0000 0.19320  0.50870  0.62801  Biso   1.000  C
  C244     1.0000 0.09700  0.45470  0.61317  Biso   1.000  C
  C245     1.0000 0.15370  0.57230  0.64473  Biso   1.000  C
  C246     1.0000 0.27010  0.53680  0.59676  Biso   1.000  C
  C247     1.0000 0.84900  0.55490  0.48911  Biso   1.000  C
  C248     1.0000 0.74390  0.52360  0.49574  Biso   1.000  C
  C249     1.0000 0.68340  0.62240  0.47524  Biso   1.000  C
  C250     1.0000 0.78350  0.65780  0.46729  Biso   1.000  C
  C251     1.0000 0.87140  0.62510  0.47434  Biso   1.000  C
  C252     1.0000 0.06840  0.64840  0.47609  Biso   1.000  C
  C253     1.0000 0.16800  0.69920  0.46371  Biso   1.000  C
  C254     1.0000 0.26440  0.68980  0.47790  Biso   1.000  C
  C255     1.0000 0.35880  0.73480  0.46833  Biso   1.000  C
  C256     1.0000 0.35910  0.78910  0.44359  Biso   1.000  C
  C257     1.0000 0.26150  0.80000  0.42863  Biso   1.000  C
  C258     1.0000 0.16830  0.75470  0.43867  Biso   1.000  C
  C259     1.0000 0.25540  0.85890  0.40242  Biso   1.000  C
  C260     1.0000 0.35550  0.96960  0.37309  Biso   1.000  C
  C261     1.0000 0.27150  0.99830  0.35990  Biso   1.000  C
  C262     1.0000 0.29270  0.05800  0.33760  Biso   1.000  C
  C263     1.0000 0.47170  0.06080  0.33960  Biso   1.000  C
  C264     1.0000 0.45790  0.00270  0.36296  Biso   1.000  C
  S1       1.0000 0.30809  0.89318  0.86006  Biso   1.000  S
  S2       1.0000 0.29801  0.10617  0.75708  Biso   1.000  S
  S3       1.0000 0.85981  0.00509  0.74212  Biso   1.000  S
  S4       1.0000 0.87548  0.78640  0.84267  Biso   1.000  S
  S5       1.0000 0.19191  0.60682  0.36006  Biso   1.000  S
  S6       1.0000 0.20199  0.39383  0.25708  Biso   1.000  S
  S7       1.0000 0.64019  0.49491  0.24212  Biso   1.000  S
  S8       1.0000 0.62452  0.71360  0.34267  Biso   1.000  S
  S9       1.0000 0.69191  0.10682  0.13994  Biso   1.000  S
  S10      1.0000 0.70199  0.89383  0.24292  Biso   1.000  S
  S11      1.0000 0.14019  0.99491  0.25788  Biso   1.000  S
  S12      1.0000 0.12452  0.21360  0.15733  Biso   1.000  S
  S13      1.0000 0.80809  0.39318  0.63994  Biso   1.000  S
  S14      1.0000 0.79801  0.60617  0.74292  Biso   1.000  S
  S15      1.0000 0.35981  0.50509  0.75788  Biso   1.000  S
  S16      1.0000 0.37548  0.28640  0.65733  Biso   1.000  S
  N1       1.0000 0.16008  0.05468  0.01067  Biso   1.000  N
  N2       1.0000 0.47240  0.16350  0.03460  Biso   1.000  N
  N3       1.0000 0.84450  0.40990  0.10379  Biso   1.000  N
  N4       1.0000 0.88976  0.58966  0.17335  Biso   1.000  N
  N5       1.0000 0.33992  0.44532  0.51067  Biso   1.000  N
  N6       1.0000 0.02760  0.33650  0.53460  Biso   1.000  N
  N7       1.0000 0.65550  0.09010  0.60379  Biso   1.000  N
  N8       1.0000 0.61024  0.91034  0.67335  Biso   1.000  N
  N9       1.0000 0.83992  0.94532  0.98933  Biso   1.000  N
  N10      1.0000 0.52760  0.83650  0.96540  Biso   1.000  N
  N11      1.0000 0.15550  0.59010  0.89621  Biso   1.000  N
  N12      1.0000 0.11024  0.41034  0.82665  Biso   1.000  N
  N13      1.0000 0.66008  0.55468  0.48933  Biso   1.000  N
  N14      1.0000 0.97240  0.66350  0.46540  Biso   1.000  N
  N15      1.0000 0.34450  0.90990  0.39621  Biso   1.000  N
  N16      1.0000 0.38976  0.08966  0.32665  Biso   1.000  N
  O1       1.0000 0.07042  0.89962  0.86456  Biso   1.000  O
  O2       1.0000 0.05135  0.94025  0.95790  Biso   1.000  O
  O3       1.0000 0.02726  0.00226  0.90784  Biso   1.000  O
  O4       1.0000 0.30161  0.95491  0.78277  Biso   1.000  O
  O5       1.0000 0.49373  0.86253  0.74734  Biso   1.000  O
  O6       1.0000 0.34570  0.88350  0.72058  Biso   1.000  O
  O7       1.0000 0.06313  0.07403  0.78393  Biso   1.000  O
  O8       1.0000 0.02355  0.24405  0.81892  Biso   1.000  O
  O9       1.0000 0.00581  0.13461  0.84371  Biso   1.000  O
  O10      1.0000 0.92604  0.87014  0.76918  Biso   1.000  O
  O11      1.0000 0.70051  0.82161  0.74285  Biso   1.000  O
  O12      1.0000 0.79389  0.80739  0.69397  Biso   1.000  O
  O13      1.0000 0.97901  0.08211  0.96382  Biso   1.000  O
  O14      1.0000 0.57280  0.09800  0.00313  Biso   1.000  O
  O15      1.0000 0.66940  0.36180  0.11265  Biso   1.000  O
  O16      1.0000 0.42958  0.60038  0.36456  Biso   1.000  O
  O17      1.0000 0.44865  0.55975  0.45790  Biso   1.000  O
  O18      1.0000 0.47274  0.49774  0.40784  Biso   1.000  O
  O19      1.0000 0.19839  0.54509  0.28277  Biso   1.000  O
  O20      1.0000 0.00627  0.63747  0.24734  Biso   1.000  O
  O21      1.0000 0.15430  0.61650  0.22058  Biso   1.000  O
  O22      1.0000 0.43687  0.42597  0.28393  Biso   1.000  O
  O23      1.0000 0.47645  0.25595  0.31892  Biso   1.000  O
  O24      1.0000 0.49419  0.36539  0.34371  Biso   1.000  O
  O25      1.0000 0.57396  0.62986  0.26918  Biso   1.000  O
  O26      1.0000 0.79949  0.67839  0.24285  Biso   1.000  O
  O27      1.0000 0.70611  0.69261  0.19397  Biso   1.000  O
  O28      1.0000 0.52099  0.41789  0.46382  Biso   1.000  O
  O29      1.0000 0.92720  0.40200  0.50313  Biso   1.000  O
  O30      1.0000 0.83060  0.13820  0.61265  Biso   1.000  O
  O31      1.0000 0.92958  0.10038  0.13544  Biso   1.000  O
  O32      1.0000 0.94865  0.05975  0.04210  Biso   1.000  O
  O33      1.0000 0.97274  0.99774  0.09216  Biso   1.000  O
  O34      1.0000 0.69839  0.04509  0.21723  Biso   1.000  O
  O35      1.0000 0.50627  0.13747  0.25266  Biso   1.000  O
  O36      1.0000 0.65430  0.11650  0.27942  Biso   1.000  O
  O37      1.0000 0.93687  0.92597  0.21607  Biso   1.000  O
  O38      1.0000 0.97645  0.75595  0.18108  Biso   1.000  O
  O39      1.0000 0.99419  0.86539  0.15629  Biso   1.000  O
  O40      1.0000 0.07396  0.12986  0.23082  Biso   1.000  O
  O41      1.0000 0.29949  0.17839  0.25715  Biso   1.000  O
  O42      1.0000 0.20611  0.19261  0.30603  Biso   1.000  O
  O43      1.0000 0.02099  0.91789  0.03618  Biso   1.000  O
  O44      1.0000 0.42720  0.90200  0.99687  Biso   1.000  O
  O45      1.0000 0.33060  0.63820  0.88735  Biso   1.000  O
  O46      1.0000 0.57042  0.39962  0.63544  Biso   1.000  O
  O47      1.0000 0.55135  0.44025  0.54210  Biso   1.000  O
  O48      1.0000 0.52726  0.50226  0.59216  Biso   1.000  O
  O49      1.0000 0.80161  0.45491  0.71723  Biso   1.000  O
  O50      1.0000 0.99373  0.36253  0.75266  Biso   1.000  O
  O51      1.0000 0.84570  0.38350  0.77942  Biso   1.000  O
  O52      1.0000 0.56313  0.57403  0.71607  Biso   1.000  O
  O53      1.0000 0.52355  0.74405  0.68108  Biso   1.000  O
  O54      1.0000 0.50581  0.63461  0.65629  Biso   1.000  O
  O55      1.0000 0.42604  0.37014  0.73082  Biso   1.000  O
  O56      1.0000 0.20051  0.32161  0.75715  Biso   1.000  O
  O57      1.0000 0.29389  0.30739  0.80603  Biso   1.000  O
  O58      1.0000 0.47901  0.58211  0.53618  Biso   1.000  O
  O59      1.0000 0.07280  0.59800  0.49687  Biso   1.000  O
  O60      1.0000 0.16940  0.86180  0.38735  Biso   1.000  O
