data_image0
_cell_length_a       12.497
_cell_length_b       12.5646
_cell_length_c       15.1697
_cell_angle_alpha    75.523
_cell_angle_beta     77.748
_cell_angle_gamma    85.439

_symmetry_space_group_name_H-M    "P 1"
_symmetry_int_tables_number       1

loop_
  _symmetry_equiv_pos_as_xyz
  'x, y, z'

loop_
  _atom_site_label
  _atom_site_occupancy
  _atom_site_fract_x
  _atom_site_fract_y
  _atom_site_fract_z
  _atom_site_thermal_displace_type
  _atom_site_B_iso_or_equiv
  _atom_site_type_symbol
  C1       1.0000 0.54600  0.52720  0.78430  Biso   1.000  C
  C2       1.0000 0.56600  0.53030  0.87690  Biso   1.000  C
  H1       1.0000 0.63150  0.55770  0.88050  Biso   1.000  H
  C3       1.0000 0.49260  0.49490  0.95490  Biso   1.000  C
  H2       1.0000 0.42970  0.46260  0.95160  Biso   1.000  H
  C4       1.0000 0.44240  0.77280  0.61580  Biso   1.000  C
  H3       1.0000 0.51670  0.78350  0.60950  Biso   1.000  H
  C5       1.0000 0.37030  0.86340  0.61630  Biso   1.000  C
  C6       1.0000 0.25970  0.84660  0.62420  Biso   1.000  C
  H4       1.0000 0.20930  0.90530  0.62320  Biso   1.000  H
  C7       1.0000 0.22570  0.74220  0.63340  Biso   1.000  C
  H5       1.0000 0.15200  0.72940  0.63920  Biso   1.000  H
  C8       1.0000 0.30230  0.65650  0.63390  Biso   1.000  C
  H6       1.0000 0.27850  0.58600  0.64140  Biso   1.000  H
  C9       1.0000 0.40900  0.97400  0.61080  Biso   1.000  C
  C10      1.0000 0.63490  0.08620  0.63710  Biso   1.000  C
  C11      1.0000 0.71430  0.99030  0.65020  Biso   1.000  C
  H7       1.0000 0.78240  0.01460  0.65690  Biso   1.000  H
  H8       1.0000 0.68470  0.93580  0.70490  Biso   1.000  H
  H9       1.0000 0.72660  0.95910  0.59710  Biso   1.000  H
  C12      1.0000 0.73990  0.40320  0.62160  Biso   1.000  C
  H10      1.0000 0.76330  0.47330  0.61640  Biso   1.000  H
  C13      1.0000 0.78260  0.21280  0.63170  Biso   1.000  C
  H11      1.0000 0.83290  0.15400  0.63460  Biso   1.000  H
  C14      1.0000 0.67320  0.19610  0.63380  Biso   1.000  C
  C15      1.0000 0.60190  0.28760  0.63130  Biso   1.000  C
  H12      1.0000 0.52830  0.27750  0.63400  Biso   1.000  H
  C16      1.0000 0.88340  0.22610  0.12550  Biso   1.000  C
  H13      1.0000 0.95330  0.24930  0.12200  Biso   1.000  H
  C17      1.0000 0.79730  0.30240  0.12810  Biso   1.000  C
  H14      1.0000 0.80910  0.37520  0.12610  Biso   1.000  H
  C18      1.0000 0.69320  0.26750  0.13380  Biso   1.000  C
  H15      1.0000 0.63380  0.31700  0.13650  Biso   1.000  H
  C19      1.0000 0.67710  0.15840  0.13540  Biso   1.000  C
  C20      1.0000 0.76970  0.08790  0.13260  Biso   1.000  C
  H16      1.0000 0.76050  0.01470  0.13430  Biso   1.000  H
  C21      1.0000 0.56690  0.11920  0.13890  Biso   1.000  C
  C22      1.0000 0.46970  0.19400  0.15720  Biso   1.000  C
  H17      1.0000 0.49350  0.26090  0.16560  Biso   1.000  H
  H18      1.0000 0.43340  0.21040  0.10530  Biso   1.000  H
  H19      1.0000 0.41990  0.15860  0.21230  Biso   1.000  H
  C23      1.0000 0.45390  0.89480  0.11370  Biso   1.000  C
  C24      1.0000 0.55100  0.82020  0.09380  Biso   1.000  C
  H20      1.0000 0.52690  0.75340  0.08550  Biso   1.000  H
  H21      1.0000 0.59990  0.85600  0.03830  Biso   1.000  H
  H22      1.0000 0.58840  0.80350  0.14500  Biso   1.000  H
  C25      1.0000 0.25260  0.92820  0.11720  Biso   1.000  C
  H23      1.0000 0.26290  0.00170  0.11400  Biso   1.000  H
  C26      1.0000 0.34370  0.85710  0.11690  Biso   1.000  C
  C27      1.0000 0.32720  0.74750  0.11930  Biso   1.000  C
  H24      1.0000 0.38590  0.69710  0.11830  Biso   1.000  H
  C28      1.0000 0.22300  0.71480  0.12330  Biso   1.000  C
  H25      1.0000 0.21080  0.64230  0.12450  Biso   1.000  H
  C29      1.0000 0.13660  0.79130  0.12540  Biso   1.000  C
  H26      1.0000 0.06650  0.76830  0.12930  Biso   1.000  H
  C30      1.0000 0.18150  0.23590  0.89210  Biso   1.000  C
  H27      1.0000 0.21710  0.28400  0.91320  Biso   1.000  H
  C31      1.0000 0.19140  0.24720  0.80130  Biso   1.000  C
  H28      1.0000 0.14840  0.20380  0.78210  Biso   1.000  H
  C32      1.0000 0.26440  0.32240  0.72980  Biso   1.000  C
  H29      1.0000 0.30580  0.36930  0.74700  Biso   1.000  H
  C33      1.0000 0.27330  0.32550  0.64050  Biso   1.000  C
  H30      1.0000 0.22550  0.28480  0.62370  Biso   1.000  H
  C34      1.0000 0.35700  0.39180  0.56580  Biso   1.000  C
  C35      1.0000 0.33560  0.07170  0.58580  Biso   1.000  C
  H31      1.0000 0.26910  0.04820  0.57520  Biso   1.000  H
  H32      1.0000 0.31870  0.10850  0.63560  Biso   1.000  H
  H33      1.0000 0.37180  0.12130  0.53030  Biso   1.000  H
  C36      1.0000 0.98660  0.97710  0.30130  Biso   1.000  C
  C37      1.0000 0.97050  0.94990  0.40440  Biso   1.000  C
  H34      1.0000 0.93440  0.88600  0.43830  Biso   1.000  H
  C38      1.0000 0.00550  0.01290  0.45010  Biso   1.000  C
  H35      1.0000 0.03920  0.07790  0.41580  Biso   1.000  H
  C39      1.0000 0.11420  0.14730  0.96080  Biso   1.000  C
  N1       1.0000 0.40960  0.67120  0.62410  Biso   1.000  N
  N2       1.0000 0.63340  0.38950  0.62500  Biso   1.000  N
  N3       1.0000 0.15050  0.89740  0.12190  Biso   1.000  N
  N4       1.0000 0.87120  0.12050  0.12780  Biso   1.000  N
  N5       1.0000 0.53610  0.08220  0.62610  Biso   1.000  N
  N6       1.0000 0.50470  0.97610  0.62940  Biso   1.000  N
  N7       1.0000 0.45770  0.99050  0.12820  Biso   1.000  N
  N8       1.0000 0.56380  0.02240  0.12460  Biso   1.000  N
  O1       1.0000 0.60900  0.58320  0.71350  Biso   1.000  O
  O2       1.0000 0.47010  0.47360  0.77640  Biso   1.000  O
  O3       1.0000 0.41160  0.45780  0.58610  Biso   1.000  O
  O4       1.0000 0.36720  0.37740  0.48530  Biso   1.000  O
  O5       1.0000 0.04230  0.05780  0.25130  Biso   1.000  O
  O6       1.0000 0.94500  0.91500  0.26460  Biso   1.000  O
  O7       1.0000 0.11240  0.13770  0.04610  Biso   1.000  O
  O8       1.0000 0.06240  0.08530  0.93360  Biso   1.000  O
  Co1      1.0000 0.52394  0.53148  0.62335  Biso   1.000  Co
  Co2      1.0000 0.01125  0.00965  0.12617  Biso   1.000  Co
  C40      1.0000 0.81630  0.31690  0.62540  Biso   1.000  C
  H36      1.0000 0.88920  0.32890  0.62370  Biso   1.000  H
  C41      1.0000 0.45400  0.47280  0.21570  Biso   1.000  C
  C42      1.0000 0.43400  0.46970  0.12310  Biso   1.000  C
  H37      1.0000 0.36850  0.44230  0.11950  Biso   1.000  H
  C43      1.0000 0.50740  0.50510  0.04510  Biso   1.000  C
  H38      1.0000 0.57030  0.53740  0.04840  Biso   1.000  H
  C44      1.0000 0.55760  0.22720  0.38420  Biso   1.000  C
  H39      1.0000 0.48330  0.21650  0.39050  Biso   1.000  H
  C45      1.0000 0.62970  0.13660  0.38370  Biso   1.000  C
  C46      1.0000 0.74030  0.15340  0.37580  Biso   1.000  C
  H40      1.0000 0.79070  0.09470  0.37680  Biso   1.000  H
  C47      1.0000 0.77430  0.25780  0.36660  Biso   1.000  C
  H41      1.0000 0.84800  0.27060  0.36080  Biso   1.000  H
  C48      1.0000 0.69770  0.34350  0.36610  Biso   1.000  C
  H42      1.0000 0.72150  0.41400  0.35860  Biso   1.000  H
  C49      1.0000 0.59100  0.02600  0.38920  Biso   1.000  C
  C50      1.0000 0.36510  0.91380  0.36290  Biso   1.000  C
  C51      1.0000 0.28570  0.00970  0.34980  Biso   1.000  C
  H43      1.0000 0.21760  0.98540  0.34310  Biso   1.000  H
  H44      1.0000 0.31530  0.06420  0.29510  Biso   1.000  H
  H45      1.0000 0.27340  0.04090  0.40290  Biso   1.000  H
  C52      1.0000 0.26010  0.59680  0.37840  Biso   1.000  C
  H46      1.0000 0.23670  0.52670  0.38360  Biso   1.000  H
  C53      1.0000 0.21740  0.78720  0.36830  Biso   1.000  C
  H47      1.0000 0.16710  0.84600  0.36540  Biso   1.000  H
  C54      1.0000 0.32680  0.80390  0.36620  Biso   1.000  C
  C55      1.0000 0.39810  0.71240  0.36870  Biso   1.000  C
  H48      1.0000 0.47170  0.72250  0.36600  Biso   1.000  H
  C56      1.0000 0.11660  0.77390  0.87450  Biso   1.000  C
  H49      1.0000 0.04670  0.75070  0.87800  Biso   1.000  H
  C57      1.0000 0.20270  0.69760  0.87190  Biso   1.000  C
  H50      1.0000 0.19090  0.62480  0.87390  Biso   1.000  H
  C58      1.0000 0.30680  0.73250  0.86620  Biso   1.000  C
  H51      1.0000 0.36620  0.68300  0.86350  Biso   1.000  H
  C59      1.0000 0.32290  0.84160  0.86460  Biso   1.000  C
  C60      1.0000 0.23030  0.91210  0.86740  Biso   1.000  C
  H52      1.0000 0.23950  0.98530  0.86570  Biso   1.000  H
  C61      1.0000 0.43310  0.88080  0.86110  Biso   1.000  C
  C62      1.0000 0.53030  0.80600  0.84280  Biso   1.000  C
  H53      1.0000 0.50650  0.73910  0.83440  Biso   1.000  H
  H54      1.0000 0.56660  0.78960  0.89470  Biso   1.000  H
  H55      1.0000 0.58010  0.84140  0.78770  Biso   1.000  H
  C63      1.0000 0.54610  0.10520  0.88630  Biso   1.000  C
  C64      1.0000 0.44900  0.17980  0.90620  Biso   1.000  C
  H56      1.0000 0.47310  0.24660  0.91450  Biso   1.000  H
  H57      1.0000 0.40010  0.14400  0.96170  Biso   1.000  H
  H58      1.0000 0.41160  0.19650  0.85500  Biso   1.000  H
  C65      1.0000 0.74740  0.07180  0.88280  Biso   1.000  C
  H59      1.0000 0.73710  0.99830  0.88600  Biso   1.000  H
  C66      1.0000 0.65630  0.14290  0.88310  Biso   1.000  C
  C67      1.0000 0.67280  0.25250  0.88070  Biso   1.000  C
  H60      1.0000 0.61410  0.30290  0.88170  Biso   1.000  H
  C68      1.0000 0.77700  0.28520  0.87670  Biso   1.000  C
  H61      1.0000 0.78920  0.35770  0.87550  Biso   1.000  H
  C69      1.0000 0.86340  0.20870  0.87460  Biso   1.000  C
  H62      1.0000 0.93350  0.23170  0.87070  Biso   1.000  H
  C70      1.0000 0.81850  0.76410  0.10790  Biso   1.000  C
  H63      1.0000 0.78290  0.71600  0.08680  Biso   1.000  H
  C71      1.0000 0.80860  0.75280  0.19870  Biso   1.000  C
  H64      1.0000 0.85160  0.79620  0.21790  Biso   1.000  H
  C72      1.0000 0.73560  0.67760  0.27020  Biso   1.000  C
  H65      1.0000 0.69420  0.63070  0.25300  Biso   1.000  H
  C73      1.0000 0.72670  0.67450  0.35950  Biso   1.000  C
  H66      1.0000 0.77450  0.71520  0.37630  Biso   1.000  H
  C74      1.0000 0.64300  0.60820  0.43420  Biso   1.000  C
  C75      1.0000 0.66440  0.92830  0.41420  Biso   1.000  C
  H67      1.0000 0.73090  0.95180  0.42480  Biso   1.000  H
  H68      1.0000 0.68130  0.89150  0.36440  Biso   1.000  H
  H69      1.0000 0.62820  0.87870  0.46970  Biso   1.000  H
  C76      1.0000 0.01340  0.02290  0.69870  Biso   1.000  C
  C77      1.0000 0.02950  0.05010  0.59560  Biso   1.000  C
  H70      1.0000 0.06560  0.11400  0.56170  Biso   1.000  H
  C78      1.0000 0.99450  0.98710  0.54990  Biso   1.000  C
  H71      1.0000 0.96080  0.92210  0.58420  Biso   1.000  H
  C79      1.0000 0.88580  0.85270  0.03920  Biso   1.000  C
  N9       1.0000 0.59040  0.32880  0.37590  Biso   1.000  N
  N10      1.0000 0.36660  0.61050  0.37500  Biso   1.000  N
  N11      1.0000 0.84950  0.10260  0.87810  Biso   1.000  N
  N12      1.0000 0.12880  0.87950  0.87220  Biso   1.000  N
  N13      1.0000 0.46390  0.91780  0.37390  Biso   1.000  N
  N14      1.0000 0.49530  0.02390  0.37060  Biso   1.000  N
  N15      1.0000 0.54230  0.00950  0.87180  Biso   1.000  N
  N16      1.0000 0.43620  0.97760  0.87540  Biso   1.000  N
  O9       1.0000 0.39100  0.41680  0.28650  Biso   1.000  O
  O10      1.0000 0.52990  0.52640  0.22360  Biso   1.000  O
  O11      1.0000 0.58840  0.54220  0.41390  Biso   1.000  O
  O12      1.0000 0.63280  0.62260  0.51470  Biso   1.000  O
  O13      1.0000 0.95770  0.94220  0.74870  Biso   1.000  O
  O14      1.0000 0.05500  0.08500  0.73540  Biso   1.000  O
  O15      1.0000 0.88760  0.86230  0.95390  Biso   1.000  O
  O16      1.0000 0.93760  0.91470  0.06640  Biso   1.000  O
  Co3      1.0000 0.47606  0.46852  0.37665  Biso   1.000  Co
  Co4      1.0000 0.98875  0.99035  0.87383  Biso   1.000  Co
  C80      1.0000 0.18370  0.68310  0.37460  Biso   1.000  C
  H72      1.0000 0.11080  0.67110  0.37630  Biso   1.000  H
