data_image0
_cell_length_a       9.998
_cell_length_b       16.216
_cell_length_c       16.663
_cell_angle_alpha    94.899
_cell_angle_beta     102.41
_cell_angle_gamma    96.101

_symmetry_space_group_name_H-M    P 1
_symmetry_int_tables_number       1

loop_
  _symmetry_equiv_pos_as_xyz
  'x, y, z'

loop_
  _atom_site_label
  _atom_site_occupancy
  _atom_site_fract_x
  _atom_site_fract_y
  _atom_site_fract_z
  _atom_site_thermal_displace_type
  _atom_site_B_iso_or_equiv
  _atom_site_type_symbol
  Na1      1.0000 0.11060  0.94620  0.45250  Biso   1.000  Na
  Na2      1.0000 0.47270  0.10400  0.54180  Biso   1.000  Na
  Na3      1.0000 0.25200  0.15610  0.86320  Biso   1.000  Na
  Na4      1.0000 0.88940  0.05380  0.54750  Biso   1.000  Na
  Na5      1.0000 0.52730  0.89600  0.45820  Biso   1.000  Na
  Na6      1.0000 0.74800  0.84390  0.13680  Biso   1.000  Na
  H1       1.0000 0.71700  0.50160  0.15670  Biso   1.000  H
  H2       1.0000 0.34420  0.58550  0.15320  Biso   1.000  H
  H3       1.0000 0.94150  0.24610  0.23390  Biso   1.000  H
  H4       1.0000 0.11840  0.48340  0.20580  Biso   1.000  H
  H5       1.0000 0.28870  0.94890  0.11710  Biso   1.000  H
  H6       1.0000 0.95990  0.04220  0.18250  Biso   1.000  H
  H7       1.0000 0.50420  0.04330  0.17090  Biso   1.000  H
  H8       1.0000 0.71330  0.28740  0.20810  Biso   1.000  H
  H9       1.0000 0.93610  0.50760  0.28140  Biso   1.000  H
  H10      1.0000 0.83890  0.43850  0.30680  Biso   1.000  H
  H11      1.0000 0.95420  0.50230  0.38730  Biso   1.000  H
  H12      1.0000 0.16580  0.49200  0.41380  Biso   1.000  H
  H13      1.0000 0.24920  0.42790  0.38090  Biso   1.000  H
  H14      1.0000 0.20660  0.50100  0.33090  Biso   1.000  H
  H15      1.0000 0.92130  0.31310  0.35930  Biso   1.000  H
  H16      1.0000 0.02620  0.37620  0.44050  Biso   1.000  H
  H17      1.0000 0.07690  0.30230  0.37850  Biso   1.000  H
  H18      1.0000 0.84380  0.25730  0.90500  Biso   1.000  H
  H19      1.0000 0.87910  0.35760  0.93840  Biso   1.000  H
  H20      1.0000 0.12620  0.33410  0.81170  Biso   1.000  H
  H21      1.0000 0.26210  0.35270  0.98070  Biso   1.000  H
  H22      1.0000 0.07040  0.18750  0.98570  Biso   1.000  H
  H23      1.0000 0.48130  0.26060  0.95890  Biso   1.000  H
  H24      1.0000 0.89850  0.80090  0.40230  Biso   1.000  H
  H25      1.0000 0.90580  0.86200  0.31840  Biso   1.000  H
  H26      1.0000 0.89470  0.88180  0.54790  Biso   1.000  H
  H27      1.0000 0.03670  0.91390  0.61190  Biso   1.000  H
  H28      1.0000 0.29000  0.00210  0.60290  Biso   1.000  H
  H29      1.0000 0.22330  0.06610  0.58570  Biso   1.000  H
  H30      1.0000 0.35730  0.00520  0.37530  Biso   1.000  H
  H31      1.0000 0.47100  0.04910  0.37390  Biso   1.000  H
  H32      1.0000 0.62630  0.16610  0.71290  Biso   1.000  H
  H33      1.0000 0.51940  0.22680  0.69350  Biso   1.000  H
  H34      1.0000 0.26260  0.80270  0.44700  Biso   1.000  H
  H35      1.0000 0.29380  0.82070  0.53020  Biso   1.000  H
  H36      1.0000 0.24630  0.23980  0.51470  Biso   1.000  H
  H37      1.0000 0.31840  0.23250  0.44810  Biso   1.000  H
  H38      1.0000 0.41590  0.11550  0.74140  Biso   1.000  H
  H39      1.0000 0.34870  0.03850  0.72920  Biso   1.000  H
  H40      1.0000 0.28300  0.49840  0.84330  Biso   1.000  H
  H41      1.0000 0.65580  0.41450  0.84680  Biso   1.000  H
  H42      1.0000 0.05850  0.75390  0.76610  Biso   1.000  H
  H43      1.0000 0.88160  0.51660  0.79420  Biso   1.000  H
  H44      1.0000 0.71130  0.05110  0.88290  Biso   1.000  H
  H45      1.0000 0.04010  0.95780  0.81750  Biso   1.000  H
  H46      1.0000 0.49580  0.95670  0.82910  Biso   1.000  H
  H47      1.0000 0.28670  0.71260  0.79190  Biso   1.000  H
  H48      1.0000 0.06390  0.49240  0.71860  Biso   1.000  H
  H49      1.0000 0.16110  0.56150  0.69320  Biso   1.000  H
  H50      1.0000 0.04580  0.49770  0.61270  Biso   1.000  H
  H51      1.0000 0.83420  0.50800  0.58620  Biso   1.000  H
  H52      1.0000 0.75080  0.57210  0.61910  Biso   1.000  H
  H53      1.0000 0.79340  0.49900  0.66910  Biso   1.000  H
  H54      1.0000 0.07870  0.68690  0.64070  Biso   1.000  H
  H55      1.0000 0.97380  0.62380  0.55950  Biso   1.000  H
  H56      1.0000 0.92310  0.69770  0.62150  Biso   1.000  H
  H57      1.0000 0.15620  0.74270  0.09500  Biso   1.000  H
  H58      1.0000 0.12090  0.64240  0.06160  Biso   1.000  H
  H59      1.0000 0.87380  0.66590  0.18830  Biso   1.000  H
  H60      1.0000 0.73790  0.64730  0.01930  Biso   1.000  H
  H61      1.0000 0.92960  0.81250  0.01430  Biso   1.000  H
  H62      1.0000 0.51870  0.73940  0.04110  Biso   1.000  H
  H63      1.0000 0.10150  0.19910  0.59770  Biso   1.000  H
  H64      1.0000 0.09420  0.13800  0.68160  Biso   1.000  H
  H65      1.0000 0.10530  0.11820  0.45210  Biso   1.000  H
  H66      1.0000 0.96330  0.08610  0.38810  Biso   1.000  H
  H67      1.0000 0.71000  0.99790  0.39710  Biso   1.000  H
  H68      1.0000 0.77670  0.93390  0.41430  Biso   1.000  H
  H69      1.0000 0.64270  0.99480  0.62470  Biso   1.000  H
  H70      1.0000 0.52900  0.95090  0.62610  Biso   1.000  H
  H71      1.0000 0.37370  0.83390  0.28710  Biso   1.000  H
  H72      1.0000 0.48060  0.77320  0.30650  Biso   1.000  H
  H73      1.0000 0.73740  0.19730  0.55300  Biso   1.000  H
  H74      1.0000 0.70620  0.17930  0.46980  Biso   1.000  H
  H75      1.0000 0.75370  0.76020  0.48530  Biso   1.000  H
  H76      1.0000 0.68160  0.76750  0.55190  Biso   1.000  H
  H77      1.0000 0.58410  0.88450  0.25860  Biso   1.000  H
  H78      1.0000 0.65130  0.96150  0.27080  Biso   1.000  H
  C1       1.0000 0.40610  0.41640  0.05790  Biso   1.000  C
  C2       1.0000 0.54910  0.42520  0.08800  Biso   1.000  C
  C3       1.0000 0.61610  0.49640  0.14040  Biso   1.000  C
  C4       1.0000 0.53960  0.55770  0.16300  Biso   1.000  C
  C5       1.0000 0.39800  0.54880  0.13460  Biso   1.000  C
  C6       1.0000 0.33030  0.47860  0.08130  Biso   1.000  C
  C7       1.0000 0.03000  0.31960  0.07010  Biso   1.000  C
  C8       1.0000 0.98270  0.26510  0.12120  Biso   1.000  C
  C9       1.0000 0.99080  0.29260  0.20390  Biso   1.000  C
  C10      1.0000 0.03990  0.37560  0.23590  Biso   1.000  C
  C11      1.0000 0.08560  0.42870  0.18350  Biso   1.000  C
  C12      1.0000 0.08420  0.40140  0.10210  Biso   1.000  C
  C13      1.0000 0.12690  0.09490  0.04560  Biso   1.000  C
  C14      1.0000 0.22250  0.03770  0.05790  Biso   1.000  C
  C15      1.0000 0.21480  0.97980  0.11460  Biso   1.000  C
  C16      1.0000 0.11580  0.98110  0.16070  Biso   1.000  C
  C17      1.0000 0.02330  0.03990  0.15140  Biso   1.000  C
  C18      1.0000 0.02830  0.09640  0.09460  Biso   1.000  C
  C19      1.0000 0.51200  0.19440  0.03760  Biso   1.000  C
  C20      1.0000 0.47530  0.11860  0.06630  Biso   1.000  C
  C21      1.0000 0.53250  0.10460  0.14680  Biso   1.000  C
  C22      1.0000 0.62260  0.16670  0.19940  Biso   1.000  C
  C23      1.0000 0.65470  0.24370  0.17270  Biso   1.000  C
  C24      1.0000 0.59990  0.25740  0.09180  Biso   1.000  C
  C25      1.0000 0.92030  0.30880  0.92630  Biso   1.000  C
  C26      1.0000 0.97200  0.32930  0.85130  Biso   1.000  C
  C27      1.0000 0.04070  0.41000  0.32460  Biso   1.000  C
  C28      1.0000 0.92960  0.46790  0.32080  Biso   1.000  C
  C29      1.0000 0.17800  0.46180  0.36630  Biso   1.000  C
  C30      1.0000 0.01200  0.34240  0.37810  Biso   1.000  C
  C31      1.0000 0.59390  0.58360  0.94210  Biso   1.000  C
  C32      1.0000 0.45090  0.57480  0.91200  Biso   1.000  C
  C33      1.0000 0.38390  0.50360  0.85960  Biso   1.000  C
  C34      1.0000 0.46040  0.44230  0.83700  Biso   1.000  C
  C35      1.0000 0.60200  0.45120  0.86540  Biso   1.000  C
  C36      1.0000 0.66970  0.52140  0.91870  Biso   1.000  C
  C37      1.0000 0.97000  0.68040  0.92990  Biso   1.000  C
  C38      1.0000 0.01730  0.73490  0.87880  Biso   1.000  C
  C39      1.0000 0.00920  0.70740  0.79610  Biso   1.000  C
  C40      1.0000 0.96010  0.62440  0.76410  Biso   1.000  C
  C41      1.0000 0.91440  0.57130  0.81650  Biso   1.000  C
  C42      1.0000 0.91580  0.59860  0.89790  Biso   1.000  C
  C43      1.0000 0.87310  0.90510  0.95440  Biso   1.000  C
  C44      1.0000 0.77750  0.96230  0.94210  Biso   1.000  C
  C45      1.0000 0.78520  0.02020  0.88540  Biso   1.000  C
  C46      1.0000 0.88420  0.01890  0.83930  Biso   1.000  C
  C47      1.0000 0.97670  0.96010  0.84860  Biso   1.000  C
  C48      1.0000 0.97170  0.90360  0.90540  Biso   1.000  C
  C49      1.0000 0.48800  0.80560  0.96240  Biso   1.000  C
  C50      1.0000 0.52470  0.88140  0.93370  Biso   1.000  C
  C51      1.0000 0.46750  0.89540  0.85320  Biso   1.000  C
  C52      1.0000 0.37740  0.83330  0.80060  Biso   1.000  C
  C53      1.0000 0.34530  0.75630  0.82730  Biso   1.000  C
  C54      1.0000 0.40010  0.74260  0.90820  Biso   1.000  C
  C55      1.0000 0.07970  0.69120  0.07370  Biso   1.000  C
  C56      1.0000 0.02800  0.67070  0.14870  Biso   1.000  C
  C57      1.0000 0.95930  0.59000  0.67540  Biso   1.000  C
  C58      1.0000 0.07040  0.53210  0.67920  Biso   1.000  C
  C59      1.0000 0.82200  0.53820  0.63370  Biso   1.000  C
  C60      1.0000 0.98800  0.65760  0.62190  Biso   1.000  C
  S1       1.0000 0.15080  0.47049  0.03755  Biso   1.000  S
  S2       1.0000 0.89670  0.16352  0.07665  Biso   1.000  S
  S3       1.0000 0.35390  0.03806  0.00084  Biso   1.000  S
  S4       1.0000 0.65310  0.35281  0.05419  Biso   1.000  S
  S5       1.0000 0.10900  0.90879  0.23485  Biso   1.000  S
  S6       1.0000 0.70300  0.14630  0.30027  Biso   1.000  S
  S7       1.0000 0.62330  0.65032  0.22691  Biso   1.000  S
  S8       1.0000 0.84920  0.52951  0.96245  Biso   1.000  S
  S9       1.0000 0.10330  0.83648  0.92335  Biso   1.000  S
  S10      1.0000 0.64610  0.96194  0.99916  Biso   1.000  S
  S11      1.0000 0.34690  0.64719  0.94581  Biso   1.000  S
  S12      1.0000 0.89100  0.09121  0.76515  Biso   1.000  S
  S13      1.0000 0.29700  0.85370  0.69973  Biso   1.000  S
  S14      1.0000 0.37670  0.34968  0.77309  Biso   1.000  S
  O1       1.0000 0.34630  0.34760  0.00680  Biso   1.000  O
  O2       1.0000 0.03190  0.29100  0.98990  Biso   1.000  O
  O3       1.0000 0.13760  0.14800  0.98850  Biso   1.000  O
  O4       1.0000 0.46190  0.20250  0.95690  Biso   1.000  O
  O5       1.0000 0.89810  0.35420  0.79360  Biso   1.000  O
  O6       1.0000 0.10150  0.31740  0.85550  Biso   1.000  O
  O7       1.0000 0.96380  0.87560  0.22150  Biso   1.000  O
  O8       1.0000 0.16020  0.95550  0.31650  Biso   1.000  O
  O9       1.0000 0.19470  0.84630  0.21690  Biso   1.000  O
  O10      1.0000 0.62520  0.06830  0.31340  Biso   1.000  O
  O11      1.0000 0.68900  0.21570  0.35640  Biso   1.000  O
  O12      1.0000 0.84440  0.13560  0.29830  Biso   1.000  O
  O13      1.0000 0.76620  0.63470  0.25720  Biso   1.000  O
  O14      1.0000 0.55080  0.66150  0.29220  Biso   1.000  O
  O15      1.0000 0.61520  0.71700  0.17440  Biso   1.000  O
  O16      1.0000 0.90450  0.86390  0.37780  Biso   1.000  O
  O17      1.0000 0.97580  0.91820  0.56220  Biso   1.000  O
  O18      1.0000 0.26490  0.03170  0.56430  Biso   1.000  O
  O19      1.0000 0.43020  0.02290  0.40730  Biso   1.000  O
  O20      1.0000 0.54030  0.17240  0.68300  Biso   1.000  O
  O21      1.0000 0.29220  0.84800  0.47990  Biso   1.000  O
  O22      1.0000 0.29160  0.20190  0.49400  Biso   1.000  O
  O23      1.0000 0.36440  0.08840  0.77790  Biso   1.000  O
  O24      1.0000 0.65370  0.65240  0.99320  Biso   1.000  O
  O25      1.0000 0.96810  0.70900  0.01010  Biso   1.000  O
  O26      1.0000 0.86240  0.85200  0.01150  Biso   1.000  O
  O27      1.0000 0.53810  0.79750  0.04310  Biso   1.000  O
  O28      1.0000 0.10190  0.64580  0.20640  Biso   1.000  O
  O29      1.0000 0.89850  0.68260  0.14450  Biso   1.000  O
  O30      1.0000 0.03620  0.12440  0.77850  Biso   1.000  O
  O31      1.0000 0.83980  0.04450  0.68350  Biso   1.000  O
  O32      1.0000 0.80530  0.15370  0.78310  Biso   1.000  O
  O33      1.0000 0.37480  0.93170  0.68660  Biso   1.000  O
  O34      1.0000 0.31100  0.78430  0.64360  Biso   1.000  O
  O35      1.0000 0.15560  0.86440  0.70170  Biso   1.000  O
  O36      1.0000 0.23380  0.36530  0.74280  Biso   1.000  O
  O37      1.0000 0.44920  0.33850  0.70780  Biso   1.000  O
  O38      1.0000 0.38480  0.28300  0.82560  Biso   1.000  O
  O39      1.0000 0.09550  0.13610  0.62220  Biso   1.000  O
  O40      1.0000 0.02420  0.08180  0.43780  Biso   1.000  O
  O41      1.0000 0.73510  0.96830  0.43570  Biso   1.000  O
  O42      1.0000 0.56980  0.97710  0.59270  Biso   1.000  O
  O43      1.0000 0.45970  0.82760  0.31700  Biso   1.000  O
  O44      1.0000 0.70780  0.15200  0.52010  Biso   1.000  O
  O45      1.0000 0.70840  0.79810  0.50600  Biso   1.000  O
  O46      1.0000 0.63560  0.91160  0.22210  Biso   1.000  O
