data_image0
_cell_length_a       14.595
_cell_length_b       13.344
_cell_length_c       21.324
_cell_angle_alpha    90
_cell_angle_beta     90
_cell_angle_gamma    90

_symmetry_space_group_name_H-M    "P 1"
_symmetry_int_tables_number       1

loop_
  _symmetry_equiv_pos_as_xyz
  'x, y, z'

loop_
  _atom_site_label
  _atom_site_occupancy
  _atom_site_fract_x
  _atom_site_fract_y
  _atom_site_fract_z
  _atom_site_thermal_displace_type
  _atom_site_B_iso_or_equiv
  _atom_site_type_symbol
  Co1      1.0000 0.09905  0.40427  0.90874  Biso   1.000  Co
  Co2      1.0000 0.90380  0.34814  0.04035  Biso   1.000  Co
  O1       1.0000 0.13390  0.40420  0.99950  Biso   1.000  O
  O2       1.0000 0.87090  0.35010  0.14350  Biso   1.000  O
  O3       1.0000 0.25900  0.39210  0.37880  Biso   1.000  O
  O4       1.0000 0.03460  0.33800  0.06590  Biso   1.000  O
  O5       1.0000 0.36370  0.40580  0.30880  Biso   1.000  O
  O6       1.0000 0.63110  0.34010  0.44990  Biso   1.000  O
  O7       1.0000 0.53360  0.40710  0.38150  Biso   1.000  O
  N1       1.0000 0.09580  0.56320  0.91070  Biso   1.000  N
  C1       1.0000 0.67630  0.35570  0.34520  Biso   1.000  C
  H1       1.0000 0.73500  0.33630  0.35700  Biso   1.000  H
  C2       1.0000 0.09170  0.77230  0.91840  Biso   1.000  C
  O8       1.0000 0.76490  0.35700  0.07060  Biso   1.000  O
  N2       1.0000 0.91300  0.51020  0.03730  Biso   1.000  N
  C3       1.0000 0.91780  0.71740  0.04150  Biso   1.000  C
  N3       1.0000 0.09530  0.23900  0.90910  Biso   1.000  N
  C4       1.0000 0.73040  0.35670  0.23690  Biso   1.000  C
  H2       1.0000 0.78970  0.34050  0.24920  Biso   1.000  H
  C5       1.0000 0.66100  0.36900  0.28540  Biso   1.000  C
  H3       1.0000 0.60230  0.38750  0.27310  Biso   1.000  H
  C6       1.0000 0.78520  0.35530  0.12770  Biso   1.000  C
  N4       1.0000 0.90360  0.18300  0.03870  Biso   1.000  N
  C7       1.0000 0.16220  0.37450  0.16370  Biso   1.000  C
  H4       1.0000 0.10190  0.36050  0.17460  Biso   1.000  H
  C8       1.0000 0.13620  0.71930  0.96000  Biso   1.000  C
  H5       1.0000 0.16910  0.75190  0.99130  Biso   1.000  H
  C9       1.0000 0.11060  0.37550  0.05280  Biso   1.000  C
  C10      1.0000 0.13540  0.61730  0.95850  Biso   1.000  C
  H6       1.0000 0.16290  0.58260  0.99120  Biso   1.000  H
  C11      1.0000 0.22840  0.38270  0.21350  Biso   1.000  C
  H7       1.0000 0.28940  0.38910  0.20160  Biso   1.000  H
  C12      1.0000 0.95720  0.66140  0.08610  Biso   1.000  C
  H8       1.0000 0.98540  0.69260  0.12000  Biso   1.000  H
  C13      1.0000 0.71330  0.36750  0.17530  Biso   1.000  C
  H9       1.0000 0.65420  0.38310  0.16250  Biso   1.000  H
  C14      1.0000 0.21200  0.38210  0.27200  Biso   1.000  C
  H10      1.0000 0.15140  0.37420  0.28440  Biso   1.000  H
  C15      1.0000 0.28330  0.39330  0.32340  Biso   1.000  C
  C16      1.0000 0.60760  0.36890  0.39580  Biso   1.000  C
  C17      1.0000 0.87240  0.66510  0.99300  Biso   1.000  C
  H11      1.0000 0.84320  0.70080  0.96130  Biso   1.000  H
  C18      1.0000 0.87080  0.56430  0.99180  Biso   1.000  C
  H12      1.0000 0.84050  0.53140  0.95950  Biso   1.000  H
  C19      1.0000 0.04850  0.61550  0.86770  Biso   1.000  C
  H13      1.0000 0.01410  0.58120  0.83790  Biso   1.000  H
  C20      1.0000 0.18140  0.38540  0.10320  Biso   1.000  C
  H14      1.0000 0.24140  0.39990  0.09170  Biso   1.000  H
  C21      1.0000 0.95660  0.55950  0.08250  Biso   1.000  C
  H15      1.0000 0.98790  0.52300  0.11290  Biso   1.000  H
  C22      1.0000 0.04990  0.72110  0.86660  Biso   1.000  C
  H16      1.0000 0.02450  0.75650  0.83330  Biso   1.000  H
  C23      1.0000 0.86830  0.13350  0.99590  Biso   1.000  C
  H17      1.0000 0.83130  0.16760  0.96750  Biso   1.000  H
  C24      1.0000 0.12500  0.07730  0.95400  Biso   1.000  C
  H18      1.0000 0.14700  0.04160  0.98820  Biso   1.000  H
  C25      1.0000 0.93960  0.13300  0.08330  Biso   1.000  C
  H19      1.0000 0.96250  0.16540  0.11860  Biso   1.000  H
  C26      1.0000 0.13390  0.18650  0.95310  Biso   1.000  C
  H20      1.0000 0.16760  0.21850  0.98420  Biso   1.000  H
  C27      1.0000 0.04760  0.19080  0.86370  Biso   1.000  C
  H21      1.0000 0.01780  0.22800  0.83300  Biso   1.000  H
  C28      1.0000 0.04200  0.08500  0.86210  Biso   1.000  C
  H22      1.0000 0.01000  0.05220  0.83060  Biso   1.000  H
  C29      1.0000 0.08760  0.03060  0.90980  Biso   1.000  C
  N5       1.0000 0.93090  0.84000  0.05990  Biso   1.000  N
  C30      1.0000 0.87900  0.03240  0.98720  Biso   1.000  C
  H23      1.0000 0.86760  0.00370  0.94830  Biso   1.000  H
  C31      1.0000 0.94400  0.02620  0.07820  Biso   1.000  C
  H24      1.0000 0.97690  0.99170  0.10880  Biso   1.000  H
  C32      1.0000 0.90710  0.97560  0.03540  Biso   1.000  C
  N6       1.0000 0.89130  0.86110  0.01760  Biso   1.000  N
  N7       1.0000 0.10090  0.89430  0.92920  Biso   1.000  N
  N8       1.0000 0.06400  0.91700  0.88730  Biso   1.000  N
  Co3      1.0000 0.40095  0.40427  0.40874  Biso   1.000  Co
  Co4      1.0000 0.59620  0.34814  0.54035  Biso   1.000  Co
  O9       1.0000 0.36610  0.40420  0.49950  Biso   1.000  O
  O10      1.0000 0.62910  0.35010  0.64350  Biso   1.000  O
  O11      1.0000 0.24100  0.39210  0.87880  Biso   1.000  O
  O12      1.0000 0.46540  0.33800  0.56590  Biso   1.000  O
  O13      1.0000 0.13630  0.40580  0.80880  Biso   1.000  O
  O14      1.0000 0.86890  0.34010  0.94990  Biso   1.000  O
  O15      1.0000 0.96640  0.40710  0.88150  Biso   1.000  O
  N9       1.0000 0.40420  0.56320  0.41070  Biso   1.000  N
  C33      1.0000 0.82370  0.35570  0.84520  Biso   1.000  C
  H25      1.0000 0.76500  0.33630  0.85700  Biso   1.000  H
  C34      1.0000 0.40830  0.77230  0.41840  Biso   1.000  C
  O16      1.0000 0.73510  0.35700  0.57060  Biso   1.000  O
  N10      1.0000 0.58700  0.51020  0.53730  Biso   1.000  N
  C35      1.0000 0.58220  0.71740  0.54150  Biso   1.000  C
  N11      1.0000 0.40470  0.23900  0.40910  Biso   1.000  N
  C36      1.0000 0.76960  0.35670  0.73690  Biso   1.000  C
  H26      1.0000 0.71030  0.34050  0.74920  Biso   1.000  H
  C37      1.0000 0.83900  0.36900  0.78540  Biso   1.000  C
  H27      1.0000 0.89770  0.38750  0.77310  Biso   1.000  H
  C38      1.0000 0.71480  0.35530  0.62770  Biso   1.000  C
  N12      1.0000 0.59640  0.18300  0.53870  Biso   1.000  N
  C39      1.0000 0.33780  0.37450  0.66370  Biso   1.000  C
  H28      1.0000 0.39810  0.36050  0.67460  Biso   1.000  H
  C40      1.0000 0.36380  0.71930  0.46000  Biso   1.000  C
  H29      1.0000 0.33090  0.75190  0.49130  Biso   1.000  H
  C41      1.0000 0.38940  0.37550  0.55280  Biso   1.000  C
  C42      1.0000 0.36460  0.61730  0.45850  Biso   1.000  C
  H30      1.0000 0.33710  0.58260  0.49120  Biso   1.000  H
  C43      1.0000 0.27160  0.38270  0.71350  Biso   1.000  C
  H31      1.0000 0.21060  0.38910  0.70160  Biso   1.000  H
  C44      1.0000 0.54280  0.66140  0.58610  Biso   1.000  C
  H32      1.0000 0.51460  0.69260  0.62000  Biso   1.000  H
  C45      1.0000 0.78670  0.36750  0.67530  Biso   1.000  C
  H33      1.0000 0.84580  0.38310  0.66250  Biso   1.000  H
  C46      1.0000 0.28800  0.38210  0.77200  Biso   1.000  C
  H34      1.0000 0.34860  0.37420  0.78440  Biso   1.000  H
  C47      1.0000 0.21670  0.39330  0.82340  Biso   1.000  C
  C48      1.0000 0.89240  0.36890  0.89580  Biso   1.000  C
  C49      1.0000 0.62760  0.66510  0.49300  Biso   1.000  C
  H35      1.0000 0.65680  0.70080  0.46130  Biso   1.000  H
  C50      1.0000 0.62920  0.56430  0.49180  Biso   1.000  C
  H36      1.0000 0.65950  0.53140  0.45950  Biso   1.000  H
  C51      1.0000 0.45150  0.61550  0.36770  Biso   1.000  C
  H37      1.0000 0.48590  0.58120  0.33790  Biso   1.000  H
  C52      1.0000 0.31860  0.38540  0.60320  Biso   1.000  C
  H38      1.0000 0.25860  0.39990  0.59170  Biso   1.000  H
  C53      1.0000 0.54340  0.55950  0.58250  Biso   1.000  C
  H39      1.0000 0.51210  0.52300  0.61290  Biso   1.000  H
  C54      1.0000 0.45010  0.72110  0.36660  Biso   1.000  C
  H40      1.0000 0.47550  0.75650  0.33330  Biso   1.000  H
  C55      1.0000 0.63170  0.13350  0.49590  Biso   1.000  C
  H41      1.0000 0.66870  0.16760  0.46750  Biso   1.000  H
  C56      1.0000 0.37500  0.07730  0.45400  Biso   1.000  C
  H42      1.0000 0.35300  0.04160  0.48820  Biso   1.000  H
  C57      1.0000 0.56040  0.13300  0.58330  Biso   1.000  C
  H43      1.0000 0.53750  0.16540  0.61860  Biso   1.000  H
  C58      1.0000 0.36610  0.18650  0.45310  Biso   1.000  C
  H44      1.0000 0.33240  0.21850  0.48420  Biso   1.000  H
  C59      1.0000 0.45240  0.19080  0.36370  Biso   1.000  C
  H45      1.0000 0.48220  0.22800  0.33300  Biso   1.000  H
  C60      1.0000 0.45800  0.08500  0.36210  Biso   1.000  C
  H46      1.0000 0.49000  0.05220  0.33060  Biso   1.000  H
  C61      1.0000 0.41240  0.03060  0.40980  Biso   1.000  C
  N13      1.0000 0.56910  0.84000  0.55990  Biso   1.000  N
  C62      1.0000 0.62100  0.03240  0.48720  Biso   1.000  C
  H47      1.0000 0.63240  0.00370  0.44830  Biso   1.000  H
  C63      1.0000 0.55600  0.02620  0.57820  Biso   1.000  C
  H48      1.0000 0.52310  0.99170  0.60880  Biso   1.000  H
  C64      1.0000 0.59290  0.97560  0.53540  Biso   1.000  C
  N14      1.0000 0.60870  0.86110  0.51760  Biso   1.000  N
  N15      1.0000 0.39910  0.89430  0.42920  Biso   1.000  N
  N16      1.0000 0.43600  0.91700  0.38730  Biso   1.000  N
  Co5      1.0000 0.90095  0.59573  0.40874  Biso   1.000  Co
  Co6      1.0000 0.09620  0.65186  0.54035  Biso   1.000  Co
  O17      1.0000 0.86610  0.59580  0.49950  Biso   1.000  O
  O18      1.0000 0.12910  0.64990  0.64350  Biso   1.000  O
  O19      1.0000 0.74100  0.60790  0.87880  Biso   1.000  O
  O20      1.0000 0.96540  0.66200  0.56590  Biso   1.000  O
  O21      1.0000 0.63630  0.59420  0.80880  Biso   1.000  O
  O22      1.0000 0.36890  0.65990  0.94990  Biso   1.000  O
  O23      1.0000 0.46640  0.59290  0.88150  Biso   1.000  O
  N17      1.0000 0.90420  0.43680  0.41070  Biso   1.000  N
  C65      1.0000 0.32370  0.64430  0.84520  Biso   1.000  C
  H49      1.0000 0.26500  0.66370  0.85700  Biso   1.000  H
  C66      1.0000 0.90830  0.22770  0.41840  Biso   1.000  C
  O24      1.0000 0.23510  0.64300  0.57060  Biso   1.000  O
  N18      1.0000 0.08700  0.48980  0.53730  Biso   1.000  N
  C67      1.0000 0.08220  0.28260  0.54150  Biso   1.000  C
  N19      1.0000 0.90470  0.76100  0.40910  Biso   1.000  N
  C68      1.0000 0.26960  0.64330  0.73690  Biso   1.000  C
  H50      1.0000 0.21030  0.65950  0.74920  Biso   1.000  H
  C69      1.0000 0.33900  0.63100  0.78540  Biso   1.000  C
  H51      1.0000 0.39770  0.61250  0.77310  Biso   1.000  H
  C70      1.0000 0.21480  0.64470  0.62770  Biso   1.000  C
  N20      1.0000 0.09640  0.81700  0.53870  Biso   1.000  N
  C71      1.0000 0.83780  0.62550  0.66370  Biso   1.000  C
  H52      1.0000 0.89810  0.63950  0.67460  Biso   1.000  H
  C72      1.0000 0.86380  0.28070  0.46000  Biso   1.000  C
  H53      1.0000 0.83090  0.24810  0.49130  Biso   1.000  H
  C73      1.0000 0.88940  0.62450  0.55280  Biso   1.000  C
  C74      1.0000 0.86460  0.38270  0.45850  Biso   1.000  C
  H54      1.0000 0.83710  0.41740  0.49120  Biso   1.000  H
  C75      1.0000 0.77160  0.61730  0.71350  Biso   1.000  C
  H55      1.0000 0.71060  0.61090  0.70160  Biso   1.000  H
  C76      1.0000 0.04280  0.33860  0.58610  Biso   1.000  C
  H56      1.0000 0.01460  0.30740  0.62000  Biso   1.000  H
  C77      1.0000 0.28670  0.63250  0.67530  Biso   1.000  C
  H57      1.0000 0.34580  0.61690  0.66250  Biso   1.000  H
  C78      1.0000 0.78800  0.61790  0.77200  Biso   1.000  C
  H58      1.0000 0.84860  0.62580  0.78440  Biso   1.000  H
  C79      1.0000 0.71670  0.60670  0.82340  Biso   1.000  C
  C80      1.0000 0.39240  0.63110  0.89580  Biso   1.000  C
  C81      1.0000 0.12760  0.33490  0.49300  Biso   1.000  C
  H59      1.0000 0.15680  0.29920  0.46130  Biso   1.000  H
  C82      1.0000 0.12920  0.43570  0.49180  Biso   1.000  C
  H60      1.0000 0.15950  0.46860  0.45950  Biso   1.000  H
  C83      1.0000 0.95150  0.38450  0.36770  Biso   1.000  C
  H61      1.0000 0.98590  0.41880  0.33790  Biso   1.000  H
  C84      1.0000 0.81860  0.61460  0.60320  Biso   1.000  C
  H62      1.0000 0.75860  0.60010  0.59170  Biso   1.000  H
  C85      1.0000 0.04340  0.44050  0.58250  Biso   1.000  C
  H63      1.0000 0.01210  0.47700  0.61290  Biso   1.000  H
  C86      1.0000 0.95010  0.27890  0.36660  Biso   1.000  C
  H64      1.0000 0.97550  0.24350  0.33330  Biso   1.000  H
  C87      1.0000 0.13170  0.86650  0.49590  Biso   1.000  C
  H65      1.0000 0.16870  0.83240  0.46750  Biso   1.000  H
  C88      1.0000 0.87500  0.92270  0.45400  Biso   1.000  C
  H66      1.0000 0.85300  0.95840  0.48820  Biso   1.000  H
  C89      1.0000 0.06040  0.86700  0.58330  Biso   1.000  C
  H67      1.0000 0.03750  0.83460  0.61860  Biso   1.000  H
  C90      1.0000 0.86610  0.81350  0.45310  Biso   1.000  C
  H68      1.0000 0.83240  0.78150  0.48420  Biso   1.000  H
  C91      1.0000 0.95240  0.80920  0.36370  Biso   1.000  C
  H69      1.0000 0.98220  0.77200  0.33300  Biso   1.000  H
  C92      1.0000 0.95800  0.91500  0.36210  Biso   1.000  C
  H70      1.0000 0.99000  0.94780  0.33060  Biso   1.000  H
  C93      1.0000 0.91240  0.96940  0.40980  Biso   1.000  C
  N21      1.0000 0.06910  0.16000  0.55990  Biso   1.000  N
  C94      1.0000 0.12100  0.96760  0.48720  Biso   1.000  C
  H71      1.0000 0.13240  0.99630  0.44830  Biso   1.000  H
  C95      1.0000 0.05600  0.97380  0.57820  Biso   1.000  C
  H72      1.0000 0.02310  0.00830  0.60880  Biso   1.000  H
  C96      1.0000 0.09290  0.02440  0.53540  Biso   1.000  C
  N22      1.0000 0.10870  0.13890  0.51760  Biso   1.000  N
  N23      1.0000 0.89910  0.10570  0.42920  Biso   1.000  N
  N24      1.0000 0.93600  0.08300  0.38730  Biso   1.000  N
  Co7      1.0000 0.59905  0.59573  0.90874  Biso   1.000  Co
  Co8      1.0000 0.40380  0.65186  0.04035  Biso   1.000  Co
  O25      1.0000 0.63390  0.59580  0.99950  Biso   1.000  O
  O26      1.0000 0.37090  0.64990  0.14350  Biso   1.000  O
  O27      1.0000 0.75900  0.60790  0.37880  Biso   1.000  O
  O28      1.0000 0.53460  0.66200  0.06590  Biso   1.000  O
  O29      1.0000 0.86370  0.59420  0.30880  Biso   1.000  O
  O30      1.0000 0.13110  0.65990  0.44990  Biso   1.000  O
  O31      1.0000 0.03360  0.59290  0.38150  Biso   1.000  O
  N25      1.0000 0.59580  0.43680  0.91070  Biso   1.000  N
  C97      1.0000 0.17630  0.64430  0.34520  Biso   1.000  C
  H73      1.0000 0.23500  0.66370  0.35700  Biso   1.000  H
  C98      1.0000 0.59170  0.22770  0.91840  Biso   1.000  C
  O32      1.0000 0.26490  0.64300  0.07060  Biso   1.000  O
  N26      1.0000 0.41300  0.48980  0.03730  Biso   1.000  N
  C99      1.0000 0.41780  0.28260  0.04150  Biso   1.000  C
  N27      1.0000 0.59530  0.76100  0.90910  Biso   1.000  N
  C100     1.0000 0.23040  0.64330  0.23690  Biso   1.000  C
  H74      1.0000 0.28970  0.65950  0.24920  Biso   1.000  H
  C101     1.0000 0.16100  0.63100  0.28540  Biso   1.000  C
  H75      1.0000 0.10230  0.61250  0.27310  Biso   1.000  H
  C102     1.0000 0.28520  0.64470  0.12770  Biso   1.000  C
  N28      1.0000 0.40360  0.81700  0.03870  Biso   1.000  N
  C103     1.0000 0.66220  0.62550  0.16370  Biso   1.000  C
  H76      1.0000 0.60190  0.63950  0.17460  Biso   1.000  H
  C104     1.0000 0.63620  0.28070  0.96000  Biso   1.000  C
  H77      1.0000 0.66910  0.24810  0.99130  Biso   1.000  H
  C105     1.0000 0.61060  0.62450  0.05280  Biso   1.000  C
  C106     1.0000 0.63540  0.38270  0.95850  Biso   1.000  C
  H78      1.0000 0.66290  0.41740  0.99120  Biso   1.000  H
  C107     1.0000 0.72840  0.61730  0.21350  Biso   1.000  C
  H79      1.0000 0.78940  0.61090  0.20160  Biso   1.000  H
  C108     1.0000 0.45720  0.33860  0.08610  Biso   1.000  C
  H80      1.0000 0.48540  0.30740  0.12000  Biso   1.000  H
  C109     1.0000 0.21330  0.63250  0.17530  Biso   1.000  C
  H81      1.0000 0.15420  0.61690  0.16250  Biso   1.000  H
  C110     1.0000 0.71200  0.61790  0.27200  Biso   1.000  C
  H82      1.0000 0.65140  0.62580  0.28440  Biso   1.000  H
  C111     1.0000 0.78330  0.60670  0.32340  Biso   1.000  C
  C112     1.0000 0.10760  0.63110  0.39580  Biso   1.000  C
  C113     1.0000 0.37240  0.33490  0.99300  Biso   1.000  C
  H83      1.0000 0.34320  0.29920  0.96130  Biso   1.000  H
  C114     1.0000 0.37080  0.43570  0.99180  Biso   1.000  C
  H84      1.0000 0.34050  0.46860  0.95950  Biso   1.000  H
  C115     1.0000 0.54850  0.38450  0.86770  Biso   1.000  C
  H85      1.0000 0.51410  0.41880  0.83790  Biso   1.000  H
  C116     1.0000 0.68140  0.61460  0.10320  Biso   1.000  C
  H86      1.0000 0.74140  0.60010  0.09170  Biso   1.000  H
  C117     1.0000 0.45660  0.44050  0.08250  Biso   1.000  C
  H87      1.0000 0.48790  0.47700  0.11290  Biso   1.000  H
  C118     1.0000 0.54990  0.27890  0.86660  Biso   1.000  C
  H88      1.0000 0.52450  0.24350  0.83330  Biso   1.000  H
  C119     1.0000 0.36830  0.86650  0.99590  Biso   1.000  C
  H89      1.0000 0.33130  0.83240  0.96750  Biso   1.000  H
  C120     1.0000 0.62500  0.92270  0.95400  Biso   1.000  C
  H90      1.0000 0.64700  0.95840  0.98820  Biso   1.000  H
  C121     1.0000 0.43960  0.86700  0.08330  Biso   1.000  C
  H91      1.0000 0.46250  0.83460  0.11860  Biso   1.000  H
  C122     1.0000 0.63390  0.81350  0.95310  Biso   1.000  C
  H92      1.0000 0.66760  0.78150  0.98420  Biso   1.000  H
  C123     1.0000 0.54760  0.80920  0.86370  Biso   1.000  C
  H93      1.0000 0.51780  0.77200  0.83300  Biso   1.000  H
  C124     1.0000 0.54200  0.91500  0.86210  Biso   1.000  C
  H94      1.0000 0.51000  0.94780  0.83060  Biso   1.000  H
  C125     1.0000 0.58760  0.96940  0.90980  Biso   1.000  C
  N29      1.0000 0.43090  0.16000  0.05990  Biso   1.000  N
  C126     1.0000 0.37900  0.96760  0.98720  Biso   1.000  C
  H95      1.0000 0.36760  0.99630  0.94830  Biso   1.000  H
  C127     1.0000 0.44400  0.97380  0.07820  Biso   1.000  C
  H96      1.0000 0.47690  0.00830  0.10880  Biso   1.000  H
  C128     1.0000 0.40710  0.02440  0.03540  Biso   1.000  C
  N30      1.0000 0.39130  0.13890  0.01760  Biso   1.000  N
  N31      1.0000 0.60090  0.10570  0.92920  Biso   1.000  N
  N32      1.0000 0.56400  0.08300  0.88730  Biso   1.000  N
