data_image0
_cell_length_a       13.636
_cell_length_b       13.636
_cell_length_c       19.467
_cell_angle_alpha    90
_cell_angle_beta     90
_cell_angle_gamma    90

_symmetry_space_group_name_H-M    "P 1"
_symmetry_int_tables_number       1

loop_
  _symmetry_equiv_pos_as_xyz
  'x, y, z'

loop_
  _atom_site_label
  _atom_site_occupancy
  _atom_site_fract_x
  _atom_site_fract_y
  _atom_site_fract_z
  _atom_site_thermal_displace_type
  _atom_site_B_iso_or_equiv
  _atom_site_type_symbol
  N1       1.0000 0.43210  0.42300  0.07310  Biso   1.000  N
  C1       1.0000 0.44900  0.42590  0.14250  Biso   1.000  C
  C2       1.0000 0.40040  0.34410  0.17550  Biso   1.000  C
  H1       1.0000 0.40310  0.32700  0.22280  Biso   1.000  H
  C3       1.0000 0.35050  0.29680  0.12530  Biso   1.000  C
  H2       1.0000 0.30960  0.24110  0.13130  Biso   1.000  H
  C4       1.0000 0.37000  0.34550  0.06190  Biso   1.000  C
  C5       1.0000 0.16080  0.25900  0.03680  Biso   1.000  C
  H3       1.0000 0.14950  0.31700  0.06260  Biso   1.000  H
  C6       1.0000 0.09310  0.18690  0.03520  Biso   1.000  C
  H4       1.0000 0.03430  0.19560  0.06070  Biso   1.000  H
  C7       1.0000 0.58760  0.50100  0.28920  Biso   1.000  C
  H5       1.0000 0.64880  0.50080  0.26590  Biso   1.000  H
  C8       1.0000 0.58460  0.50230  0.35970  Biso   1.000  C
  H6       1.0000 0.64490  0.50490  0.38420  Biso   1.000  H
  N2       1.0000 0.56790  0.57700  0.07310  Biso   1.000  N
  C9       1.0000 0.55100  0.57410  0.14250  Biso   1.000  C
  C10      1.0000 0.59960  0.65590  0.17550  Biso   1.000  C
  H7       1.0000 0.59690  0.67300  0.22280  Biso   1.000  H
  C11      1.0000 0.64950  0.70320  0.12530  Biso   1.000  C
  H8       1.0000 0.69040  0.75890  0.13130  Biso   1.000  H
  C12      1.0000 0.63000  0.65450  0.06190  Biso   1.000  C
  C13      1.0000 0.83920  0.74100  0.03680  Biso   1.000  C
  H9       1.0000 0.85050  0.68300  0.06260  Biso   1.000  H
  C14      1.0000 0.90690  0.81310  0.03520  Biso   1.000  C
  H10      1.0000 0.96570  0.80440  0.06070  Biso   1.000  H
  C15      1.0000 0.41240  0.49900  0.28920  Biso   1.000  C
  H11      1.0000 0.35120  0.49920  0.26590  Biso   1.000  H
  C16      1.0000 0.41540  0.49770  0.35970  Biso   1.000  C
  H12      1.0000 0.35510  0.49510  0.38420  Biso   1.000  H
  N3       1.0000 0.07700  0.93210  0.57310  Biso   1.000  N
  C17      1.0000 0.07410  0.94900  0.64250  Biso   1.000  C
  C18      1.0000 0.15590  0.90040  0.67550  Biso   1.000  C
  H13      1.0000 0.17300  0.90310  0.72280  Biso   1.000  H
  C19      1.0000 0.20320  0.85050  0.62530  Biso   1.000  C
  H14      1.0000 0.25890  0.80960  0.63130  Biso   1.000  H
  C20      1.0000 0.15450  0.87000  0.56190  Biso   1.000  C
  C21      1.0000 0.24100  0.66080  0.53680  Biso   1.000  C
  H15      1.0000 0.18300  0.64950  0.56260  Biso   1.000  H
  C22      1.0000 0.31310  0.59310  0.53520  Biso   1.000  C
  H16      1.0000 0.30440  0.53430  0.56070  Biso   1.000  H
  C23      1.0000 0.99900  0.08760  0.78920  Biso   1.000  C
  H17      1.0000 0.99920  0.14880  0.76590  Biso   1.000  H
  C24      1.0000 0.99770  0.08460  0.85970  Biso   1.000  C
  H18      1.0000 0.99510  0.14490  0.88420  Biso   1.000  H
  N4       1.0000 0.92300  0.06790  0.57310  Biso   1.000  N
  C25      1.0000 0.92590  0.05100  0.64250  Biso   1.000  C
  C26      1.0000 0.84410  0.09960  0.67550  Biso   1.000  C
  H19      1.0000 0.82700  0.09690  0.72280  Biso   1.000  H
  C27      1.0000 0.79680  0.14950  0.62530  Biso   1.000  C
  H20      1.0000 0.74110  0.19040  0.63130  Biso   1.000  H
  C28      1.0000 0.84550  0.13000  0.56190  Biso   1.000  C
  C29      1.0000 0.75900  0.33920  0.53680  Biso   1.000  C
  H21      1.0000 0.81700  0.35050  0.56260  Biso   1.000  H
  C30      1.0000 0.68690  0.40690  0.53520  Biso   1.000  C
  H22      1.0000 0.69560  0.46570  0.56070  Biso   1.000  H
  C31      1.0000 0.00100  0.91240  0.78920  Biso   1.000  C
  H23      1.0000 0.00080  0.85120  0.76590  Biso   1.000  H
  C32      1.0000 0.00230  0.91540  0.85970  Biso   1.000  C
  H24      1.0000 0.00490  0.85510  0.88420  Biso   1.000  H
  N5       1.0000 0.06790  0.92300  0.42690  Biso   1.000  N
  C33      1.0000 0.05100  0.92590  0.35750  Biso   1.000  C
  C34      1.0000 0.09960  0.84410  0.32450  Biso   1.000  C
  H25      1.0000 0.09690  0.82700  0.27720  Biso   1.000  H
  C35      1.0000 0.14950  0.79680  0.37470  Biso   1.000  C
  H26      1.0000 0.19040  0.74110  0.36870  Biso   1.000  H
  C36      1.0000 0.13000  0.84550  0.43810  Biso   1.000  C
  C37      1.0000 0.33920  0.75900  0.46320  Biso   1.000  C
  H27      1.0000 0.35050  0.81700  0.43740  Biso   1.000  H
  C38      1.0000 0.40690  0.68690  0.46480  Biso   1.000  C
  H28      1.0000 0.46570  0.69560  0.43930  Biso   1.000  H
  C39      1.0000 0.91240  0.00100  0.21080  Biso   1.000  C
  H29      1.0000 0.85120  0.00080  0.23410  Biso   1.000  H
  C40      1.0000 0.91540  0.00230  0.14030  Biso   1.000  C
  H30      1.0000 0.85510  0.00490  0.11580  Biso   1.000  H
  N6       1.0000 0.93210  0.07700  0.42690  Biso   1.000  N
  C41      1.0000 0.94900  0.07410  0.35750  Biso   1.000  C
  C42      1.0000 0.90040  0.15590  0.32450  Biso   1.000  C
  H31      1.0000 0.90310  0.17300  0.27720  Biso   1.000  H
  C43      1.0000 0.85050  0.20320  0.37470  Biso   1.000  C
  H32      1.0000 0.80960  0.25890  0.36870  Biso   1.000  H
  C44      1.0000 0.87000  0.15450  0.43810  Biso   1.000  C
  C45      1.0000 0.66080  0.24100  0.46320  Biso   1.000  C
  H33      1.0000 0.64950  0.18300  0.43740  Biso   1.000  H
  C46      1.0000 0.59310  0.31310  0.46480  Biso   1.000  C
  H34      1.0000 0.53430  0.30440  0.43930  Biso   1.000  H
  C47      1.0000 0.08760  0.99900  0.21080  Biso   1.000  C
  H35      1.0000 0.14880  0.99920  0.23410  Biso   1.000  H
  C48      1.0000 0.08460  0.99770  0.14030  Biso   1.000  C
  H36      1.0000 0.14490  0.99510  0.11580  Biso   1.000  H
  N7       1.0000 0.42300  0.43210  0.92690  Biso   1.000  N
  C49      1.0000 0.42590  0.44900  0.85750  Biso   1.000  C
  C50      1.0000 0.34410  0.40040  0.82450  Biso   1.000  C
  H37      1.0000 0.32700  0.40310  0.77720  Biso   1.000  H
  C51      1.0000 0.29680  0.35050  0.87470  Biso   1.000  C
  H38      1.0000 0.24110  0.30960  0.86870  Biso   1.000  H
  C52      1.0000 0.34550  0.37000  0.93810  Biso   1.000  C
  C53      1.0000 0.25900  0.16080  0.96320  Biso   1.000  C
  H39      1.0000 0.31700  0.14950  0.93740  Biso   1.000  H
  C54      1.0000 0.18690  0.09310  0.96480  Biso   1.000  C
  H40      1.0000 0.19560  0.03430  0.93930  Biso   1.000  H
  C55      1.0000 0.50100  0.58760  0.71080  Biso   1.000  C
  H41      1.0000 0.50080  0.64880  0.73410  Biso   1.000  H
  C56      1.0000 0.50230  0.58460  0.64030  Biso   1.000  C
  H42      1.0000 0.50490  0.64490  0.61580  Biso   1.000  H
  N8       1.0000 0.57700  0.56790  0.92690  Biso   1.000  N
  C57      1.0000 0.57410  0.55100  0.85750  Biso   1.000  C
  C58      1.0000 0.65590  0.59960  0.82450  Biso   1.000  C
  H43      1.0000 0.67300  0.59690  0.77720  Biso   1.000  H
  C59      1.0000 0.70320  0.64950  0.87470  Biso   1.000  C
  H44      1.0000 0.75890  0.69040  0.86870  Biso   1.000  H
  C60      1.0000 0.65450  0.63000  0.93810  Biso   1.000  C
  C61      1.0000 0.74100  0.83920  0.96320  Biso   1.000  C
  H45      1.0000 0.68300  0.85050  0.93740  Biso   1.000  H
  C62      1.0000 0.81310  0.90690  0.96480  Biso   1.000  C
  H46      1.0000 0.80440  0.96570  0.93930  Biso   1.000  H
  C63      1.0000 0.49900  0.41240  0.71080  Biso   1.000  C
  H47      1.0000 0.49920  0.35120  0.73410  Biso   1.000  H
  C64      1.0000 0.49770  0.41540  0.64030  Biso   1.000  C
  H48      1.0000 0.49510  0.35510  0.61580  Biso   1.000  H
  Cu1      1.0000 0.50000  0.50000  0.00000  Biso   1.000  Cu
  Cu2      1.0000 0.00000  0.00000  0.50000  Biso   1.000  Cu
  Cu3      1.0000 0.00000  0.00000  0.00000  Biso   1.000  Cu
  Cu4      1.0000 0.50000  0.50000  0.50000  Biso   1.000  Cu
  N9       1.0000 0.10450  0.10450  0.00000  Biso   1.000  N
  C65      1.0000 0.32460  0.32460  0.00000  Biso   1.000  C
  C66      1.0000 0.24720  0.24720  0.00000  Biso   1.000  C
  N10      1.0000 0.89550  0.89550  0.00000  Biso   1.000  N
  C67      1.0000 0.67540  0.67540  0.00000  Biso   1.000  C
  C68      1.0000 0.75280  0.75280  0.00000  Biso   1.000  C
  N11      1.0000 0.39550  0.60450  0.50000  Biso   1.000  N
  C69      1.0000 0.17540  0.82460  0.50000  Biso   1.000  C
  C70      1.0000 0.25280  0.74720  0.50000  Biso   1.000  C
  N12      1.0000 0.60450  0.39550  0.50000  Biso   1.000  N
  C71      1.0000 0.82460  0.17540  0.50000  Biso   1.000  C
  C72      1.0000 0.74720  0.25280  0.50000  Biso   1.000  C
  N13      1.0000 0.50000  0.50000  0.39600  Biso   1.000  N
  C73      1.0000 0.50000  0.50000  0.17550  Biso   1.000  C
  C74      1.0000 0.50000  0.50000  0.25210  Biso   1.000  C
  N14      1.0000 0.00000  0.00000  0.89600  Biso   1.000  N
  C75      1.0000 0.00000  0.00000  0.67550  Biso   1.000  C
  C76      1.0000 0.00000  0.00000  0.75210  Biso   1.000  C
  N15      1.0000 0.00000  0.00000  0.10400  Biso   1.000  N
  C77      1.0000 0.00000  0.00000  0.32450  Biso   1.000  C
  C78      1.0000 0.00000  0.00000  0.24790  Biso   1.000  C
  N16      1.0000 0.50000  0.50000  0.60400  Biso   1.000  N
  C79      1.0000 0.50000  0.50000  0.82450  Biso   1.000  C
  C80      1.0000 0.50000  0.50000  0.74790  Biso   1.000  C
