data_image0
_cell_length_a       10.312
_cell_length_b       13.919
_cell_length_c       14.174
_cell_angle_alpha    88.35
_cell_angle_beta     69.287
_cell_angle_gamma    74.727

_symmetry_space_group_name_H-M    "P 1"
_symmetry_int_tables_number       1

loop_
  _symmetry_equiv_pos_as_xyz
  'x, y, z'

loop_
  _atom_site_label
  _atom_site_occupancy
  _atom_site_fract_x
  _atom_site_fract_y
  _atom_site_fract_z
  _atom_site_thermal_displace_type
  _atom_site_B_iso_or_equiv
  _atom_site_type_symbol
  O1       1.0000 0.55410  0.57330  0.75440  Biso   1.000  O
  Cd1      1.0000 0.56096  0.44682  0.36614  Biso   1.000  Cd
  N1       1.0000 0.56480  0.29650  0.43820  Biso   1.000  N
  N2       1.0000 0.64670  0.17520  0.52500  Biso   1.000  N
  N3       1.0000 0.77520  0.35380  0.24200  Biso   1.000  N
  N4       1.0000 0.92250  0.26570  0.09710  Biso   1.000  N
  O2       1.0000 0.34750  0.50420  0.52270  Biso   1.000  O
  O3       1.0000 0.28220  0.42430  0.66060  Biso   1.000  O
  O4       1.0000 0.58220  0.42640  0.69130  Biso   1.000  O
  C1       1.0000 0.27890  0.44550  0.57660  Biso   1.000  C
  C2       1.0000 0.19260  0.40250  0.53050  Biso   1.000  C
  H1       1.0000 0.14110  0.45570  0.50070  Biso   1.000  H
  H2       1.0000 0.25910  0.35340  0.47610  Biso   1.000  H
  C3       1.0000 0.08550  0.35400  0.60240  Biso   1.000  C
  C4       1.0000 0.11710  0.25150  0.60860  Biso   1.000  C
  H3       1.0000 0.20560  0.21130  0.56670  Biso   1.000  H
  C5       1.0000 0.01960  0.20840  0.67560  Biso   1.000  C
  H4       1.0000 0.04340  0.13950  0.67890  Biso   1.000  H
  C6       1.0000 0.88770  0.26540  0.73790  Biso   1.000  C
  H5       1.0000 0.82200  0.23500  0.78210  Biso   1.000  H
  C7       1.0000 0.85220  0.36900  0.73470  Biso   1.000  C
  C8       1.0000 0.95220  0.41060  0.66650  Biso   1.000  C
  H6       1.0000 0.92910  0.47960  0.66350  Biso   1.000  H
  C9       1.0000 0.70790  0.43450  0.80060  Biso   1.000  C
  H7       1.0000 0.66010  0.39500  0.85190  Biso   1.000  H
  H8       1.0000 0.72330  0.48740  0.83490  Biso   1.000  H
  C10      1.0000 0.60980  0.48090  0.74480  Biso   1.000  C
  C11      1.0000 0.61040  0.27420  0.51380  Biso   1.000  C
  H9       1.0000 0.61700  0.32180  0.55530  Biso   1.000  H
  C12      1.0000 0.57070  0.20500  0.39630  Biso   1.000  C
  C13      1.0000 0.53540  0.18270  0.31480  Biso   1.000  C
  H10      1.0000 0.49880  0.23280  0.27880  Biso   1.000  H
  C14      1.0000 0.55690  0.08350  0.28970  Biso   1.000  C
  H11      1.0000 0.53310  0.06640  0.23620  Biso   1.000  H
  C15      1.0000 0.61310  0.00820  0.34200  Biso   1.000  C
  H12      1.0000 0.62790  0.94210  0.32150  Biso   1.000  H
  C16      1.0000 0.64740  0.02840  0.42290  Biso   1.000  C
  H13      1.0000 0.68440  0.97780  0.45830  Biso   1.000  H
  C17      1.0000 0.62380  0.12890  0.44940  Biso   1.000  C
  C18      1.0000 0.70890  0.12700  0.59790  Biso   1.000  C
  H14      1.0000 0.64890  0.08670  0.63860  Biso   1.000  H
  H15      1.0000 0.71030  0.17770  0.64270  Biso   1.000  H
  C19      1.0000 0.95500  0.08760  0.46100  Biso   1.000  C
  H16      1.0000 0.92540  0.14670  0.43280  Biso   1.000  H
  C20      1.0000 0.86080  0.06120  0.54640  Biso   1.000  C
  C21      1.0000 0.90580  0.97300  0.58380  Biso   1.000  C
  H17      1.0000 0.84220  0.95280  0.64040  Biso   1.000  H
  C22      1.0000 0.78800  0.32200  0.15210  Biso   1.000  C
  H18      1.0000 0.71220  0.33660  0.12820  Biso   1.000  H
  C23      1.0000 0.91220  0.31580  0.24690  Biso   1.000  C
  C24      1.0000 0.96300  0.32540  0.32430  Biso   1.000  C
  H19      1.0000 0.90240  0.36060  0.38560  Biso   1.000  H
  C25      1.0000 0.10610  0.28070  0.30620  Biso   1.000  C
  H20      1.0000 0.14320  0.28710  0.35600  Biso   1.000  H
  C26      1.0000 0.19740  0.22570  0.21510  Biso   1.000  C
  H21      1.0000 0.29350  0.19630  0.20590  Biso   1.000  H
  C27      1.0000 0.14800  0.21420  0.13900  Biso   1.000  C
  H22      1.0000 0.20790  0.17710  0.07860  Biso   1.000  H
  C28      1.0000 0.00490  0.26050  0.15690  Biso   1.000  C
  C29      1.0000 0.96920  0.21460  0.99700  Biso   1.000  C
  H23      1.0000 0.06090  0.22530  0.95510  Biso   1.000  H
  H24      1.0000 0.89960  0.24370  0.96540  Biso   1.000  H
  C30      1.0000 0.92130  0.05930  0.08790  Biso   1.000  C
  H25      1.0000 0.86940  0.09870  0.14810  Biso   1.000  H
  C31      1.0000 0.98490  0.10240  0.00110  Biso   1.000  C
  C32      1.0000 0.06630  0.04170  0.91370  Biso   1.000  C
  H26      1.0000 0.11330  0.06930  0.85520  Biso   1.000  H
  O5       1.0000 0.44590  0.42670  0.24560  Biso   1.000  O
  Cd2      1.0000 0.43904  0.55318  0.63386  Biso   1.000  Cd
  N5       1.0000 0.43520  0.70350  0.56180  Biso   1.000  N
  N6       1.0000 0.35330  0.82480  0.47500  Biso   1.000  N
  N7       1.0000 0.22480  0.64620  0.75800  Biso   1.000  N
  N8       1.0000 0.07750  0.73430  0.90290  Biso   1.000  N
  O6       1.0000 0.65250  0.49580  0.47730  Biso   1.000  O
  O7       1.0000 0.71780  0.57570  0.33940  Biso   1.000  O
  O8       1.0000 0.41780  0.57360  0.30870  Biso   1.000  O
  C33      1.0000 0.72110  0.55450  0.42340  Biso   1.000  C
  C34      1.0000 0.80740  0.59750  0.46950  Biso   1.000  C
  H27      1.0000 0.85890  0.54430  0.49930  Biso   1.000  H
  H28      1.0000 0.74090  0.64660  0.52390  Biso   1.000  H
  C35      1.0000 0.91450  0.64600  0.39760  Biso   1.000  C
  C36      1.0000 0.88290  0.74850  0.39140  Biso   1.000  C
  H29      1.0000 0.79440  0.78870  0.43330  Biso   1.000  H
  C37      1.0000 0.98040  0.79160  0.32440  Biso   1.000  C
  H30      1.0000 0.95660  0.86050  0.32110  Biso   1.000  H
  C38      1.0000 0.11230  0.73460  0.26210  Biso   1.000  C
  H31      1.0000 0.17800  0.76500  0.21790  Biso   1.000  H
  C39      1.0000 0.14780  0.63100  0.26530  Biso   1.000  C
  C40      1.0000 0.04780  0.58940  0.33350  Biso   1.000  C
  H32      1.0000 0.07090  0.52040  0.33650  Biso   1.000  H
  C41      1.0000 0.29210  0.56550  0.19940  Biso   1.000  C
  H33      1.0000 0.33990  0.60500  0.14810  Biso   1.000  H
  H34      1.0000 0.27670  0.51260  0.16510  Biso   1.000  H
  C42      1.0000 0.39020  0.51910  0.25520  Biso   1.000  C
  C43      1.0000 0.38960  0.72580  0.48620  Biso   1.000  C
  H35      1.0000 0.38300  0.67820  0.44470  Biso   1.000  H
  C44      1.0000 0.42930  0.79500  0.60370  Biso   1.000  C
  C45      1.0000 0.46460  0.81730  0.68520  Biso   1.000  C
  H36      1.0000 0.50120  0.76720  0.72120  Biso   1.000  H
  C46      1.0000 0.44310  0.91650  0.71030  Biso   1.000  C
  H37      1.0000 0.46690  0.93360  0.76380  Biso   1.000  H
  C47      1.0000 0.38690  0.99180  0.65800  Biso   1.000  C
  H38      1.0000 0.37210  0.05790  0.67850  Biso   1.000  H
  C48      1.0000 0.35260  0.97160  0.57710  Biso   1.000  C
  H39      1.0000 0.31560  0.02220  0.54170  Biso   1.000  H
  C49      1.0000 0.37620  0.87110  0.55060  Biso   1.000  C
  C50      1.0000 0.29110  0.87300  0.40210  Biso   1.000  C
  H40      1.0000 0.35110  0.91330  0.36140  Biso   1.000  H
  H41      1.0000 0.28970  0.82230  0.35730  Biso   1.000  H
  C51      1.0000 0.04500  0.91240  0.53900  Biso   1.000  C
  H42      1.0000 0.07460  0.85330  0.56720  Biso   1.000  H
  C52      1.0000 0.13920  0.93880  0.45360  Biso   1.000  C
  C53      1.0000 0.09420  0.02700  0.41620  Biso   1.000  C
  H43      1.0000 0.15780  0.04720  0.35960  Biso   1.000  H
  C54      1.0000 0.21200  0.67800  0.84790  Biso   1.000  C
  H44      1.0000 0.28780  0.66340  0.87180  Biso   1.000  H
  C55      1.0000 0.08780  0.68420  0.75310  Biso   1.000  C
  C56      1.0000 0.03700  0.67460  0.67570  Biso   1.000  C
  H45      1.0000 0.09760  0.63940  0.61440  Biso   1.000  H
  C57      1.0000 0.89390  0.71930  0.69380  Biso   1.000  C
  H46      1.0000 0.85680  0.71290  0.64400  Biso   1.000  H
  C58      1.0000 0.80260  0.77430  0.78490  Biso   1.000  C
  H47      1.0000 0.70650  0.80370  0.79410  Biso   1.000  H
  C59      1.0000 0.85200  0.78580  0.86100  Biso   1.000  C
  H48      1.0000 0.79210  0.82290  0.92140  Biso   1.000  H
  C60      1.0000 0.99510  0.73950  0.84310  Biso   1.000  C
  C61      1.0000 0.03080  0.78540  0.00300  Biso   1.000  C
  H49      1.0000 0.93910  0.77470  0.04490  Biso   1.000  H
  H50      1.0000 0.10040  0.75630  0.03460  Biso   1.000  H
  C62      1.0000 0.07870  0.94070  0.91210  Biso   1.000  C
  H51      1.0000 0.13060  0.90130  0.85190  Biso   1.000  H
  C63      1.0000 0.01510  0.89760  0.99890  Biso   1.000  C
  C64      1.0000 0.93370  0.95830  0.08630  Biso   1.000  C
  H52      1.0000 0.88670  0.93070  0.14480  Biso   1.000  H
