data_image0
_cell_length_a       8.8822
_cell_length_b       20.5861
_cell_length_c       33.922
_cell_angle_alpha    90
_cell_angle_beta     90
_cell_angle_gamma    90

_symmetry_space_group_name_H-M    "P 1"
_symmetry_int_tables_number       1

loop_
  _symmetry_equiv_pos_as_xyz
  'x, y, z'

loop_
  _atom_site_label
  _atom_site_occupancy
  _atom_site_fract_x
  _atom_site_fract_y
  _atom_site_fract_z
  _atom_site_thermal_displace_type
  _atom_site_B_iso_or_equiv
  _atom_site_type_symbol
  O1       1.0000 0.74030  0.33370  0.67951  Biso   1.000  O
  O2       1.0000 0.50540  0.45750  0.61493  Biso   1.000  O
  O3       1.0000 0.50590  0.33500  0.65666  Biso   1.000  O
  C1       1.0000 0.60630  0.32080  0.68223  Biso   1.000  C
  C2       1.0000 0.54730  0.28530  0.71760  Biso   1.000  C
  C3       1.0000 0.59950  0.23290  0.77910  Biso   1.000  C
  H1       1.0000 0.66750  0.22120  0.79870  Biso   1.000  H
  C4       1.0000 0.64980  0.26870  0.74680  Biso   1.000  C
  H2       1.0000 0.75010  0.28120  0.74490  Biso   1.000  H
  C5       1.0000 0.75990  0.59050  0.62540  Biso   1.000  C
  H3       1.0000 0.84990  0.56750  0.62630  Biso   1.000  H
  O4       1.0000 0.74030  0.83370  0.17951  Biso   1.000  O
  O5       1.0000 0.50540  0.95750  0.11493  Biso   1.000  O
  O6       1.0000 0.50590  0.83500  0.15666  Biso   1.000  O
  C6       1.0000 0.60630  0.82080  0.18223  Biso   1.000  C
  C7       1.0000 0.54730  0.78530  0.21760  Biso   1.000  C
  C8       1.0000 0.59950  0.73290  0.27910  Biso   1.000  C
  H4       1.0000 0.66750  0.72120  0.29870  Biso   1.000  H
  C9       1.0000 0.64980  0.76870  0.24680  Biso   1.000  C
  H5       1.0000 0.75010  0.78120  0.24490  Biso   1.000  H
  C10      1.0000 0.75990  0.09050  0.12540  Biso   1.000  C
  H6       1.0000 0.84990  0.06750  0.12630  Biso   1.000  H
  O7       1.0000 0.24030  0.33370  0.17951  Biso   1.000  O
  O8       1.0000 0.00540  0.45750  0.11493  Biso   1.000  O
  O9       1.0000 0.00590  0.33500  0.15666  Biso   1.000  O
  C11      1.0000 0.10630  0.32080  0.18223  Biso   1.000  C
  C12      1.0000 0.04730  0.28530  0.21760  Biso   1.000  C
  C13      1.0000 0.09950  0.23290  0.27910  Biso   1.000  C
  H7       1.0000 0.16750  0.22120  0.29870  Biso   1.000  H
  C14      1.0000 0.14980  0.26870  0.24680  Biso   1.000  C
  H8       1.0000 0.25010  0.28120  0.24490  Biso   1.000  H
  C15      1.0000 0.25990  0.59050  0.12540  Biso   1.000  C
  H9       1.0000 0.34990  0.56750  0.12630  Biso   1.000  H
  O10      1.0000 0.24030  0.83370  0.67951  Biso   1.000  O
  O11      1.0000 0.00540  0.95750  0.61493  Biso   1.000  O
  O12      1.0000 0.00590  0.83500  0.65666  Biso   1.000  O
  C16      1.0000 0.10630  0.82080  0.68223  Biso   1.000  C
  C17      1.0000 0.04730  0.78530  0.71760  Biso   1.000  C
  C18      1.0000 0.09950  0.73290  0.77910  Biso   1.000  C
  H10      1.0000 0.16750  0.72120  0.79870  Biso   1.000  H
  C19      1.0000 0.14980  0.76870  0.74680  Biso   1.000  C
  H11      1.0000 0.25010  0.78120  0.74490  Biso   1.000  H
  C20      1.0000 0.25990  0.09050  0.62540  Biso   1.000  C
  H12      1.0000 0.34990  0.06750  0.62630  Biso   1.000  H
  O13      1.0000 0.00970  0.41630  0.67951  Biso   1.000  O
  O14      1.0000 0.24460  0.29250  0.61493  Biso   1.000  O
  O15      1.0000 0.24410  0.41500  0.65666  Biso   1.000  O
  C21      1.0000 0.14370  0.42920  0.68223  Biso   1.000  C
  C22      1.0000 0.20270  0.46470  0.71760  Biso   1.000  C
  C23      1.0000 0.15050  0.51710  0.77910  Biso   1.000  C
  H13      1.0000 0.08250  0.52880  0.79870  Biso   1.000  H
  C24      1.0000 0.10020  0.48130  0.74680  Biso   1.000  C
  H14      1.0000 0.99990  0.46880  0.74490  Biso   1.000  H
  C25      1.0000 0.99010  0.15950  0.62540  Biso   1.000  C
  H15      1.0000 0.90010  0.18250  0.62630  Biso   1.000  H
  O16      1.0000 0.00970  0.91630  0.17951  Biso   1.000  O
  O17      1.0000 0.24460  0.79250  0.11493  Biso   1.000  O
  O18      1.0000 0.24410  0.91500  0.15666  Biso   1.000  O
  C26      1.0000 0.14370  0.92920  0.18223  Biso   1.000  C
  C27      1.0000 0.20270  0.96470  0.21760  Biso   1.000  C
  C28      1.0000 0.15050  0.01710  0.27910  Biso   1.000  C
  H16      1.0000 0.08250  0.02880  0.29870  Biso   1.000  H
  C29      1.0000 0.10020  0.98130  0.24680  Biso   1.000  C
  H17      1.0000 0.99990  0.96880  0.24490  Biso   1.000  H
  C30      1.0000 0.99010  0.65950  0.12540  Biso   1.000  C
  H18      1.0000 0.90010  0.68250  0.12630  Biso   1.000  H
  O19      1.0000 0.50970  0.41630  0.17951  Biso   1.000  O
  O20      1.0000 0.74460  0.29250  0.11493  Biso   1.000  O
  O21      1.0000 0.74410  0.41500  0.15666  Biso   1.000  O
  C31      1.0000 0.64370  0.42920  0.18223  Biso   1.000  C
  C32      1.0000 0.70270  0.46470  0.21760  Biso   1.000  C
  C33      1.0000 0.65050  0.51710  0.27910  Biso   1.000  C
  H19      1.0000 0.58250  0.52880  0.29870  Biso   1.000  H
  C34      1.0000 0.60020  0.48130  0.24680  Biso   1.000  C
  H20      1.0000 0.49990  0.46880  0.24490  Biso   1.000  H
  C35      1.0000 0.49010  0.15950  0.12540  Biso   1.000  C
  H21      1.0000 0.40010  0.18250  0.12630  Biso   1.000  H
  O22      1.0000 0.50970  0.91630  0.67951  Biso   1.000  O
  O23      1.0000 0.74460  0.79250  0.61493  Biso   1.000  O
  O24      1.0000 0.74410  0.91500  0.65666  Biso   1.000  O
  C36      1.0000 0.64370  0.92920  0.68223  Biso   1.000  C
  C37      1.0000 0.70270  0.96470  0.71760  Biso   1.000  C
  C38      1.0000 0.65050  0.01710  0.77910  Biso   1.000  C
  H22      1.0000 0.58250  0.02880  0.79870  Biso   1.000  H
  C39      1.0000 0.60020  0.98130  0.74680  Biso   1.000  C
  H23      1.0000 0.49990  0.96880  0.74490  Biso   1.000  H
  C40      1.0000 0.49010  0.65950  0.62540  Biso   1.000  C
  H24      1.0000 0.40010  0.68250  0.62630  Biso   1.000  H
  O25      1.0000 0.00970  0.33370  0.07049  Biso   1.000  O
  O26      1.0000 0.24460  0.45750  0.13507  Biso   1.000  O
  O27      1.0000 0.24410  0.33500  0.09334  Biso   1.000  O
  C41      1.0000 0.14370  0.32080  0.06777  Biso   1.000  C
  C42      1.0000 0.20270  0.28530  0.03240  Biso   1.000  C
  C43      1.0000 0.15050  0.23290  0.97090  Biso   1.000  C
  H25      1.0000 0.08250  0.22120  0.95130  Biso   1.000  H
  C44      1.0000 0.10020  0.26870  0.00320  Biso   1.000  C
  H26      1.0000 0.99990  0.28120  0.00510  Biso   1.000  H
  C45      1.0000 0.99010  0.59050  0.12460  Biso   1.000  C
  H27      1.0000 0.90010  0.56750  0.12370  Biso   1.000  H
  O28      1.0000 0.00970  0.83370  0.57049  Biso   1.000  O
  O29      1.0000 0.24460  0.95750  0.63507  Biso   1.000  O
  O30      1.0000 0.24410  0.83500  0.59334  Biso   1.000  O
  C46      1.0000 0.14370  0.82080  0.56777  Biso   1.000  C
  C47      1.0000 0.20270  0.78530  0.53240  Biso   1.000  C
  C48      1.0000 0.15050  0.73290  0.47090  Biso   1.000  C
  H28      1.0000 0.08250  0.72120  0.45130  Biso   1.000  H
  C49      1.0000 0.10020  0.76870  0.50320  Biso   1.000  C
  H29      1.0000 0.99990  0.78120  0.50510  Biso   1.000  H
  C50      1.0000 0.99010  0.09050  0.62460  Biso   1.000  C
  H30      1.0000 0.90010  0.06750  0.62370  Biso   1.000  H
  O31      1.0000 0.50970  0.33370  0.57049  Biso   1.000  O
  O32      1.0000 0.74460  0.45750  0.63507  Biso   1.000  O
  O33      1.0000 0.74410  0.33500  0.59334  Biso   1.000  O
  C51      1.0000 0.64370  0.32080  0.56777  Biso   1.000  C
  C52      1.0000 0.70270  0.28530  0.53240  Biso   1.000  C
  C53      1.0000 0.65050  0.23290  0.47090  Biso   1.000  C
  H31      1.0000 0.58250  0.22120  0.45130  Biso   1.000  H
  C54      1.0000 0.60020  0.26870  0.50320  Biso   1.000  C
  H32      1.0000 0.49990  0.28120  0.50510  Biso   1.000  H
  C55      1.0000 0.49010  0.59050  0.62460  Biso   1.000  C
  H33      1.0000 0.40010  0.56750  0.62370  Biso   1.000  H
  O34      1.0000 0.50970  0.83370  0.07049  Biso   1.000  O
  O35      1.0000 0.74460  0.95750  0.13507  Biso   1.000  O
  O36      1.0000 0.74410  0.83500  0.09334  Biso   1.000  O
  C56      1.0000 0.64370  0.82080  0.06777  Biso   1.000  C
  C57      1.0000 0.70270  0.78530  0.03240  Biso   1.000  C
  C58      1.0000 0.65050  0.73290  0.97090  Biso   1.000  C
  H34      1.0000 0.58250  0.72120  0.95130  Biso   1.000  H
  C59      1.0000 0.60020  0.76870  0.00320  Biso   1.000  C
  H35      1.0000 0.49990  0.78120  0.00510  Biso   1.000  H
  C60      1.0000 0.49010  0.09050  0.12460  Biso   1.000  C
  H36      1.0000 0.40010  0.06750  0.12370  Biso   1.000  H
  O37      1.0000 0.74030  0.41630  0.07049  Biso   1.000  O
  O38      1.0000 0.50540  0.29250  0.13507  Biso   1.000  O
  O39      1.0000 0.50590  0.41500  0.09334  Biso   1.000  O
  C61      1.0000 0.60630  0.42920  0.06777  Biso   1.000  C
  C62      1.0000 0.54730  0.46470  0.03240  Biso   1.000  C
  C63      1.0000 0.59950  0.51710  0.97090  Biso   1.000  C
  H37      1.0000 0.66750  0.52880  0.95130  Biso   1.000  H
  C64      1.0000 0.64980  0.48130  0.00320  Biso   1.000  C
  H38      1.0000 0.75010  0.46880  0.00510  Biso   1.000  H
  C65      1.0000 0.75990  0.15950  0.12460  Biso   1.000  C
  H39      1.0000 0.84990  0.18250  0.12370  Biso   1.000  H
  O40      1.0000 0.74030  0.91630  0.57049  Biso   1.000  O
  O41      1.0000 0.50540  0.79250  0.63507  Biso   1.000  O
  O42      1.0000 0.50590  0.91500  0.59334  Biso   1.000  O
  C66      1.0000 0.60630  0.92920  0.56777  Biso   1.000  C
  C67      1.0000 0.54730  0.96470  0.53240  Biso   1.000  C
  C68      1.0000 0.59950  0.01710  0.47090  Biso   1.000  C
  H40      1.0000 0.66750  0.02880  0.45130  Biso   1.000  H
  C69      1.0000 0.64980  0.98130  0.50320  Biso   1.000  C
  H41      1.0000 0.75010  0.96880  0.50510  Biso   1.000  H
  C70      1.0000 0.75990  0.65950  0.62460  Biso   1.000  C
  H42      1.0000 0.84990  0.68250  0.62370  Biso   1.000  H
  O43      1.0000 0.24030  0.41630  0.57049  Biso   1.000  O
  O44      1.0000 0.00540  0.29250  0.63507  Biso   1.000  O
  O45      1.0000 0.00590  0.41500  0.59334  Biso   1.000  O
  C71      1.0000 0.10630  0.42920  0.56777  Biso   1.000  C
  C72      1.0000 0.04730  0.46470  0.53240  Biso   1.000  C
  C73      1.0000 0.09950  0.51710  0.47090  Biso   1.000  C
  H43      1.0000 0.16750  0.52880  0.45130  Biso   1.000  H
  C74      1.0000 0.14980  0.48130  0.50320  Biso   1.000  C
  H44      1.0000 0.25010  0.46880  0.50510  Biso   1.000  H
  C75      1.0000 0.25990  0.15950  0.62460  Biso   1.000  C
  H45      1.0000 0.34990  0.18250  0.62370  Biso   1.000  H
  O46      1.0000 0.24030  0.91630  0.07049  Biso   1.000  O
  O47      1.0000 0.00540  0.79250  0.13507  Biso   1.000  O
  O48      1.0000 0.00590  0.91500  0.09334  Biso   1.000  O
  C76      1.0000 0.10630  0.92920  0.06777  Biso   1.000  C
  C77      1.0000 0.04730  0.96470  0.03240  Biso   1.000  C
  C78      1.0000 0.09950  0.01710  0.97090  Biso   1.000  C
  H46      1.0000 0.16750  0.02880  0.95130  Biso   1.000  H
  C79      1.0000 0.14980  0.98130  0.00320  Biso   1.000  C
  H47      1.0000 0.25010  0.96880  0.00510  Biso   1.000  H
  C80      1.0000 0.25990  0.65950  0.12460  Biso   1.000  C
  H48      1.0000 0.34990  0.68250  0.12370  Biso   1.000  H
  O49      1.0000 0.25970  0.66630  0.32049  Biso   1.000  O
  O50      1.0000 0.49460  0.54250  0.38507  Biso   1.000  O
  O51      1.0000 0.49410  0.66500  0.34334  Biso   1.000  O
  C81      1.0000 0.39370  0.67920  0.31777  Biso   1.000  C
  C82      1.0000 0.45270  0.71470  0.28240  Biso   1.000  C
  C83      1.0000 0.40050  0.76710  0.22090  Biso   1.000  C
  H49      1.0000 0.33250  0.77880  0.20130  Biso   1.000  H
  C84      1.0000 0.35020  0.73130  0.25320  Biso   1.000  C
  H50      1.0000 0.24990  0.71880  0.25510  Biso   1.000  H
  C85      1.0000 0.24010  0.40950  0.37460  Biso   1.000  C
  H51      1.0000 0.15010  0.43250  0.37370  Biso   1.000  H
  O52      1.0000 0.25970  0.16630  0.82049  Biso   1.000  O
  O53      1.0000 0.49460  0.04250  0.88507  Biso   1.000  O
  O54      1.0000 0.49410  0.16500  0.84334  Biso   1.000  O
  C86      1.0000 0.39370  0.17920  0.81777  Biso   1.000  C
  C87      1.0000 0.45270  0.21470  0.78240  Biso   1.000  C
  C88      1.0000 0.40050  0.26710  0.72090  Biso   1.000  C
  H52      1.0000 0.33250  0.27880  0.70130  Biso   1.000  H
  C89      1.0000 0.35020  0.23130  0.75320  Biso   1.000  C
  H53      1.0000 0.24990  0.21880  0.75510  Biso   1.000  H
  C90      1.0000 0.24010  0.90950  0.87460  Biso   1.000  C
  H54      1.0000 0.15010  0.93250  0.87370  Biso   1.000  H
  O55      1.0000 0.75970  0.66630  0.82049  Biso   1.000  O
  O56      1.0000 0.99460  0.54250  0.88507  Biso   1.000  O
  O57      1.0000 0.99410  0.66500  0.84334  Biso   1.000  O
  C91      1.0000 0.89370  0.67920  0.81777  Biso   1.000  C
  C92      1.0000 0.95270  0.71470  0.78240  Biso   1.000  C
  C93      1.0000 0.90050  0.76710  0.72090  Biso   1.000  C
  H55      1.0000 0.83250  0.77880  0.70130  Biso   1.000  H
  C94      1.0000 0.85020  0.73130  0.75320  Biso   1.000  C
  H56      1.0000 0.74990  0.71880  0.75510  Biso   1.000  H
  C95      1.0000 0.74010  0.40950  0.87460  Biso   1.000  C
  H57      1.0000 0.65010  0.43250  0.87370  Biso   1.000  H
  O58      1.0000 0.75970  0.16630  0.32049  Biso   1.000  O
  O59      1.0000 0.99460  0.04250  0.38507  Biso   1.000  O
  O60      1.0000 0.99410  0.16500  0.34334  Biso   1.000  O
  C96      1.0000 0.89370  0.17920  0.31777  Biso   1.000  C
  C97      1.0000 0.95270  0.21470  0.28240  Biso   1.000  C
  C98      1.0000 0.90050  0.26710  0.22090  Biso   1.000  C
  H58      1.0000 0.83250  0.27880  0.20130  Biso   1.000  H
  C99      1.0000 0.85020  0.23130  0.25320  Biso   1.000  C
  H59      1.0000 0.74990  0.21880  0.25510  Biso   1.000  H
  C100     1.0000 0.74010  0.90950  0.37460  Biso   1.000  C
  H60      1.0000 0.65010  0.93250  0.37370  Biso   1.000  H
  O61      1.0000 0.99030  0.58370  0.32049  Biso   1.000  O
  O62      1.0000 0.75540  0.70750  0.38507  Biso   1.000  O
  O63      1.0000 0.75590  0.58500  0.34334  Biso   1.000  O
  C101     1.0000 0.85630  0.57080  0.31777  Biso   1.000  C
  C102     1.0000 0.79730  0.53530  0.28240  Biso   1.000  C
  C103     1.0000 0.84950  0.48290  0.22090  Biso   1.000  C
  H61      1.0000 0.91750  0.47120  0.20130  Biso   1.000  H
  C104     1.0000 0.89980  0.51870  0.25320  Biso   1.000  C
  H62      1.0000 0.00010  0.53120  0.25510  Biso   1.000  H
  C105     1.0000 0.00990  0.84050  0.37460  Biso   1.000  C
  H63      1.0000 0.09990  0.81750  0.37370  Biso   1.000  H
  O64      1.0000 0.99030  0.08370  0.82049  Biso   1.000  O
  O65      1.0000 0.75540  0.20750  0.88507  Biso   1.000  O
  O66      1.0000 0.75590  0.08500  0.84334  Biso   1.000  O
  C106     1.0000 0.85630  0.07080  0.81777  Biso   1.000  C
  C107     1.0000 0.79730  0.03530  0.78240  Biso   1.000  C
  C108     1.0000 0.84950  0.98290  0.72090  Biso   1.000  C
  H64      1.0000 0.91750  0.97120  0.70130  Biso   1.000  H
  C109     1.0000 0.89980  0.01870  0.75320  Biso   1.000  C
  H65      1.0000 0.00010  0.03120  0.75510  Biso   1.000  H
  C110     1.0000 0.00990  0.34050  0.87460  Biso   1.000  C
  H66      1.0000 0.09990  0.31750  0.87370  Biso   1.000  H
  O67      1.0000 0.49030  0.58370  0.82049  Biso   1.000  O
  O68      1.0000 0.25540  0.70750  0.88507  Biso   1.000  O
  O69      1.0000 0.25590  0.58500  0.84334  Biso   1.000  O
  C111     1.0000 0.35630  0.57080  0.81777  Biso   1.000  C
  C112     1.0000 0.29730  0.53530  0.78240  Biso   1.000  C
  C113     1.0000 0.34950  0.48290  0.72090  Biso   1.000  C
  H67      1.0000 0.41750  0.47120  0.70130  Biso   1.000  H
  C114     1.0000 0.39980  0.51870  0.75320  Biso   1.000  C
  H68      1.0000 0.50010  0.53120  0.75510  Biso   1.000  H
  C115     1.0000 0.50990  0.84050  0.87460  Biso   1.000  C
  H69      1.0000 0.59990  0.81750  0.87370  Biso   1.000  H
  O70      1.0000 0.49030  0.08370  0.32049  Biso   1.000  O
  O71      1.0000 0.25540  0.20750  0.38507  Biso   1.000  O
  O72      1.0000 0.25590  0.08500  0.34334  Biso   1.000  O
  C116     1.0000 0.35630  0.07080  0.31777  Biso   1.000  C
  C117     1.0000 0.29730  0.03530  0.28240  Biso   1.000  C
  C118     1.0000 0.34950  0.98290  0.22090  Biso   1.000  C
  H70      1.0000 0.41750  0.97120  0.20130  Biso   1.000  H
  C119     1.0000 0.39980  0.01870  0.25320  Biso   1.000  C
  H71      1.0000 0.50010  0.03120  0.25510  Biso   1.000  H
  C120     1.0000 0.50990  0.34050  0.37460  Biso   1.000  C
  H72      1.0000 0.59990  0.31750  0.37370  Biso   1.000  H
  O73      1.0000 0.99030  0.66630  0.92951  Biso   1.000  O
  O74      1.0000 0.75540  0.54250  0.86493  Biso   1.000  O
  O75      1.0000 0.75590  0.66500  0.90666  Biso   1.000  O
  C121     1.0000 0.85630  0.67920  0.93223  Biso   1.000  C
  C122     1.0000 0.79730  0.71470  0.96760  Biso   1.000  C
  C123     1.0000 0.84950  0.76710  0.02910  Biso   1.000  C
  H73      1.0000 0.91750  0.77880  0.04870  Biso   1.000  H
  C124     1.0000 0.89980  0.73130  0.99680  Biso   1.000  C
  H74      1.0000 0.00010  0.71880  0.99490  Biso   1.000  H
  C125     1.0000 0.00990  0.40950  0.87540  Biso   1.000  C
  H75      1.0000 0.09990  0.43250  0.87630  Biso   1.000  H
  O76      1.0000 0.99030  0.16630  0.42951  Biso   1.000  O
  O77      1.0000 0.75540  0.04250  0.36493  Biso   1.000  O
  O78      1.0000 0.75590  0.16500  0.40666  Biso   1.000  O
  C126     1.0000 0.85630  0.17920  0.43223  Biso   1.000  C
  C127     1.0000 0.79730  0.21470  0.46760  Biso   1.000  C
  C128     1.0000 0.84950  0.26710  0.52910  Biso   1.000  C
  H76      1.0000 0.91750  0.27880  0.54870  Biso   1.000  H
  C129     1.0000 0.89980  0.23130  0.49680  Biso   1.000  C
  H77      1.0000 0.00010  0.21880  0.49490  Biso   1.000  H
  C130     1.0000 0.00990  0.90950  0.37540  Biso   1.000  C
  H78      1.0000 0.09990  0.93250  0.37630  Biso   1.000  H
  O79      1.0000 0.49030  0.66630  0.42951  Biso   1.000  O
  O80      1.0000 0.25540  0.54250  0.36493  Biso   1.000  O
  O81      1.0000 0.25590  0.66500  0.40666  Biso   1.000  O
  C131     1.0000 0.35630  0.67920  0.43223  Biso   1.000  C
  C132     1.0000 0.29730  0.71470  0.46760  Biso   1.000  C
  C133     1.0000 0.34950  0.76710  0.52910  Biso   1.000  C
  H79      1.0000 0.41750  0.77880  0.54870  Biso   1.000  H
  C134     1.0000 0.39980  0.73130  0.49680  Biso   1.000  C
  H80      1.0000 0.50010  0.71880  0.49490  Biso   1.000  H
  C135     1.0000 0.50990  0.40950  0.37540  Biso   1.000  C
  H81      1.0000 0.59990  0.43250  0.37630  Biso   1.000  H
  O82      1.0000 0.49030  0.16630  0.92951  Biso   1.000  O
  O83      1.0000 0.25540  0.04250  0.86493  Biso   1.000  O
  O84      1.0000 0.25590  0.16500  0.90666  Biso   1.000  O
  C136     1.0000 0.35630  0.17920  0.93223  Biso   1.000  C
  C137     1.0000 0.29730  0.21470  0.96760  Biso   1.000  C
  C138     1.0000 0.34950  0.26710  0.02910  Biso   1.000  C
  H82      1.0000 0.41750  0.27880  0.04870  Biso   1.000  H
  C139     1.0000 0.39980  0.23130  0.99680  Biso   1.000  C
  H83      1.0000 0.50010  0.21880  0.99490  Biso   1.000  H
  C140     1.0000 0.50990  0.90950  0.87540  Biso   1.000  C
  H84      1.0000 0.59990  0.93250  0.87630  Biso   1.000  H
  O85      1.0000 0.25970  0.58370  0.92951  Biso   1.000  O
  O86      1.0000 0.49460  0.70750  0.86493  Biso   1.000  O
  O87      1.0000 0.49410  0.58500  0.90666  Biso   1.000  O
  C141     1.0000 0.39370  0.57080  0.93223  Biso   1.000  C
  C142     1.0000 0.45270  0.53530  0.96760  Biso   1.000  C
  C143     1.0000 0.40050  0.48290  0.02910  Biso   1.000  C
  H85      1.0000 0.33250  0.47120  0.04870  Biso   1.000  H
  C144     1.0000 0.35020  0.51870  0.99680  Biso   1.000  C
  H86      1.0000 0.24990  0.53120  0.99490  Biso   1.000  H
  C145     1.0000 0.24010  0.84050  0.87540  Biso   1.000  C
  H87      1.0000 0.15010  0.81750  0.87630  Biso   1.000  H
  O88      1.0000 0.25970  0.08370  0.42951  Biso   1.000  O
  O89      1.0000 0.49460  0.20750  0.36493  Biso   1.000  O
  O90      1.0000 0.49410  0.08500  0.40666  Biso   1.000  O
  C146     1.0000 0.39370  0.07080  0.43223  Biso   1.000  C
  C147     1.0000 0.45270  0.03530  0.46760  Biso   1.000  C
  C148     1.0000 0.40050  0.98290  0.52910  Biso   1.000  C
  H88      1.0000 0.33250  0.97120  0.54870  Biso   1.000  H
  C149     1.0000 0.35020  0.01870  0.49680  Biso   1.000  C
  H89      1.0000 0.24990  0.03120  0.49490  Biso   1.000  H
  C150     1.0000 0.24010  0.34050  0.37540  Biso   1.000  C
  H90      1.0000 0.15010  0.31750  0.37630  Biso   1.000  H
  O91      1.0000 0.75970  0.58370  0.42951  Biso   1.000  O
  O92      1.0000 0.99460  0.70750  0.36493  Biso   1.000  O
  O93      1.0000 0.99410  0.58500  0.40666  Biso   1.000  O
  C151     1.0000 0.89370  0.57080  0.43223  Biso   1.000  C
  C152     1.0000 0.95270  0.53530  0.46760  Biso   1.000  C
  C153     1.0000 0.90050  0.48290  0.52910  Biso   1.000  C
  H91      1.0000 0.83250  0.47120  0.54870  Biso   1.000  H
  C154     1.0000 0.85020  0.51870  0.49680  Biso   1.000  C
  H92      1.0000 0.74990  0.53120  0.49490  Biso   1.000  H
  C155     1.0000 0.74010  0.84050  0.37540  Biso   1.000  C
  H93      1.0000 0.65010  0.81750  0.37630  Biso   1.000  H
  O94      1.0000 0.75970  0.08370  0.92951  Biso   1.000  O
  O95      1.0000 0.99460  0.20750  0.86493  Biso   1.000  O
  O96      1.0000 0.99410  0.08500  0.90666  Biso   1.000  O
  C156     1.0000 0.89370  0.07080  0.93223  Biso   1.000  C
  C157     1.0000 0.95270  0.03530  0.96760  Biso   1.000  C
  C158     1.0000 0.90050  0.98290  0.02910  Biso   1.000  C
  H94      1.0000 0.83250  0.97120  0.04870  Biso   1.000  H
  C159     1.0000 0.85020  0.01870  0.99680  Biso   1.000  C
  H95      1.0000 0.74990  0.03120  0.99490  Biso   1.000  H
  C160     1.0000 0.74010  0.34050  0.87540  Biso   1.000  C
  H96      1.0000 0.65010  0.31750  0.87630  Biso   1.000  H
  Sc1      1.0000 0.37500  0.37500  0.61408  Biso   1.000  Sc
  Sc2      1.0000 0.37500  0.87500  0.11408  Biso   1.000  Sc
  Sc3      1.0000 0.87500  0.37500  0.11408  Biso   1.000  Sc
  Sc4      1.0000 0.87500  0.87500  0.61408  Biso   1.000  Sc
  Sc5      1.0000 0.37500  0.37500  0.13592  Biso   1.000  Sc
  Sc6      1.0000 0.37500  0.87500  0.63592  Biso   1.000  Sc
  Sc7      1.0000 0.87500  0.37500  0.63592  Biso   1.000  Sc
  Sc8      1.0000 0.87500  0.87500  0.13592  Biso   1.000  Sc
  Sc9      1.0000 0.62500  0.62500  0.38592  Biso   1.000  Sc
  Sc10     1.0000 0.62500  0.12500  0.88592  Biso   1.000  Sc
  Sc11     1.0000 0.12500  0.62500  0.88592  Biso   1.000  Sc
  Sc12     1.0000 0.12500  0.12500  0.38592  Biso   1.000  Sc
  Sc13     1.0000 0.62500  0.62500  0.86408  Biso   1.000  Sc
  Sc14     1.0000 0.62500  0.12500  0.36408  Biso   1.000  Sc
  Sc15     1.0000 0.12500  0.62500  0.36408  Biso   1.000  Sc
  Sc16     1.0000 0.12500  0.12500  0.86408  Biso   1.000  Sc
  C161     1.0000 0.62500  0.55870  0.62500  Biso   1.000  C
  C162     1.0000 0.62500  0.48510  0.62500  Biso   1.000  C
  C163     1.0000 0.62500  0.05870  0.12500  Biso   1.000  C
  C164     1.0000 0.62500  0.98510  0.12500  Biso   1.000  C
  C165     1.0000 0.12500  0.19130  0.62500  Biso   1.000  C
  C166     1.0000 0.12500  0.26490  0.62500  Biso   1.000  C
  C167     1.0000 0.12500  0.69130  0.12500  Biso   1.000  C
  C168     1.0000 0.12500  0.76490  0.12500  Biso   1.000  C
  C169     1.0000 0.62500  0.69130  0.62500  Biso   1.000  C
  C170     1.0000 0.62500  0.76490  0.62500  Biso   1.000  C
  C171     1.0000 0.12500  0.55870  0.12500  Biso   1.000  C
  C172     1.0000 0.12500  0.48510  0.12500  Biso   1.000  C
  C173     1.0000 0.12500  0.05870  0.62500  Biso   1.000  C
  C174     1.0000 0.12500  0.98510  0.62500  Biso   1.000  C
  C175     1.0000 0.62500  0.19130  0.12500  Biso   1.000  C
  C176     1.0000 0.62500  0.26490  0.12500  Biso   1.000  C
  C177     1.0000 0.37500  0.44130  0.37500  Biso   1.000  C
  C178     1.0000 0.37500  0.51490  0.37500  Biso   1.000  C
  C179     1.0000 0.37500  0.94130  0.87500  Biso   1.000  C
  C180     1.0000 0.37500  0.01490  0.87500  Biso   1.000  C
  C181     1.0000 0.87500  0.80870  0.37500  Biso   1.000  C
  C182     1.0000 0.87500  0.73510  0.37500  Biso   1.000  C
  C183     1.0000 0.87500  0.30870  0.87500  Biso   1.000  C
  C184     1.0000 0.87500  0.23510  0.87500  Biso   1.000  C
  C185     1.0000 0.87500  0.44130  0.87500  Biso   1.000  C
  C186     1.0000 0.87500  0.51490  0.87500  Biso   1.000  C
  C187     1.0000 0.87500  0.94130  0.37500  Biso   1.000  C
  C188     1.0000 0.87500  0.01490  0.37500  Biso   1.000  C
  C189     1.0000 0.37500  0.80870  0.87500  Biso   1.000  C
  C190     1.0000 0.37500  0.73510  0.87500  Biso   1.000  C
  C191     1.0000 0.37500  0.30870  0.37500  Biso   1.000  C
  C192     1.0000 0.37500  0.23510  0.37500  Biso   1.000  C
