data_image0
_cell_length_a       8.8639
_cell_length_b       20.659
_cell_length_c       34.061
_cell_angle_alpha    90
_cell_angle_beta     90
_cell_angle_gamma    90

_symmetry_space_group_name_H-M    "P 1"
_symmetry_int_tables_number       1

loop_
  _symmetry_equiv_pos_as_xyz
  'x, y, z'

loop_
  _atom_site_label
  _atom_site_occupancy
  _atom_site_fract_x
  _atom_site_fract_y
  _atom_site_fract_z
  _atom_site_thermal_displace_type
  _atom_site_B_iso_or_equiv
  _atom_site_type_symbol
  O1       1.0000 0.73920  0.33332  0.67937  Biso   1.000  O
  O2       1.0000 0.50650  0.45795  0.61500  Biso   1.000  O
  O3       1.0000 0.50520  0.33500  0.65711  Biso   1.000  O
  C1       1.0000 0.60330  0.32030  0.68237  Biso   1.000  C
  C2       1.0000 0.54710  0.28440  0.71753  Biso   1.000  C
  C3       1.0000 0.59970  0.23230  0.77878  Biso   1.000  C
  H1       1.0000 0.66830  0.22000  0.79800  Biso   1.000  H
  C4       1.0000 0.64970  0.26780  0.74641  Biso   1.000  C
  H2       1.0000 0.75030  0.28010  0.74430  Biso   1.000  H
  C5       1.0000 0.75950  0.59100  0.62523  Biso   1.000  C
  H3       1.0000 0.85010  0.56830  0.62570  Biso   1.000  H
  O4       1.0000 0.73920  0.83332  0.17937  Biso   1.000  O
  O5       1.0000 0.50650  0.95795  0.11500  Biso   1.000  O
  O6       1.0000 0.50520  0.83500  0.15711  Biso   1.000  O
  C6       1.0000 0.60330  0.82030  0.18237  Biso   1.000  C
  C7       1.0000 0.54710  0.78440  0.21753  Biso   1.000  C
  C8       1.0000 0.59970  0.73230  0.27878  Biso   1.000  C
  H4       1.0000 0.66830  0.72000  0.29800  Biso   1.000  H
  C9       1.0000 0.64970  0.76780  0.24641  Biso   1.000  C
  H5       1.0000 0.75030  0.78010  0.24430  Biso   1.000  H
  C10      1.0000 0.75950  0.09100  0.12523  Biso   1.000  C
  H6       1.0000 0.85010  0.06830  0.12570  Biso   1.000  H
  O7       1.0000 0.23920  0.33332  0.17937  Biso   1.000  O
  O8       1.0000 0.00650  0.45795  0.11500  Biso   1.000  O
  O9       1.0000 0.00520  0.33500  0.15711  Biso   1.000  O
  C11      1.0000 0.10330  0.32030  0.18237  Biso   1.000  C
  C12      1.0000 0.04710  0.28440  0.21753  Biso   1.000  C
  C13      1.0000 0.09970  0.23230  0.27878  Biso   1.000  C
  H7       1.0000 0.16830  0.22000  0.29800  Biso   1.000  H
  C14      1.0000 0.14970  0.26780  0.24641  Biso   1.000  C
  H8       1.0000 0.25030  0.28010  0.24430  Biso   1.000  H
  C15      1.0000 0.25950  0.59100  0.12523  Biso   1.000  C
  H9       1.0000 0.35010  0.56830  0.12570  Biso   1.000  H
  O10      1.0000 0.23920  0.83332  0.67937  Biso   1.000  O
  O11      1.0000 0.00650  0.95795  0.61500  Biso   1.000  O
  O12      1.0000 0.00520  0.83500  0.65711  Biso   1.000  O
  C16      1.0000 0.10330  0.82030  0.68237  Biso   1.000  C
  C17      1.0000 0.04710  0.78440  0.71753  Biso   1.000  C
  C18      1.0000 0.09970  0.73230  0.77878  Biso   1.000  C
  H10      1.0000 0.16830  0.72000  0.79800  Biso   1.000  H
  C19      1.0000 0.14970  0.76780  0.74641  Biso   1.000  C
  H11      1.0000 0.25030  0.78010  0.74430  Biso   1.000  H
  C20      1.0000 0.25950  0.09100  0.62523  Biso   1.000  C
  H12      1.0000 0.35010  0.06830  0.62570  Biso   1.000  H
  O13      1.0000 0.01080  0.41668  0.67937  Biso   1.000  O
  O14      1.0000 0.24350  0.29205  0.61500  Biso   1.000  O
  O15      1.0000 0.24480  0.41500  0.65711  Biso   1.000  O
  C21      1.0000 0.14670  0.42970  0.68237  Biso   1.000  C
  C22      1.0000 0.20290  0.46560  0.71753  Biso   1.000  C
  C23      1.0000 0.15030  0.51770  0.77878  Biso   1.000  C
  H13      1.0000 0.08170  0.53000  0.79800  Biso   1.000  H
  C24      1.0000 0.10030  0.48220  0.74641  Biso   1.000  C
  H14      1.0000 0.99970  0.46990  0.74430  Biso   1.000  H
  C25      1.0000 0.99050  0.15900  0.62523  Biso   1.000  C
  H15      1.0000 0.89990  0.18170  0.62570  Biso   1.000  H
  O16      1.0000 0.01080  0.91668  0.17937  Biso   1.000  O
  O17      1.0000 0.24350  0.79205  0.11500  Biso   1.000  O
  O18      1.0000 0.24480  0.91500  0.15711  Biso   1.000  O
  C26      1.0000 0.14670  0.92970  0.18237  Biso   1.000  C
  C27      1.0000 0.20290  0.96560  0.21753  Biso   1.000  C
  C28      1.0000 0.15030  0.01770  0.27878  Biso   1.000  C
  H16      1.0000 0.08170  0.03000  0.29800  Biso   1.000  H
  C29      1.0000 0.10030  0.98220  0.24641  Biso   1.000  C
  H17      1.0000 0.99970  0.96990  0.24430  Biso   1.000  H
  C30      1.0000 0.99050  0.65900  0.12523  Biso   1.000  C
  H18      1.0000 0.89990  0.68170  0.12570  Biso   1.000  H
  O19      1.0000 0.51080  0.41668  0.17937  Biso   1.000  O
  O20      1.0000 0.74350  0.29205  0.11500  Biso   1.000  O
  O21      1.0000 0.74480  0.41500  0.15711  Biso   1.000  O
  C31      1.0000 0.64670  0.42970  0.18237  Biso   1.000  C
  C32      1.0000 0.70290  0.46560  0.21753  Biso   1.000  C
  C33      1.0000 0.65030  0.51770  0.27878  Biso   1.000  C
  H19      1.0000 0.58170  0.53000  0.29800  Biso   1.000  H
  C34      1.0000 0.60030  0.48220  0.24641  Biso   1.000  C
  H20      1.0000 0.49970  0.46990  0.24430  Biso   1.000  H
  C35      1.0000 0.49050  0.15900  0.12523  Biso   1.000  C
  H21      1.0000 0.39990  0.18170  0.12570  Biso   1.000  H
  O22      1.0000 0.51080  0.91668  0.67937  Biso   1.000  O
  O23      1.0000 0.74350  0.79205  0.61500  Biso   1.000  O
  O24      1.0000 0.74480  0.91500  0.65711  Biso   1.000  O
  C36      1.0000 0.64670  0.92970  0.68237  Biso   1.000  C
  C37      1.0000 0.70290  0.96560  0.71753  Biso   1.000  C
  C38      1.0000 0.65030  0.01770  0.77878  Biso   1.000  C
  H22      1.0000 0.58170  0.03000  0.79800  Biso   1.000  H
  C39      1.0000 0.60030  0.98220  0.74641  Biso   1.000  C
  H23      1.0000 0.49970  0.96990  0.74430  Biso   1.000  H
  C40      1.0000 0.49050  0.65900  0.62523  Biso   1.000  C
  H24      1.0000 0.39990  0.68170  0.62570  Biso   1.000  H
  O25      1.0000 0.01080  0.33332  0.07063  Biso   1.000  O
  O26      1.0000 0.24350  0.45795  0.13500  Biso   1.000  O
  O27      1.0000 0.24480  0.33500  0.09289  Biso   1.000  O
  C41      1.0000 0.14670  0.32030  0.06763  Biso   1.000  C
  C42      1.0000 0.20290  0.28440  0.03247  Biso   1.000  C
  C43      1.0000 0.15030  0.23230  0.97122  Biso   1.000  C
  H25      1.0000 0.08170  0.22000  0.95200  Biso   1.000  H
  C44      1.0000 0.10030  0.26780  0.00359  Biso   1.000  C
  H26      1.0000 0.99970  0.28010  0.00570  Biso   1.000  H
  C45      1.0000 0.99050  0.59100  0.12477  Biso   1.000  C
  H27      1.0000 0.89990  0.56830  0.12430  Biso   1.000  H
  O28      1.0000 0.01080  0.83332  0.57063  Biso   1.000  O
  O29      1.0000 0.24350  0.95795  0.63500  Biso   1.000  O
  O30      1.0000 0.24480  0.83500  0.59289  Biso   1.000  O
  C46      1.0000 0.14670  0.82030  0.56763  Biso   1.000  C
  C47      1.0000 0.20290  0.78440  0.53247  Biso   1.000  C
  C48      1.0000 0.15030  0.73230  0.47122  Biso   1.000  C
  H28      1.0000 0.08170  0.72000  0.45200  Biso   1.000  H
  C49      1.0000 0.10030  0.76780  0.50359  Biso   1.000  C
  H29      1.0000 0.99970  0.78010  0.50570  Biso   1.000  H
  C50      1.0000 0.99050  0.09100  0.62477  Biso   1.000  C
  H30      1.0000 0.89990  0.06830  0.62430  Biso   1.000  H
  O31      1.0000 0.51080  0.33332  0.57063  Biso   1.000  O
  O32      1.0000 0.74350  0.45795  0.63500  Biso   1.000  O
  O33      1.0000 0.74480  0.33500  0.59289  Biso   1.000  O
  C51      1.0000 0.64670  0.32030  0.56763  Biso   1.000  C
  C52      1.0000 0.70290  0.28440  0.53247  Biso   1.000  C
  C53      1.0000 0.65030  0.23230  0.47122  Biso   1.000  C
  H31      1.0000 0.58170  0.22000  0.45200  Biso   1.000  H
  C54      1.0000 0.60030  0.26780  0.50359  Biso   1.000  C
  H32      1.0000 0.49970  0.28010  0.50570  Biso   1.000  H
  C55      1.0000 0.49050  0.59100  0.62477  Biso   1.000  C
  H33      1.0000 0.39990  0.56830  0.62430  Biso   1.000  H
  O34      1.0000 0.51080  0.83332  0.07063  Biso   1.000  O
  O35      1.0000 0.74350  0.95795  0.13500  Biso   1.000  O
  O36      1.0000 0.74480  0.83500  0.09289  Biso   1.000  O
  C56      1.0000 0.64670  0.82030  0.06763  Biso   1.000  C
  C57      1.0000 0.70290  0.78440  0.03247  Biso   1.000  C
  C58      1.0000 0.65030  0.73230  0.97122  Biso   1.000  C
  H34      1.0000 0.58170  0.72000  0.95200  Biso   1.000  H
  C59      1.0000 0.60030  0.76780  0.00359  Biso   1.000  C
  H35      1.0000 0.49970  0.78010  0.00570  Biso   1.000  H
  C60      1.0000 0.49050  0.09100  0.12477  Biso   1.000  C
  H36      1.0000 0.39990  0.06830  0.12430  Biso   1.000  H
  O37      1.0000 0.73920  0.41668  0.07063  Biso   1.000  O
  O38      1.0000 0.50650  0.29205  0.13500  Biso   1.000  O
  O39      1.0000 0.50520  0.41500  0.09289  Biso   1.000  O
  C61      1.0000 0.60330  0.42970  0.06763  Biso   1.000  C
  C62      1.0000 0.54710  0.46560  0.03247  Biso   1.000  C
  C63      1.0000 0.59970  0.51770  0.97122  Biso   1.000  C
  H37      1.0000 0.66830  0.53000  0.95200  Biso   1.000  H
  C64      1.0000 0.64970  0.48220  0.00359  Biso   1.000  C
  H38      1.0000 0.75030  0.46990  0.00570  Biso   1.000  H
  C65      1.0000 0.75950  0.15900  0.12477  Biso   1.000  C
  H39      1.0000 0.85010  0.18170  0.12430  Biso   1.000  H
  O40      1.0000 0.73920  0.91668  0.57063  Biso   1.000  O
  O41      1.0000 0.50650  0.79205  0.63500  Biso   1.000  O
  O42      1.0000 0.50520  0.91500  0.59289  Biso   1.000  O
  C66      1.0000 0.60330  0.92970  0.56763  Biso   1.000  C
  C67      1.0000 0.54710  0.96560  0.53247  Biso   1.000  C
  C68      1.0000 0.59970  0.01770  0.47122  Biso   1.000  C
  H40      1.0000 0.66830  0.03000  0.45200  Biso   1.000  H
  C69      1.0000 0.64970  0.98220  0.50359  Biso   1.000  C
  H41      1.0000 0.75030  0.96990  0.50570  Biso   1.000  H
  C70      1.0000 0.75950  0.65900  0.62477  Biso   1.000  C
  H42      1.0000 0.85010  0.68170  0.62430  Biso   1.000  H
  O43      1.0000 0.23920  0.41668  0.57063  Biso   1.000  O
  O44      1.0000 0.00650  0.29205  0.63500  Biso   1.000  O
  O45      1.0000 0.00520  0.41500  0.59289  Biso   1.000  O
  C71      1.0000 0.10330  0.42970  0.56763  Biso   1.000  C
  C72      1.0000 0.04710  0.46560  0.53247  Biso   1.000  C
  C73      1.0000 0.09970  0.51770  0.47122  Biso   1.000  C
  H43      1.0000 0.16830  0.53000  0.45200  Biso   1.000  H
  C74      1.0000 0.14970  0.48220  0.50359  Biso   1.000  C
  H44      1.0000 0.25030  0.46990  0.50570  Biso   1.000  H
  C75      1.0000 0.25950  0.15900  0.62477  Biso   1.000  C
  H45      1.0000 0.35010  0.18170  0.62430  Biso   1.000  H
  O46      1.0000 0.23920  0.91668  0.07063  Biso   1.000  O
  O47      1.0000 0.00650  0.79205  0.13500  Biso   1.000  O
  O48      1.0000 0.00520  0.91500  0.09289  Biso   1.000  O
  C76      1.0000 0.10330  0.92970  0.06763  Biso   1.000  C
  C77      1.0000 0.04710  0.96560  0.03247  Biso   1.000  C
  C78      1.0000 0.09970  0.01770  0.97122  Biso   1.000  C
  H46      1.0000 0.16830  0.03000  0.95200  Biso   1.000  H
  C79      1.0000 0.14970  0.98220  0.00359  Biso   1.000  C
  H47      1.0000 0.25030  0.96990  0.00570  Biso   1.000  H
  C80      1.0000 0.25950  0.65900  0.12477  Biso   1.000  C
  H48      1.0000 0.35010  0.68170  0.12430  Biso   1.000  H
  O49      1.0000 0.26080  0.66668  0.32063  Biso   1.000  O
  O50      1.0000 0.49350  0.54205  0.38500  Biso   1.000  O
  O51      1.0000 0.49480  0.66500  0.34289  Biso   1.000  O
  C81      1.0000 0.39670  0.67970  0.31763  Biso   1.000  C
  C82      1.0000 0.45290  0.71560  0.28247  Biso   1.000  C
  C83      1.0000 0.40030  0.76770  0.22122  Biso   1.000  C
  H49      1.0000 0.33170  0.78000  0.20200  Biso   1.000  H
  C84      1.0000 0.35030  0.73220  0.25359  Biso   1.000  C
  H50      1.0000 0.24970  0.71990  0.25570  Biso   1.000  H
  C85      1.0000 0.24050  0.40900  0.37477  Biso   1.000  C
  H51      1.0000 0.14990  0.43170  0.37430  Biso   1.000  H
  O52      1.0000 0.26080  0.16668  0.82063  Biso   1.000  O
  O53      1.0000 0.49350  0.04205  0.88500  Biso   1.000  O
  O54      1.0000 0.49480  0.16500  0.84289  Biso   1.000  O
  C86      1.0000 0.39670  0.17970  0.81763  Biso   1.000  C
  C87      1.0000 0.45290  0.21560  0.78247  Biso   1.000  C
  C88      1.0000 0.40030  0.26770  0.72122  Biso   1.000  C
  H52      1.0000 0.33170  0.28000  0.70200  Biso   1.000  H
  C89      1.0000 0.35030  0.23220  0.75359  Biso   1.000  C
  H53      1.0000 0.24970  0.21990  0.75570  Biso   1.000  H
  C90      1.0000 0.24050  0.90900  0.87477  Biso   1.000  C
  H54      1.0000 0.14990  0.93170  0.87430  Biso   1.000  H
  O55      1.0000 0.76080  0.66668  0.82063  Biso   1.000  O
  O56      1.0000 0.99350  0.54205  0.88500  Biso   1.000  O
  O57      1.0000 0.99480  0.66500  0.84289  Biso   1.000  O
  C91      1.0000 0.89670  0.67970  0.81763  Biso   1.000  C
  C92      1.0000 0.95290  0.71560  0.78247  Biso   1.000  C
  C93      1.0000 0.90030  0.76770  0.72122  Biso   1.000  C
  H55      1.0000 0.83170  0.78000  0.70200  Biso   1.000  H
  C94      1.0000 0.85030  0.73220  0.75359  Biso   1.000  C
  H56      1.0000 0.74970  0.71990  0.75570  Biso   1.000  H
  C95      1.0000 0.74050  0.40900  0.87477  Biso   1.000  C
  H57      1.0000 0.64990  0.43170  0.87430  Biso   1.000  H
  O58      1.0000 0.76080  0.16668  0.32063  Biso   1.000  O
  O59      1.0000 0.99350  0.04205  0.38500  Biso   1.000  O
  O60      1.0000 0.99480  0.16500  0.34289  Biso   1.000  O
  C96      1.0000 0.89670  0.17970  0.31763  Biso   1.000  C
  C97      1.0000 0.95290  0.21560  0.28247  Biso   1.000  C
  C98      1.0000 0.90030  0.26770  0.22122  Biso   1.000  C
  H58      1.0000 0.83170  0.28000  0.20200  Biso   1.000  H
  C99      1.0000 0.85030  0.23220  0.25359  Biso   1.000  C
  H59      1.0000 0.74970  0.21990  0.25570  Biso   1.000  H
  C100     1.0000 0.74050  0.90900  0.37477  Biso   1.000  C
  H60      1.0000 0.64990  0.93170  0.37430  Biso   1.000  H
  O61      1.0000 0.98920  0.58332  0.32063  Biso   1.000  O
  O62      1.0000 0.75650  0.70795  0.38500  Biso   1.000  O
  O63      1.0000 0.75520  0.58500  0.34289  Biso   1.000  O
  C101     1.0000 0.85330  0.57030  0.31763  Biso   1.000  C
  C102     1.0000 0.79710  0.53440  0.28247  Biso   1.000  C
  C103     1.0000 0.84970  0.48230  0.22122  Biso   1.000  C
  H61      1.0000 0.91830  0.47000  0.20200  Biso   1.000  H
  C104     1.0000 0.89970  0.51780  0.25359  Biso   1.000  C
  H62      1.0000 0.00030  0.53010  0.25570  Biso   1.000  H
  C105     1.0000 0.00950  0.84100  0.37477  Biso   1.000  C
  H63      1.0000 0.10010  0.81830  0.37430  Biso   1.000  H
  O64      1.0000 0.98920  0.08332  0.82063  Biso   1.000  O
  O65      1.0000 0.75650  0.20795  0.88500  Biso   1.000  O
  O66      1.0000 0.75520  0.08500  0.84289  Biso   1.000  O
  C106     1.0000 0.85330  0.07030  0.81763  Biso   1.000  C
  C107     1.0000 0.79710  0.03440  0.78247  Biso   1.000  C
  C108     1.0000 0.84970  0.98230  0.72122  Biso   1.000  C
  H64      1.0000 0.91830  0.97000  0.70200  Biso   1.000  H
  C109     1.0000 0.89970  0.01780  0.75359  Biso   1.000  C
  H65      1.0000 0.00030  0.03010  0.75570  Biso   1.000  H
  C110     1.0000 0.00950  0.34100  0.87477  Biso   1.000  C
  H66      1.0000 0.10010  0.31830  0.87430  Biso   1.000  H
  O67      1.0000 0.48920  0.58332  0.82063  Biso   1.000  O
  O68      1.0000 0.25650  0.70795  0.88500  Biso   1.000  O
  O69      1.0000 0.25520  0.58500  0.84289  Biso   1.000  O
  C111     1.0000 0.35330  0.57030  0.81763  Biso   1.000  C
  C112     1.0000 0.29710  0.53440  0.78247  Biso   1.000  C
  C113     1.0000 0.34970  0.48230  0.72122  Biso   1.000  C
  H67      1.0000 0.41830  0.47000  0.70200  Biso   1.000  H
  C114     1.0000 0.39970  0.51780  0.75359  Biso   1.000  C
  H68      1.0000 0.50030  0.53010  0.75570  Biso   1.000  H
  C115     1.0000 0.50950  0.84100  0.87477  Biso   1.000  C
  H69      1.0000 0.60010  0.81830  0.87430  Biso   1.000  H
  O70      1.0000 0.48920  0.08332  0.32063  Biso   1.000  O
  O71      1.0000 0.25650  0.20795  0.38500  Biso   1.000  O
  O72      1.0000 0.25520  0.08500  0.34289  Biso   1.000  O
  C116     1.0000 0.35330  0.07030  0.31763  Biso   1.000  C
  C117     1.0000 0.29710  0.03440  0.28247  Biso   1.000  C
  C118     1.0000 0.34970  0.98230  0.22122  Biso   1.000  C
  H70      1.0000 0.41830  0.97000  0.20200  Biso   1.000  H
  C119     1.0000 0.39970  0.01780  0.25359  Biso   1.000  C
  H71      1.0000 0.50030  0.03010  0.25570  Biso   1.000  H
  C120     1.0000 0.50950  0.34100  0.37477  Biso   1.000  C
  H72      1.0000 0.60010  0.31830  0.37430  Biso   1.000  H
  O73      1.0000 0.98920  0.66668  0.92937  Biso   1.000  O
  O74      1.0000 0.75650  0.54205  0.86500  Biso   1.000  O
  O75      1.0000 0.75520  0.66500  0.90711  Biso   1.000  O
  C121     1.0000 0.85330  0.67970  0.93237  Biso   1.000  C
  C122     1.0000 0.79710  0.71560  0.96753  Biso   1.000  C
  C123     1.0000 0.84970  0.76770  0.02878  Biso   1.000  C
  H73      1.0000 0.91830  0.78000  0.04800  Biso   1.000  H
  C124     1.0000 0.89970  0.73220  0.99641  Biso   1.000  C
  H74      1.0000 0.00030  0.71990  0.99430  Biso   1.000  H
  C125     1.0000 0.00950  0.40900  0.87523  Biso   1.000  C
  H75      1.0000 0.10010  0.43170  0.87570  Biso   1.000  H
  O76      1.0000 0.98920  0.16668  0.42937  Biso   1.000  O
  O77      1.0000 0.75650  0.04205  0.36500  Biso   1.000  O
  O78      1.0000 0.75520  0.16500  0.40711  Biso   1.000  O
  C126     1.0000 0.85330  0.17970  0.43237  Biso   1.000  C
  C127     1.0000 0.79710  0.21560  0.46753  Biso   1.000  C
  C128     1.0000 0.84970  0.26770  0.52878  Biso   1.000  C
  H76      1.0000 0.91830  0.28000  0.54800  Biso   1.000  H
  C129     1.0000 0.89970  0.23220  0.49641  Biso   1.000  C
  H77      1.0000 0.00030  0.21990  0.49430  Biso   1.000  H
  C130     1.0000 0.00950  0.90900  0.37523  Biso   1.000  C
  H78      1.0000 0.10010  0.93170  0.37570  Biso   1.000  H
  O79      1.0000 0.48920  0.66668  0.42937  Biso   1.000  O
  O80      1.0000 0.25650  0.54205  0.36500  Biso   1.000  O
  O81      1.0000 0.25520  0.66500  0.40711  Biso   1.000  O
  C131     1.0000 0.35330  0.67970  0.43237  Biso   1.000  C
  C132     1.0000 0.29710  0.71560  0.46753  Biso   1.000  C
  C133     1.0000 0.34970  0.76770  0.52878  Biso   1.000  C
  H79      1.0000 0.41830  0.78000  0.54800  Biso   1.000  H
  C134     1.0000 0.39970  0.73220  0.49641  Biso   1.000  C
  H80      1.0000 0.50030  0.71990  0.49430  Biso   1.000  H
  C135     1.0000 0.50950  0.40900  0.37523  Biso   1.000  C
  H81      1.0000 0.60010  0.43170  0.37570  Biso   1.000  H
  O82      1.0000 0.48920  0.16668  0.92937  Biso   1.000  O
  O83      1.0000 0.25650  0.04205  0.86500  Biso   1.000  O
  O84      1.0000 0.25520  0.16500  0.90711  Biso   1.000  O
  C136     1.0000 0.35330  0.17970  0.93237  Biso   1.000  C
  C137     1.0000 0.29710  0.21560  0.96753  Biso   1.000  C
  C138     1.0000 0.34970  0.26770  0.02878  Biso   1.000  C
  H82      1.0000 0.41830  0.28000  0.04800  Biso   1.000  H
  C139     1.0000 0.39970  0.23220  0.99641  Biso   1.000  C
  H83      1.0000 0.50030  0.21990  0.99430  Biso   1.000  H
  C140     1.0000 0.50950  0.90900  0.87523  Biso   1.000  C
  H84      1.0000 0.60010  0.93170  0.87570  Biso   1.000  H
  O85      1.0000 0.26080  0.58332  0.92937  Biso   1.000  O
  O86      1.0000 0.49350  0.70795  0.86500  Biso   1.000  O
  O87      1.0000 0.49480  0.58500  0.90711  Biso   1.000  O
  C141     1.0000 0.39670  0.57030  0.93237  Biso   1.000  C
  C142     1.0000 0.45290  0.53440  0.96753  Biso   1.000  C
  C143     1.0000 0.40030  0.48230  0.02878  Biso   1.000  C
  H85      1.0000 0.33170  0.47000  0.04800  Biso   1.000  H
  C144     1.0000 0.35030  0.51780  0.99641  Biso   1.000  C
  H86      1.0000 0.24970  0.53010  0.99430  Biso   1.000  H
  C145     1.0000 0.24050  0.84100  0.87523  Biso   1.000  C
  H87      1.0000 0.14990  0.81830  0.87570  Biso   1.000  H
  O88      1.0000 0.26080  0.08332  0.42937  Biso   1.000  O
  O89      1.0000 0.49350  0.20795  0.36500  Biso   1.000  O
  O90      1.0000 0.49480  0.08500  0.40711  Biso   1.000  O
  C146     1.0000 0.39670  0.07030  0.43237  Biso   1.000  C
  C147     1.0000 0.45290  0.03440  0.46753  Biso   1.000  C
  C148     1.0000 0.40030  0.98230  0.52878  Biso   1.000  C
  H88      1.0000 0.33170  0.97000  0.54800  Biso   1.000  H
  C149     1.0000 0.35030  0.01780  0.49641  Biso   1.000  C
  H89      1.0000 0.24970  0.03010  0.49430  Biso   1.000  H
  C150     1.0000 0.24050  0.34100  0.37523  Biso   1.000  C
  H90      1.0000 0.14990  0.31830  0.37570  Biso   1.000  H
  O91      1.0000 0.76080  0.58332  0.42937  Biso   1.000  O
  O92      1.0000 0.99350  0.70795  0.36500  Biso   1.000  O
  O93      1.0000 0.99480  0.58500  0.40711  Biso   1.000  O
  C151     1.0000 0.89670  0.57030  0.43237  Biso   1.000  C
  C152     1.0000 0.95290  0.53440  0.46753  Biso   1.000  C
  C153     1.0000 0.90030  0.48230  0.52878  Biso   1.000  C
  H91      1.0000 0.83170  0.47000  0.54800  Biso   1.000  H
  C154     1.0000 0.85030  0.51780  0.49641  Biso   1.000  C
  H92      1.0000 0.74970  0.53010  0.49430  Biso   1.000  H
  C155     1.0000 0.74050  0.84100  0.37523  Biso   1.000  C
  H93      1.0000 0.64990  0.81830  0.37570  Biso   1.000  H
  O94      1.0000 0.76080  0.08332  0.92937  Biso   1.000  O
  O95      1.0000 0.99350  0.20795  0.86500  Biso   1.000  O
  O96      1.0000 0.99480  0.08500  0.90711  Biso   1.000  O
  C156     1.0000 0.89670  0.07030  0.93237  Biso   1.000  C
  C157     1.0000 0.95290  0.03440  0.96753  Biso   1.000  C
  C158     1.0000 0.90030  0.98230  0.02878  Biso   1.000  C
  H94      1.0000 0.83170  0.97000  0.04800  Biso   1.000  H
  C159     1.0000 0.85030  0.01780  0.99641  Biso   1.000  C
  H95      1.0000 0.74970  0.03010  0.99430  Biso   1.000  H
  C160     1.0000 0.74050  0.34100  0.87523  Biso   1.000  C
  H96      1.0000 0.64990  0.31830  0.87570  Biso   1.000  H
  Sc1      1.0000 0.37500  0.37500  0.61412  Biso   1.000  Sc
  Sc2      1.0000 0.37500  0.87500  0.11412  Biso   1.000  Sc
  Sc3      1.0000 0.87500  0.37500  0.11412  Biso   1.000  Sc
  Sc4      1.0000 0.87500  0.87500  0.61412  Biso   1.000  Sc
  Sc5      1.0000 0.37500  0.37500  0.13588  Biso   1.000  Sc
  Sc6      1.0000 0.37500  0.87500  0.63588  Biso   1.000  Sc
  Sc7      1.0000 0.87500  0.37500  0.63588  Biso   1.000  Sc
  Sc8      1.0000 0.87500  0.87500  0.13588  Biso   1.000  Sc
  Sc9      1.0000 0.62500  0.62500  0.38588  Biso   1.000  Sc
  Sc10     1.0000 0.62500  0.12500  0.88588  Biso   1.000  Sc
  Sc11     1.0000 0.12500  0.62500  0.88588  Biso   1.000  Sc
  Sc12     1.0000 0.12500  0.12500  0.38588  Biso   1.000  Sc
  Sc13     1.0000 0.62500  0.62500  0.86412  Biso   1.000  Sc
  Sc14     1.0000 0.62500  0.12500  0.36412  Biso   1.000  Sc
  Sc15     1.0000 0.12500  0.62500  0.36412  Biso   1.000  Sc
  Sc16     1.0000 0.12500  0.12500  0.86412  Biso   1.000  Sc
  C161     1.0000 0.62500  0.55830  0.62500  Biso   1.000  C
  C162     1.0000 0.62500  0.48540  0.62500  Biso   1.000  C
  C163     1.0000 0.62500  0.05830  0.12500  Biso   1.000  C
  C164     1.0000 0.62500  0.98540  0.12500  Biso   1.000  C
  C165     1.0000 0.12500  0.19170  0.62500  Biso   1.000  C
  C166     1.0000 0.12500  0.26460  0.62500  Biso   1.000  C
  C167     1.0000 0.12500  0.69170  0.12500  Biso   1.000  C
  C168     1.0000 0.12500  0.76460  0.12500  Biso   1.000  C
  C169     1.0000 0.62500  0.69170  0.62500  Biso   1.000  C
  C170     1.0000 0.62500  0.76460  0.62500  Biso   1.000  C
  C171     1.0000 0.12500  0.55830  0.12500  Biso   1.000  C
  C172     1.0000 0.12500  0.48540  0.12500  Biso   1.000  C
  C173     1.0000 0.12500  0.05830  0.62500  Biso   1.000  C
  C174     1.0000 0.12500  0.98540  0.62500  Biso   1.000  C
  C175     1.0000 0.62500  0.19170  0.12500  Biso   1.000  C
  C176     1.0000 0.62500  0.26460  0.12500  Biso   1.000  C
  C177     1.0000 0.37500  0.44170  0.37500  Biso   1.000  C
  C178     1.0000 0.37500  0.51460  0.37500  Biso   1.000  C
  C179     1.0000 0.37500  0.94170  0.87500  Biso   1.000  C
  C180     1.0000 0.37500  0.01460  0.87500  Biso   1.000  C
  C181     1.0000 0.87500  0.80830  0.37500  Biso   1.000  C
  C182     1.0000 0.87500  0.73540  0.37500  Biso   1.000  C
  C183     1.0000 0.87500  0.30830  0.87500  Biso   1.000  C
  C184     1.0000 0.87500  0.23540  0.87500  Biso   1.000  C
  C185     1.0000 0.87500  0.44170  0.87500  Biso   1.000  C
  C186     1.0000 0.87500  0.51460  0.87500  Biso   1.000  C
  C187     1.0000 0.87500  0.94170  0.37500  Biso   1.000  C
  C188     1.0000 0.87500  0.01460  0.37500  Biso   1.000  C
  C189     1.0000 0.37500  0.80830  0.87500  Biso   1.000  C
  C190     1.0000 0.37500  0.73540  0.87500  Biso   1.000  C
  C191     1.0000 0.37500  0.30830  0.37500  Biso   1.000  C
  C192     1.0000 0.37500  0.23540  0.37500  Biso   1.000  C
