data_image0
_cell_length_a       8.8524
_cell_length_b       20.7005
_cell_length_c       34.194
_cell_angle_alpha    90
_cell_angle_beta     90
_cell_angle_gamma    90

_symmetry_space_group_name_H-M    "P 1"
_symmetry_int_tables_number       1

loop_
  _symmetry_equiv_pos_as_xyz
  'x, y, z'

loop_
  _atom_site_label
  _atom_site_occupancy
  _atom_site_fract_x
  _atom_site_fract_y
  _atom_site_fract_z
  _atom_site_thermal_displace_type
  _atom_site_B_iso_or_equiv
  _atom_site_type_symbol
  O1       1.0000 0.73910  0.33325  0.67920  Biso   1.000  O
  O2       1.0000 0.50550  0.45792  0.61500  Biso   1.000  O
  O3       1.0000 0.50430  0.33436  0.65728  Biso   1.000  O
  C1       1.0000 0.60460  0.32020  0.68237  Biso   1.000  C
  C2       1.0000 0.54810  0.28410  0.71752  Biso   1.000  C
  C3       1.0000 0.59960  0.23090  0.77811  Biso   1.000  C
  H1       1.0000 0.66830  0.21790  0.79710  Biso   1.000  H
  C4       1.0000 0.65150  0.26550  0.74567  Biso   1.000  C
  H2       1.0000 0.75320  0.27580  0.74310  Biso   1.000  H
  C5       1.0000 0.75840  0.59130  0.62551  Biso   1.000  C
  H3       1.0000 0.84950  0.56900  0.62660  Biso   1.000  H
  O4       1.0000 0.73910  0.83325  0.17920  Biso   1.000  O
  O5       1.0000 0.50550  0.95792  0.11500  Biso   1.000  O
  O6       1.0000 0.50430  0.83436  0.15728  Biso   1.000  O
  C6       1.0000 0.60460  0.82020  0.18237  Biso   1.000  C
  C7       1.0000 0.54810  0.78410  0.21752  Biso   1.000  C
  C8       1.0000 0.59960  0.73090  0.27811  Biso   1.000  C
  H4       1.0000 0.66830  0.71790  0.29710  Biso   1.000  H
  C9       1.0000 0.65150  0.76550  0.24567  Biso   1.000  C
  H5       1.0000 0.75320  0.77580  0.24310  Biso   1.000  H
  C10      1.0000 0.75840  0.09130  0.12551  Biso   1.000  C
  H6       1.0000 0.84950  0.06900  0.12660  Biso   1.000  H
  O7       1.0000 0.23910  0.33325  0.17920  Biso   1.000  O
  O8       1.0000 0.00550  0.45792  0.11500  Biso   1.000  O
  O9       1.0000 0.00430  0.33436  0.15728  Biso   1.000  O
  C11      1.0000 0.10460  0.32020  0.18237  Biso   1.000  C
  C12      1.0000 0.04810  0.28410  0.21752  Biso   1.000  C
  C13      1.0000 0.09960  0.23090  0.27811  Biso   1.000  C
  H7       1.0000 0.16830  0.21790  0.29710  Biso   1.000  H
  C14      1.0000 0.15150  0.26550  0.24567  Biso   1.000  C
  H8       1.0000 0.25320  0.27580  0.24310  Biso   1.000  H
  C15      1.0000 0.25840  0.59130  0.12551  Biso   1.000  C
  H9       1.0000 0.34950  0.56900  0.12660  Biso   1.000  H
  O10      1.0000 0.23910  0.83325  0.67920  Biso   1.000  O
  O11      1.0000 0.00550  0.95792  0.61500  Biso   1.000  O
  O12      1.0000 0.00430  0.83436  0.65728  Biso   1.000  O
  C16      1.0000 0.10460  0.82020  0.68237  Biso   1.000  C
  C17      1.0000 0.04810  0.78410  0.71752  Biso   1.000  C
  C18      1.0000 0.09960  0.73090  0.77811  Biso   1.000  C
  H10      1.0000 0.16830  0.71790  0.79710  Biso   1.000  H
  C19      1.0000 0.15150  0.76550  0.74567  Biso   1.000  C
  H11      1.0000 0.25320  0.77580  0.74310  Biso   1.000  H
  C20      1.0000 0.25840  0.09130  0.62551  Biso   1.000  C
  H12      1.0000 0.34950  0.06900  0.62660  Biso   1.000  H
  O13      1.0000 0.01090  0.41675  0.67920  Biso   1.000  O
  O14      1.0000 0.24450  0.29208  0.61500  Biso   1.000  O
  O15      1.0000 0.24570  0.41564  0.65728  Biso   1.000  O
  C21      1.0000 0.14540  0.42980  0.68237  Biso   1.000  C
  C22      1.0000 0.20190  0.46590  0.71752  Biso   1.000  C
  C23      1.0000 0.15040  0.51910  0.77811  Biso   1.000  C
  H13      1.0000 0.08170  0.53210  0.79710  Biso   1.000  H
  C24      1.0000 0.09850  0.48450  0.74567  Biso   1.000  C
  H14      1.0000 0.99680  0.47420  0.74310  Biso   1.000  H
  C25      1.0000 0.99160  0.15870  0.62551  Biso   1.000  C
  H15      1.0000 0.90050  0.18100  0.62660  Biso   1.000  H
  O16      1.0000 0.01090  0.91675  0.17920  Biso   1.000  O
  O17      1.0000 0.24450  0.79208  0.11500  Biso   1.000  O
  O18      1.0000 0.24570  0.91564  0.15728  Biso   1.000  O
  C26      1.0000 0.14540  0.92980  0.18237  Biso   1.000  C
  C27      1.0000 0.20190  0.96590  0.21752  Biso   1.000  C
  C28      1.0000 0.15040  0.01910  0.27811  Biso   1.000  C
  H16      1.0000 0.08170  0.03210  0.29710  Biso   1.000  H
  C29      1.0000 0.09850  0.98450  0.24567  Biso   1.000  C
  H17      1.0000 0.99680  0.97420  0.24310  Biso   1.000  H
  C30      1.0000 0.99160  0.65870  0.12551  Biso   1.000  C
  H18      1.0000 0.90050  0.68100  0.12660  Biso   1.000  H
  O19      1.0000 0.51090  0.41675  0.17920  Biso   1.000  O
  O20      1.0000 0.74450  0.29208  0.11500  Biso   1.000  O
  O21      1.0000 0.74570  0.41564  0.15728  Biso   1.000  O
  C31      1.0000 0.64540  0.42980  0.18237  Biso   1.000  C
  C32      1.0000 0.70190  0.46590  0.21752  Biso   1.000  C
  C33      1.0000 0.65040  0.51910  0.27811  Biso   1.000  C
  H19      1.0000 0.58170  0.53210  0.29710  Biso   1.000  H
  C34      1.0000 0.59850  0.48450  0.24567  Biso   1.000  C
  H20      1.0000 0.49680  0.47420  0.24310  Biso   1.000  H
  C35      1.0000 0.49160  0.15870  0.12551  Biso   1.000  C
  H21      1.0000 0.40050  0.18100  0.12660  Biso   1.000  H
  O22      1.0000 0.51090  0.91675  0.67920  Biso   1.000  O
  O23      1.0000 0.74450  0.79208  0.61500  Biso   1.000  O
  O24      1.0000 0.74570  0.91564  0.65728  Biso   1.000  O
  C36      1.0000 0.64540  0.92980  0.68237  Biso   1.000  C
  C37      1.0000 0.70190  0.96590  0.71752  Biso   1.000  C
  C38      1.0000 0.65040  0.01910  0.77811  Biso   1.000  C
  H22      1.0000 0.58170  0.03210  0.79710  Biso   1.000  H
  C39      1.0000 0.59850  0.98450  0.74567  Biso   1.000  C
  H23      1.0000 0.49680  0.97420  0.74310  Biso   1.000  H
  C40      1.0000 0.49160  0.65870  0.62551  Biso   1.000  C
  H24      1.0000 0.40050  0.68100  0.62660  Biso   1.000  H
  O25      1.0000 0.01090  0.33325  0.07080  Biso   1.000  O
  O26      1.0000 0.24450  0.45792  0.13500  Biso   1.000  O
  O27      1.0000 0.24570  0.33436  0.09272  Biso   1.000  O
  C41      1.0000 0.14540  0.32020  0.06763  Biso   1.000  C
  C42      1.0000 0.20190  0.28410  0.03248  Biso   1.000  C
  C43      1.0000 0.15040  0.23090  0.97189  Biso   1.000  C
  H25      1.0000 0.08170  0.21790  0.95290  Biso   1.000  H
  C44      1.0000 0.09850  0.26550  0.00433  Biso   1.000  C
  H26      1.0000 0.99680  0.27580  0.00690  Biso   1.000  H
  C45      1.0000 0.99160  0.59130  0.12449  Biso   1.000  C
  H27      1.0000 0.90050  0.56900  0.12340  Biso   1.000  H
  O28      1.0000 0.01090  0.83325  0.57080  Biso   1.000  O
  O29      1.0000 0.24450  0.95792  0.63500  Biso   1.000  O
  O30      1.0000 0.24570  0.83436  0.59272  Biso   1.000  O
  C46      1.0000 0.14540  0.82020  0.56763  Biso   1.000  C
  C47      1.0000 0.20190  0.78410  0.53248  Biso   1.000  C
  C48      1.0000 0.15040  0.73090  0.47189  Biso   1.000  C
  H28      1.0000 0.08170  0.71790  0.45290  Biso   1.000  H
  C49      1.0000 0.09850  0.76550  0.50433  Biso   1.000  C
  H29      1.0000 0.99680  0.77580  0.50690  Biso   1.000  H
  C50      1.0000 0.99160  0.09130  0.62449  Biso   1.000  C
  H30      1.0000 0.90050  0.06900  0.62340  Biso   1.000  H
  O31      1.0000 0.51090  0.33325  0.57080  Biso   1.000  O
  O32      1.0000 0.74450  0.45792  0.63500  Biso   1.000  O
  O33      1.0000 0.74570  0.33436  0.59272  Biso   1.000  O
  C51      1.0000 0.64540  0.32020  0.56763  Biso   1.000  C
  C52      1.0000 0.70190  0.28410  0.53248  Biso   1.000  C
  C53      1.0000 0.65040  0.23090  0.47189  Biso   1.000  C
  H31      1.0000 0.58170  0.21790  0.45290  Biso   1.000  H
  C54      1.0000 0.59850  0.26550  0.50433  Biso   1.000  C
  H32      1.0000 0.49680  0.27580  0.50690  Biso   1.000  H
  C55      1.0000 0.49160  0.59130  0.62449  Biso   1.000  C
  H33      1.0000 0.40050  0.56900  0.62340  Biso   1.000  H
  O34      1.0000 0.51090  0.83325  0.07080  Biso   1.000  O
  O35      1.0000 0.74450  0.95792  0.13500  Biso   1.000  O
  O36      1.0000 0.74570  0.83436  0.09272  Biso   1.000  O
  C56      1.0000 0.64540  0.82020  0.06763  Biso   1.000  C
  C57      1.0000 0.70190  0.78410  0.03248  Biso   1.000  C
  C58      1.0000 0.65040  0.73090  0.97189  Biso   1.000  C
  H34      1.0000 0.58170  0.71790  0.95290  Biso   1.000  H
  C59      1.0000 0.59850  0.76550  0.00433  Biso   1.000  C
  H35      1.0000 0.49680  0.77580  0.00690  Biso   1.000  H
  C60      1.0000 0.49160  0.09130  0.12449  Biso   1.000  C
  H36      1.0000 0.40050  0.06900  0.12340  Biso   1.000  H
  O37      1.0000 0.73910  0.41675  0.07080  Biso   1.000  O
  O38      1.0000 0.50550  0.29208  0.13500  Biso   1.000  O
  O39      1.0000 0.50430  0.41564  0.09272  Biso   1.000  O
  C61      1.0000 0.60460  0.42980  0.06763  Biso   1.000  C
  C62      1.0000 0.54810  0.46590  0.03248  Biso   1.000  C
  C63      1.0000 0.59960  0.51910  0.97189  Biso   1.000  C
  H37      1.0000 0.66830  0.53210  0.95290  Biso   1.000  H
  C64      1.0000 0.65150  0.48450  0.00433  Biso   1.000  C
  H38      1.0000 0.75320  0.47420  0.00690  Biso   1.000  H
  C65      1.0000 0.75840  0.15870  0.12449  Biso   1.000  C
  H39      1.0000 0.84950  0.18100  0.12340  Biso   1.000  H
  O40      1.0000 0.73910  0.91675  0.57080  Biso   1.000  O
  O41      1.0000 0.50550  0.79208  0.63500  Biso   1.000  O
  O42      1.0000 0.50430  0.91564  0.59272  Biso   1.000  O
  C66      1.0000 0.60460  0.92980  0.56763  Biso   1.000  C
  C67      1.0000 0.54810  0.96590  0.53248  Biso   1.000  C
  C68      1.0000 0.59960  0.01910  0.47189  Biso   1.000  C
  H40      1.0000 0.66830  0.03210  0.45290  Biso   1.000  H
  C69      1.0000 0.65150  0.98450  0.50433  Biso   1.000  C
  H41      1.0000 0.75320  0.97420  0.50690  Biso   1.000  H
  C70      1.0000 0.75840  0.65870  0.62449  Biso   1.000  C
  H42      1.0000 0.84950  0.68100  0.62340  Biso   1.000  H
  O43      1.0000 0.23910  0.41675  0.57080  Biso   1.000  O
  O44      1.0000 0.00550  0.29208  0.63500  Biso   1.000  O
  O45      1.0000 0.00430  0.41564  0.59272  Biso   1.000  O
  C71      1.0000 0.10460  0.42980  0.56763  Biso   1.000  C
  C72      1.0000 0.04810  0.46590  0.53248  Biso   1.000  C
  C73      1.0000 0.09960  0.51910  0.47189  Biso   1.000  C
  H43      1.0000 0.16830  0.53210  0.45290  Biso   1.000  H
  C74      1.0000 0.15150  0.48450  0.50433  Biso   1.000  C
  H44      1.0000 0.25320  0.47420  0.50690  Biso   1.000  H
  C75      1.0000 0.25840  0.15870  0.62449  Biso   1.000  C
  H45      1.0000 0.34950  0.18100  0.62340  Biso   1.000  H
  O46      1.0000 0.23910  0.91675  0.07080  Biso   1.000  O
  O47      1.0000 0.00550  0.79208  0.13500  Biso   1.000  O
  O48      1.0000 0.00430  0.91564  0.09272  Biso   1.000  O
  C76      1.0000 0.10460  0.92980  0.06763  Biso   1.000  C
  C77      1.0000 0.04810  0.96590  0.03248  Biso   1.000  C
  C78      1.0000 0.09960  0.01910  0.97189  Biso   1.000  C
  H46      1.0000 0.16830  0.03210  0.95290  Biso   1.000  H
  C79      1.0000 0.15150  0.98450  0.00433  Biso   1.000  C
  H47      1.0000 0.25320  0.97420  0.00690  Biso   1.000  H
  C80      1.0000 0.25840  0.65870  0.12449  Biso   1.000  C
  H48      1.0000 0.34950  0.68100  0.12340  Biso   1.000  H
  O49      1.0000 0.26090  0.66675  0.32080  Biso   1.000  O
  O50      1.0000 0.49450  0.54208  0.38500  Biso   1.000  O
  O51      1.0000 0.49570  0.66564  0.34272  Biso   1.000  O
  C81      1.0000 0.39540  0.67980  0.31763  Biso   1.000  C
  C82      1.0000 0.45190  0.71590  0.28248  Biso   1.000  C
  C83      1.0000 0.40040  0.76910  0.22189  Biso   1.000  C
  H49      1.0000 0.33170  0.78210  0.20290  Biso   1.000  H
  C84      1.0000 0.34850  0.73450  0.25433  Biso   1.000  C
  H50      1.0000 0.24680  0.72420  0.25690  Biso   1.000  H
  C85      1.0000 0.24160  0.40870  0.37449  Biso   1.000  C
  H51      1.0000 0.15050  0.43100  0.37340  Biso   1.000  H
  O52      1.0000 0.26090  0.16675  0.82080  Biso   1.000  O
  O53      1.0000 0.49450  0.04208  0.88500  Biso   1.000  O
  O54      1.0000 0.49570  0.16564  0.84272  Biso   1.000  O
  C86      1.0000 0.39540  0.17980  0.81763  Biso   1.000  C
  C87      1.0000 0.45190  0.21590  0.78248  Biso   1.000  C
  C88      1.0000 0.40040  0.26910  0.72189  Biso   1.000  C
  H52      1.0000 0.33170  0.28210  0.70290  Biso   1.000  H
  C89      1.0000 0.34850  0.23450  0.75433  Biso   1.000  C
  H53      1.0000 0.24680  0.22420  0.75690  Biso   1.000  H
  C90      1.0000 0.24160  0.90870  0.87449  Biso   1.000  C
  H54      1.0000 0.15050  0.93100  0.87340  Biso   1.000  H
  O55      1.0000 0.76090  0.66675  0.82080  Biso   1.000  O
  O56      1.0000 0.99450  0.54208  0.88500  Biso   1.000  O
  O57      1.0000 0.99570  0.66564  0.84272  Biso   1.000  O
  C91      1.0000 0.89540  0.67980  0.81763  Biso   1.000  C
  C92      1.0000 0.95190  0.71590  0.78248  Biso   1.000  C
  C93      1.0000 0.90040  0.76910  0.72189  Biso   1.000  C
  H55      1.0000 0.83170  0.78210  0.70290  Biso   1.000  H
  C94      1.0000 0.84850  0.73450  0.75433  Biso   1.000  C
  H56      1.0000 0.74680  0.72420  0.75690  Biso   1.000  H
  C95      1.0000 0.74160  0.40870  0.87449  Biso   1.000  C
  H57      1.0000 0.65050  0.43100  0.87340  Biso   1.000  H
  O58      1.0000 0.76090  0.16675  0.32080  Biso   1.000  O
  O59      1.0000 0.99450  0.04208  0.38500  Biso   1.000  O
  O60      1.0000 0.99570  0.16564  0.34272  Biso   1.000  O
  C96      1.0000 0.89540  0.17980  0.31763  Biso   1.000  C
  C97      1.0000 0.95190  0.21590  0.28248  Biso   1.000  C
  C98      1.0000 0.90040  0.26910  0.22189  Biso   1.000  C
  H58      1.0000 0.83170  0.28210  0.20290  Biso   1.000  H
  C99      1.0000 0.84850  0.23450  0.25433  Biso   1.000  C
  H59      1.0000 0.74680  0.22420  0.25690  Biso   1.000  H
  C100     1.0000 0.74160  0.90870  0.37449  Biso   1.000  C
  H60      1.0000 0.65050  0.93100  0.37340  Biso   1.000  H
  O61      1.0000 0.98910  0.58325  0.32080  Biso   1.000  O
  O62      1.0000 0.75550  0.70792  0.38500  Biso   1.000  O
  O63      1.0000 0.75430  0.58436  0.34272  Biso   1.000  O
  C101     1.0000 0.85460  0.57020  0.31763  Biso   1.000  C
  C102     1.0000 0.79810  0.53410  0.28248  Biso   1.000  C
  C103     1.0000 0.84960  0.48090  0.22189  Biso   1.000  C
  H61      1.0000 0.91830  0.46790  0.20290  Biso   1.000  H
  C104     1.0000 0.90150  0.51550  0.25433  Biso   1.000  C
  H62      1.0000 0.00320  0.52580  0.25690  Biso   1.000  H
  C105     1.0000 0.00840  0.84130  0.37449  Biso   1.000  C
  H63      1.0000 0.09950  0.81900  0.37340  Biso   1.000  H
  O64      1.0000 0.98910  0.08325  0.82080  Biso   1.000  O
  O65      1.0000 0.75550  0.20792  0.88500  Biso   1.000  O
  O66      1.0000 0.75430  0.08436  0.84272  Biso   1.000  O
  C106     1.0000 0.85460  0.07020  0.81763  Biso   1.000  C
  C107     1.0000 0.79810  0.03410  0.78248  Biso   1.000  C
  C108     1.0000 0.84960  0.98090  0.72189  Biso   1.000  C
  H64      1.0000 0.91830  0.96790  0.70290  Biso   1.000  H
  C109     1.0000 0.90150  0.01550  0.75433  Biso   1.000  C
  H65      1.0000 0.00320  0.02580  0.75690  Biso   1.000  H
  C110     1.0000 0.00840  0.34130  0.87449  Biso   1.000  C
  H66      1.0000 0.09950  0.31900  0.87340  Biso   1.000  H
  O67      1.0000 0.48910  0.58325  0.82080  Biso   1.000  O
  O68      1.0000 0.25550  0.70792  0.88500  Biso   1.000  O
  O69      1.0000 0.25430  0.58436  0.84272  Biso   1.000  O
  C111     1.0000 0.35460  0.57020  0.81763  Biso   1.000  C
  C112     1.0000 0.29810  0.53410  0.78248  Biso   1.000  C
  C113     1.0000 0.34960  0.48090  0.72189  Biso   1.000  C
  H67      1.0000 0.41830  0.46790  0.70290  Biso   1.000  H
  C114     1.0000 0.40150  0.51550  0.75433  Biso   1.000  C
  H68      1.0000 0.50320  0.52580  0.75690  Biso   1.000  H
  C115     1.0000 0.50840  0.84130  0.87449  Biso   1.000  C
  H69      1.0000 0.59950  0.81900  0.87340  Biso   1.000  H
  O70      1.0000 0.48910  0.08325  0.32080  Biso   1.000  O
  O71      1.0000 0.25550  0.20792  0.38500  Biso   1.000  O
  O72      1.0000 0.25430  0.08436  0.34272  Biso   1.000  O
  C116     1.0000 0.35460  0.07020  0.31763  Biso   1.000  C
  C117     1.0000 0.29810  0.03410  0.28248  Biso   1.000  C
  C118     1.0000 0.34960  0.98090  0.22189  Biso   1.000  C
  H70      1.0000 0.41830  0.96790  0.20290  Biso   1.000  H
  C119     1.0000 0.40150  0.01550  0.25433  Biso   1.000  C
  H71      1.0000 0.50320  0.02580  0.25690  Biso   1.000  H
  C120     1.0000 0.50840  0.34130  0.37449  Biso   1.000  C
  H72      1.0000 0.59950  0.31900  0.37340  Biso   1.000  H
  O73      1.0000 0.98910  0.66675  0.92920  Biso   1.000  O
  O74      1.0000 0.75550  0.54208  0.86500  Biso   1.000  O
  O75      1.0000 0.75430  0.66564  0.90728  Biso   1.000  O
  C121     1.0000 0.85460  0.67980  0.93237  Biso   1.000  C
  C122     1.0000 0.79810  0.71590  0.96752  Biso   1.000  C
  C123     1.0000 0.84960  0.76910  0.02811  Biso   1.000  C
  H73      1.0000 0.91830  0.78210  0.04710  Biso   1.000  H
  C124     1.0000 0.90150  0.73450  0.99567  Biso   1.000  C
  H74      1.0000 0.00320  0.72420  0.99310  Biso   1.000  H
  C125     1.0000 0.00840  0.40870  0.87551  Biso   1.000  C
  H75      1.0000 0.09950  0.43100  0.87660  Biso   1.000  H
  O76      1.0000 0.98910  0.16675  0.42920  Biso   1.000  O
  O77      1.0000 0.75550  0.04208  0.36500  Biso   1.000  O
  O78      1.0000 0.75430  0.16564  0.40728  Biso   1.000  O
  C126     1.0000 0.85460  0.17980  0.43237  Biso   1.000  C
  C127     1.0000 0.79810  0.21590  0.46752  Biso   1.000  C
  C128     1.0000 0.84960  0.26910  0.52811  Biso   1.000  C
  H76      1.0000 0.91830  0.28210  0.54710  Biso   1.000  H
  C129     1.0000 0.90150  0.23450  0.49567  Biso   1.000  C
  H77      1.0000 0.00320  0.22420  0.49310  Biso   1.000  H
  C130     1.0000 0.00840  0.90870  0.37551  Biso   1.000  C
  H78      1.0000 0.09950  0.93100  0.37660  Biso   1.000  H
  O79      1.0000 0.48910  0.66675  0.42920  Biso   1.000  O
  O80      1.0000 0.25550  0.54208  0.36500  Biso   1.000  O
  O81      1.0000 0.25430  0.66564  0.40728  Biso   1.000  O
  C131     1.0000 0.35460  0.67980  0.43237  Biso   1.000  C
  C132     1.0000 0.29810  0.71590  0.46752  Biso   1.000  C
  C133     1.0000 0.34960  0.76910  0.52811  Biso   1.000  C
  H79      1.0000 0.41830  0.78210  0.54710  Biso   1.000  H
  C134     1.0000 0.40150  0.73450  0.49567  Biso   1.000  C
  H80      1.0000 0.50320  0.72420  0.49310  Biso   1.000  H
  C135     1.0000 0.50840  0.40870  0.37551  Biso   1.000  C
  H81      1.0000 0.59950  0.43100  0.37660  Biso   1.000  H
  O82      1.0000 0.48910  0.16675  0.92920  Biso   1.000  O
  O83      1.0000 0.25550  0.04208  0.86500  Biso   1.000  O
  O84      1.0000 0.25430  0.16564  0.90728  Biso   1.000  O
  C136     1.0000 0.35460  0.17980  0.93237  Biso   1.000  C
  C137     1.0000 0.29810  0.21590  0.96752  Biso   1.000  C
  C138     1.0000 0.34960  0.26910  0.02811  Biso   1.000  C
  H82      1.0000 0.41830  0.28210  0.04710  Biso   1.000  H
  C139     1.0000 0.40150  0.23450  0.99567  Biso   1.000  C
  H83      1.0000 0.50320  0.22420  0.99310  Biso   1.000  H
  C140     1.0000 0.50840  0.90870  0.87551  Biso   1.000  C
  H84      1.0000 0.59950  0.93100  0.87660  Biso   1.000  H
  O85      1.0000 0.26090  0.58325  0.92920  Biso   1.000  O
  O86      1.0000 0.49450  0.70792  0.86500  Biso   1.000  O
  O87      1.0000 0.49570  0.58436  0.90728  Biso   1.000  O
  C141     1.0000 0.39540  0.57020  0.93237  Biso   1.000  C
  C142     1.0000 0.45190  0.53410  0.96752  Biso   1.000  C
  C143     1.0000 0.40040  0.48090  0.02811  Biso   1.000  C
  H85      1.0000 0.33170  0.46790  0.04710  Biso   1.000  H
  C144     1.0000 0.34850  0.51550  0.99567  Biso   1.000  C
  H86      1.0000 0.24680  0.52580  0.99310  Biso   1.000  H
  C145     1.0000 0.24160  0.84130  0.87551  Biso   1.000  C
  H87      1.0000 0.15050  0.81900  0.87660  Biso   1.000  H
  O88      1.0000 0.26090  0.08325  0.42920  Biso   1.000  O
  O89      1.0000 0.49450  0.20792  0.36500  Biso   1.000  O
  O90      1.0000 0.49570  0.08436  0.40728  Biso   1.000  O
  C146     1.0000 0.39540  0.07020  0.43237  Biso   1.000  C
  C147     1.0000 0.45190  0.03410  0.46752  Biso   1.000  C
  C148     1.0000 0.40040  0.98090  0.52811  Biso   1.000  C
  H88      1.0000 0.33170  0.96790  0.54710  Biso   1.000  H
  C149     1.0000 0.34850  0.01550  0.49567  Biso   1.000  C
  H89      1.0000 0.24680  0.02580  0.49310  Biso   1.000  H
  C150     1.0000 0.24160  0.34130  0.37551  Biso   1.000  C
  H90      1.0000 0.15050  0.31900  0.37660  Biso   1.000  H
  O91      1.0000 0.76090  0.58325  0.42920  Biso   1.000  O
  O92      1.0000 0.99450  0.70792  0.36500  Biso   1.000  O
  O93      1.0000 0.99570  0.58436  0.40728  Biso   1.000  O
  C151     1.0000 0.89540  0.57020  0.43237  Biso   1.000  C
  C152     1.0000 0.95190  0.53410  0.46752  Biso   1.000  C
  C153     1.0000 0.90040  0.48090  0.52811  Biso   1.000  C
  H91      1.0000 0.83170  0.46790  0.54710  Biso   1.000  H
  C154     1.0000 0.84850  0.51550  0.49567  Biso   1.000  C
  H92      1.0000 0.74680  0.52580  0.49310  Biso   1.000  H
  C155     1.0000 0.74160  0.84130  0.37551  Biso   1.000  C
  H93      1.0000 0.65050  0.81900  0.37660  Biso   1.000  H
  O94      1.0000 0.76090  0.08325  0.92920  Biso   1.000  O
  O95      1.0000 0.99450  0.20792  0.86500  Biso   1.000  O
  O96      1.0000 0.99570  0.08436  0.90728  Biso   1.000  O
  C156     1.0000 0.89540  0.07020  0.93237  Biso   1.000  C
  C157     1.0000 0.95190  0.03410  0.96752  Biso   1.000  C
  C158     1.0000 0.90040  0.98090  0.02811  Biso   1.000  C
  H94      1.0000 0.83170  0.96790  0.04710  Biso   1.000  H
  C159     1.0000 0.84850  0.01550  0.99567  Biso   1.000  C
  H95      1.0000 0.74680  0.02580  0.99310  Biso   1.000  H
  C160     1.0000 0.74160  0.34130  0.87551  Biso   1.000  C
  H96      1.0000 0.65050  0.31900  0.87660  Biso   1.000  H
  Sc1      1.0000 0.37500  0.37500  0.61411  Biso   1.000  Sc
  Sc2      1.0000 0.37500  0.87500  0.11411  Biso   1.000  Sc
  Sc3      1.0000 0.87500  0.37500  0.11411  Biso   1.000  Sc
  Sc4      1.0000 0.87500  0.87500  0.61411  Biso   1.000  Sc
  Sc5      1.0000 0.37500  0.37500  0.13589  Biso   1.000  Sc
  Sc6      1.0000 0.37500  0.87500  0.63589  Biso   1.000  Sc
  Sc7      1.0000 0.87500  0.37500  0.63589  Biso   1.000  Sc
  Sc8      1.0000 0.87500  0.87500  0.13589  Biso   1.000  Sc
  Sc9      1.0000 0.62500  0.62500  0.38589  Biso   1.000  Sc
  Sc10     1.0000 0.62500  0.12500  0.88589  Biso   1.000  Sc
  Sc11     1.0000 0.12500  0.62500  0.88589  Biso   1.000  Sc
  Sc12     1.0000 0.12500  0.12500  0.38589  Biso   1.000  Sc
  Sc13     1.0000 0.62500  0.62500  0.86411  Biso   1.000  Sc
  Sc14     1.0000 0.62500  0.12500  0.36411  Biso   1.000  Sc
  Sc15     1.0000 0.12500  0.62500  0.36411  Biso   1.000  Sc
  Sc16     1.0000 0.12500  0.12500  0.86411  Biso   1.000  Sc
  C161     1.0000 0.62500  0.55790  0.62500  Biso   1.000  C
  C162     1.0000 0.62500  0.48580  0.62500  Biso   1.000  C
  C163     1.0000 0.62500  0.05790  0.12500  Biso   1.000  C
  C164     1.0000 0.62500  0.98580  0.12500  Biso   1.000  C
  C165     1.0000 0.12500  0.19210  0.62500  Biso   1.000  C
  C166     1.0000 0.12500  0.26420  0.62500  Biso   1.000  C
  C167     1.0000 0.12500  0.69210  0.12500  Biso   1.000  C
  C168     1.0000 0.12500  0.76420  0.12500  Biso   1.000  C
  C169     1.0000 0.62500  0.69210  0.62500  Biso   1.000  C
  C170     1.0000 0.62500  0.76420  0.62500  Biso   1.000  C
  C171     1.0000 0.12500  0.55790  0.12500  Biso   1.000  C
  C172     1.0000 0.12500  0.48580  0.12500  Biso   1.000  C
  C173     1.0000 0.12500  0.05790  0.62500  Biso   1.000  C
  C174     1.0000 0.12500  0.98580  0.62500  Biso   1.000  C
  C175     1.0000 0.62500  0.19210  0.12500  Biso   1.000  C
  C176     1.0000 0.62500  0.26420  0.12500  Biso   1.000  C
  C177     1.0000 0.37500  0.44210  0.37500  Biso   1.000  C
  C178     1.0000 0.37500  0.51420  0.37500  Biso   1.000  C
  C179     1.0000 0.37500  0.94210  0.87500  Biso   1.000  C
  C180     1.0000 0.37500  0.01420  0.87500  Biso   1.000  C
  C181     1.0000 0.87500  0.80790  0.37500  Biso   1.000  C
  C182     1.0000 0.87500  0.73580  0.37500  Biso   1.000  C
  C183     1.0000 0.87500  0.30790  0.87500  Biso   1.000  C
  C184     1.0000 0.87500  0.23580  0.87500  Biso   1.000  C
  C185     1.0000 0.87500  0.44210  0.87500  Biso   1.000  C
  C186     1.0000 0.87500  0.51420  0.87500  Biso   1.000  C
  C187     1.0000 0.87500  0.94210  0.37500  Biso   1.000  C
  C188     1.0000 0.87500  0.01420  0.37500  Biso   1.000  C
  C189     1.0000 0.37500  0.80790  0.87500  Biso   1.000  C
  C190     1.0000 0.37500  0.73580  0.87500  Biso   1.000  C
  C191     1.0000 0.37500  0.30790  0.37500  Biso   1.000  C
  C192     1.0000 0.37500  0.23580  0.37500  Biso   1.000  C
