data_image0
_cell_length_a       5.00599
_cell_length_b       11.052
_cell_length_c       12.8251
_cell_angle_alpha    91.6839
_cell_angle_beta     101.254
_cell_angle_gamma    81.3402

_symmetry_space_group_name_H-M    P 1
_symmetry_int_tables_number       1

loop_
  _symmetry_equiv_pos_as_xyz
  'x, y, z'

loop_
  _atom_site_label
  _atom_site_occupancy
  _atom_site_fract_x
  _atom_site_fract_y
  _atom_site_fract_z
  _atom_site_thermal_displace_type
  _atom_site_B_iso_or_equiv
  _atom_site_type_symbol
  Cu1      1.0000 0.82600  0.30453  0.22675  Biso   1.000  Cu
  Cu2      1.0000 0.59925  0.80453  0.77325  Biso   1.000  Cu
  H1       1.0000 0.59460  0.51040  0.87220  Biso   1.000  H
  H2       1.0000 0.83050  0.37460  0.00120  Biso   1.000  H
  H3       1.0000 0.33400  0.49450  0.19360  Biso   1.000  H
  H4       1.0000 0.07410  0.62910  0.06800  Biso   1.000  H
  H5       1.0000 0.01430  0.96010  0.48740  Biso   1.000  H
  H6       1.0000 0.79650  0.06940  0.33800  Biso   1.000  H
  H7       1.0000 0.32530  0.30240  0.38980  Biso   1.000  H
  H8       1.0000 0.55470  0.20140  0.54380  Biso   1.000  H
  H9       1.0000 0.72240  0.01040  0.12780  Biso   1.000  H
  H10      1.0000 0.82930  0.87460  0.99880  Biso   1.000  H
  H11      1.0000 0.14040  0.99450  0.80640  Biso   1.000  H
  H12      1.0000 0.00610  0.12910  0.93200  Biso   1.000  H
  H13      1.0000 0.52690  0.46010  0.51260  Biso   1.000  H
  H14      1.0000 0.45850  0.56940  0.66200  Biso   1.000  H
  H15      1.0000 0.93550  0.80240  0.61020  Biso   1.000  H
  H16      1.0000 0.01090  0.70140  0.45620  Biso   1.000  H
  C1       1.0000 0.13818  0.67280  0.86856  Biso   1.000  C
  C2       1.0000 0.30408  0.58700  0.95436  Biso   1.000  C
  C3       1.0000 0.53648  0.50840  0.93656  Biso   1.000  C
  C4       1.0000 0.67915  0.42790  0.01510  Biso   1.000  C
  C5       1.0000 0.38585  0.49780  0.12810  Biso   1.000  C
  C6       1.0000 0.22910  0.57940  0.05300  Biso   1.000  C
  C7       1.0000 0.46253  0.99880  0.63426  Biso   1.000  C
  C8       1.0000 0.30902  0.06810  0.53424  Biso   1.000  C
  C9       1.0000 0.07992  0.02970  0.46984  Biso   1.000  C
  C10      1.0000 0.95097  0.09570  0.37974  Biso   1.000  C
  C11      1.0000 0.26189  0.23360  0.41038  Biso   1.000  C
  C12      1.0000 0.40180  0.17300  0.50300  Biso   1.000  C
  C13      1.0000 0.26962  0.17280  0.13144  Biso   1.000  C
  C14      1.0000 0.34972  0.08700  0.04564  Biso   1.000  C
  C15      1.0000 0.59992  0.00840  0.06344  Biso   1.000  C
  C16      1.0000 0.66405  0.92790  0.98490  Biso   1.000  C
  C17      1.0000 0.25775  0.99780  0.87190  Biso   1.000  C
  C18      1.0000 0.17610  0.07940  0.94700  Biso   1.000  C
  C19      1.0000 0.82827  0.49880  0.36574  Biso   1.000  C
  C20      1.0000 0.77478  0.56810  0.46576  Biso   1.000  C
  C21      1.0000 0.61008  0.52970  0.53016  Biso   1.000  C
  C22      1.0000 0.57123  0.59570  0.62026  Biso   1.000  C
  C23      1.0000 0.85151  0.73360  0.58962  Biso   1.000  C
  C24      1.0000 0.89880  0.67300  0.49700  Biso   1.000  C
  N1       1.0000 0.61003  0.42270  0.11086  Biso   1.000  N
  N2       1.0000 0.03695  0.19640  0.34890  Biso   1.000  N
  N3       1.0000 0.49917  0.92270  0.88914  Biso   1.000  N
  N4       1.0000 0.68805  0.69640  0.65110  Biso   1.000  N
  O1       1.0000 0.88973  0.70990  0.87806  Biso   1.000  O
  O2       1.0000 0.24827  0.70120  0.79494  Biso   1.000  O
  O3       1.0000 0.35508  0.90950  0.65836  Biso   1.000  O
  O4       1.0000 0.68256  0.03050  0.68232  Biso   1.000  O
  O5       1.0000 0.01167  0.20990  0.12194  Biso   1.000  O
  O6       1.0000 0.45333  0.20120  0.20506  Biso   1.000  O
  O7       1.0000 0.69672  0.40950  0.34164  Biso   1.000  O
  O8       1.0000 0.00024  0.53050  0.31768  Biso   1.000  O
