data_image0
_cell_length_a       4.98098
_cell_length_b       11.019
_cell_length_c       12.7785
_cell_angle_alpha    91.6643
_cell_angle_beta     101.239
_cell_angle_gamma    81.4299

_symmetry_space_group_name_H-M    P 1
_symmetry_int_tables_number       1

loop_
  _symmetry_equiv_pos_as_xyz
  'x, y, z'

loop_
  _atom_site_label
  _atom_site_occupancy
  _atom_site_fract_x
  _atom_site_fract_y
  _atom_site_fract_z
  _atom_site_thermal_displace_type
  _atom_site_B_iso_or_equiv
  _atom_site_type_symbol
  Cu1      1.0000 0.82607  0.30450  0.22678  Biso   1.000  Cu
  Cu2      1.0000 0.59929  0.80450  0.77322  Biso   1.000  Cu
  H1       1.0000 0.59380  0.51110  0.87200  Biso   1.000  H
  H2       1.0000 0.83090  0.37430  0.00080  Biso   1.000  H
  H3       1.0000 0.33390  0.49450  0.19420  Biso   1.000  H
  H4       1.0000 0.06980  0.62750  0.06700  Biso   1.000  H
  H5       1.0000 0.01600  0.96010  0.48740  Biso   1.000  H
  H6       1.0000 0.79790  0.06960  0.33880  Biso   1.000  H
  H7       1.0000 0.32670  0.30300  0.39040  Biso   1.000  H
  H8       1.0000 0.55540  0.20200  0.54480  Biso   1.000  H
  H9       1.0000 0.72180  0.01110  0.12800  Biso   1.000  H
  H10      1.0000 0.83010  0.87430  0.99920  Biso   1.000  H
  H11      1.0000 0.13970  0.99450  0.80580  Biso   1.000  H
  H12      1.0000 0.00280  0.12750  0.93300  Biso   1.000  H
  H13      1.0000 0.52860  0.46010  0.51260  Biso   1.000  H
  H14      1.0000 0.45910  0.56960  0.66120  Biso   1.000  H
  H15      1.0000 0.93630  0.80300  0.60960  Biso   1.000  H
  H16      1.0000 0.01060  0.70200  0.45520  Biso   1.000  H
  C1       1.0000 0.13707  0.67330  0.86794  Biso   1.000  C
  C2       1.0000 0.30372  0.58660  0.95424  Biso   1.000  C
  C3       1.0000 0.53532  0.50870  0.93664  Biso   1.000  C
  C4       1.0000 0.67896  0.42750  0.01492  Biso   1.000  C
  C5       1.0000 0.38541  0.49710  0.12822  Biso   1.000  C
  C6       1.0000 0.22705  0.57840  0.05250  Biso   1.000  C
  C7       1.0000 0.46231  0.00020  0.63422  Biso   1.000  C
  C8       1.0000 0.30818  0.06900  0.53436  Biso   1.000  C
  C9       1.0000 0.08127  0.03020  0.47014  Biso   1.000  C
  C10      1.0000 0.95315  0.09620  0.38050  Biso   1.000  C
  C11      1.0000 0.26278  0.23400  0.41096  Biso   1.000  C
  C12      1.0000 0.40190  0.17360  0.50360  Biso   1.000  C
  C13      1.0000 0.26913  0.17330  0.13206  Biso   1.000  C
  C14      1.0000 0.34948  0.08660  0.04576  Biso   1.000  C
  C15      1.0000 0.59868  0.00870  0.06336  Biso   1.000  C
  C16      1.0000 0.66404  0.92750  0.98508  Biso   1.000  C
  C17      1.0000 0.25719  0.99710  0.87178  Biso   1.000  C
  C18      1.0000 0.17455  0.07840  0.94750  Biso   1.000  C
  C19      1.0000 0.82809  0.50020  0.36578  Biso   1.000  C
  C20      1.0000 0.77382  0.56900  0.46564  Biso   1.000  C
  C21      1.0000 0.61113  0.53020  0.52986  Biso   1.000  C
  C22      1.0000 0.57265  0.59620  0.61950  Biso   1.000  C
  C23      1.0000 0.85182  0.73400  0.58904  Biso   1.000  C
  C24      1.0000 0.89830  0.67360  0.49640  Biso   1.000  C
  N1       1.0000 0.60930  0.42190  0.11120  Biso   1.000  N
  N2       1.0000 0.03761  0.19660  0.34922  Biso   1.000  N
  N3       1.0000 0.49810  0.92190  0.88880  Biso   1.000  N
  N4       1.0000 0.68839  0.69660  0.65078  Biso   1.000  N
  O1       1.0000 0.88929  0.71010  0.87838  Biso   1.000  O
  O2       1.0000 0.24754  0.70120  0.79508  Biso   1.000  O
  O3       1.0000 0.35601  0.90970  0.65822  Biso   1.000  O
  O4       1.0000 0.68216  0.03090  0.68252  Biso   1.000  O
  O5       1.0000 0.01091  0.21010  0.12162  Biso   1.000  O
  O6       1.0000 0.45246  0.20120  0.20492  Biso   1.000  O
  O7       1.0000 0.69779  0.40970  0.34178  Biso   1.000  O
  O8       1.0000 0.99964  0.53090  0.31748  Biso   1.000  O
