data_image0
_cell_length_a       4.941
_cell_length_b       10.96
_cell_length_c       12.756
_cell_angle_alpha    91.5127
_cell_angle_beta     101.167
_cell_angle_gamma    82.166

_symmetry_space_group_name_H-M    P 1
_symmetry_int_tables_number       1

loop_
  _symmetry_equiv_pos_as_xyz
  'x, y, z'

loop_
  _atom_site_label
  _atom_site_occupancy
  _atom_site_fract_x
  _atom_site_fract_y
  _atom_site_fract_z
  _atom_site_thermal_displace_type
  _atom_site_B_iso_or_equiv
  _atom_site_type_symbol
  Cu1      1.0000 0.61059  0.44296  0.22642  Biso   1.000  Cu
  Cu2      1.0000 0.38417  0.94296  0.77358  Biso   1.000  Cu
  H1       1.0000 0.74760  0.67990  0.33520  Biso   1.000  H
  H2       1.0000 0.68540  0.78600  0.48960  Biso   1.000  H
  H3       1.0000 0.18970  0.54280  0.54460  Biso   1.000  H
  H4       1.0000 0.27050  0.44050  0.39140  Biso   1.000  H
  H5       1.0000 0.06670  0.25040  0.19540  Biso   1.000  H
  H6       1.0000 0.20150  0.11790  0.06780  Biso   1.000  H
  H7       1.0000 0.48620  0.23680  0.87040  Biso   1.000  H
  H8       1.0000 0.37720  0.37540  0.99880  Biso   1.000  H
  H9       1.0000 0.41240  0.17990  0.66480  Biso   1.000  H
  H10      1.0000 0.19580  0.28600  0.51040  Biso   1.000  H
  H11      1.0000 0.64510  0.04280  0.45540  Biso   1.000  H
  H12      1.0000 0.87910  0.94050  0.60860  Biso   1.000  H
  H13      1.0000 0.87130  0.75040  0.80460  Biso   1.000  H
  H14      1.0000 0.13370  0.61790  0.93220  Biso   1.000  H
  H15      1.0000 0.61580  0.73680  0.12960  Biso   1.000  H
  H16      1.0000 0.37840  0.87540  0.00120  Biso   1.000  H
  C1       1.0000 0.37580  0.74650  0.63340  Biso   1.000  C
  C2       1.0000 0.63630  0.65190  0.37800  Biso   1.000  C
  C3       1.0000 0.59890  0.71630  0.47060  Biso   1.000  C
  C4       1.0000 0.43220  0.67590  0.53440  Biso   1.000  C
  C5       1.0000 0.30480  0.57140  0.50380  Biso   1.000  C
  C6       1.0000 0.35340  0.51100  0.41120  Biso   1.000  C
  C7       1.0000 0.93920  0.07440  0.86740  Biso   1.000  C
  C8       1.0000 0.94970  0.24880  0.12900  Biso   1.000  C
  C9       1.0000 0.03100  0.16800  0.05280  Biso   1.000  C
  C10      1.0000 0.85890  0.16130  0.95360  Biso   1.000  C
  C11      1.0000 0.60900  0.23940  0.93540  Biso   1.000  C
  C12      1.0000 0.54200  0.32120  0.01360  Biso   1.000  C
  C13      1.0000 0.74240  0.24650  0.36660  Biso   1.000  C
  C14      1.0000 0.25830  0.15190  0.62200  Biso   1.000  C
  C15      1.0000 0.12830  0.21630  0.52940  Biso   1.000  C
  C16      1.0000 0.89780  0.17590  0.46560  Biso   1.000  C
  C17      1.0000 0.80100  0.07140  0.49620  Biso   1.000  C
  C18      1.0000 0.94220  0.01100  0.58880  Biso   1.000  C
  C19      1.0000 0.07180  0.57440  0.13260  Biso   1.000  C
  C20      1.0000 0.82070  0.74880  0.87100  Biso   1.000  C
  C21      1.0000 0.97820  0.66800  0.94720  Biso   1.000  C
  C22      1.0000 0.90530  0.66130  0.04640  Biso   1.000  C
  C23      1.0000 0.67360  0.73940  0.06460  Biso   1.000  C
  C24      1.0000 0.52840  0.82120  0.98640  Biso   1.000  C
  N1       1.0000 0.51550  0.54970  0.34820  Biso   1.000  N
  N2       1.0000 0.70900  0.32530  0.11160  Biso   1.000  N
  N3       1.0000 0.16730  0.04970  0.65180  Biso   1.000  N
  N4       1.0000 0.59740  0.82530  0.88840  Biso   1.000  N
  O1       1.0000 0.50790  0.83750  0.65860  Biso   1.000  O
  O2       1.0000 0.20127  0.71450  0.68294  Biso   1.000  O
  O3       1.0000 0.19940  0.03690  0.87960  Biso   1.000  O
  O4       1.0000 0.75173  0.04830  0.79326  Biso   1.000  O
  O5       1.0000 0.84930  0.33750  0.34140  Biso   1.000  O
  O6       1.0000 0.51833  0.21450  0.31706  Biso   1.000  O
  O7       1.0000 0.31980  0.53690  0.12040  Biso   1.000  O
  O8       1.0000 0.95847  0.54830  0.20674  Biso   1.000  O
