data_image0
_cell_length_a       4.9967
_cell_length_b       11.1001
_cell_length_c       12.733
_cell_angle_alpha    91.7322
_cell_angle_beta     101.315
_cell_angle_gamma    81.1378

_symmetry_space_group_name_H-M    P 1
_symmetry_int_tables_number       1

loop_
  _symmetry_equiv_pos_as_xyz
  'x, y, z'

loop_
  _atom_site_label
  _atom_site_occupancy
  _atom_site_fract_x
  _atom_site_fract_y
  _atom_site_fract_z
  _atom_site_thermal_displace_type
  _atom_site_B_iso_or_equiv
  _atom_site_type_symbol
  Cu1      1.0000 0.35076  0.10480  0.22704  Biso   1.000  Cu
  Cu2      1.0000 0.12372  0.60480  0.77296  Biso   1.000  Cu
  H1       1.0000 0.98410  0.37260  0.66180  Biso   1.000  H
  H2       1.0000 0.05820  0.26210  0.51240  Biso   1.000  H
  H3       1.0000 0.53620  0.50080  0.45460  Biso   1.000  H
  H4       1.0000 0.45890  0.60260  0.60880  Biso   1.000  H
  H5       1.0000 0.35720  0.17570  0.00160  Biso   1.000  H
  H6       1.0000 0.11670  0.31250  0.87140  Biso   1.000  H
  H7       1.0000 0.58830  0.42420  0.06620  Biso   1.000  H
  H8       1.0000 0.85490  0.29060  0.19440  Biso   1.000  H
  H9       1.0000 0.32230  0.87260  0.33820  Biso   1.000  H
  H10      1.0000 0.54580  0.76210  0.48760  Biso   1.000  H
  H11      1.0000 0.08160  0.00080  0.54540  Biso   1.000  H
  H12      1.0000 0.85010  0.10260  0.39120  Biso   1.000  H
  H13      1.0000 0.35560  0.67570  0.99840  Biso   1.000  H
  H14      1.0000 0.24530  0.81250  0.12860  Biso   1.000  H
  H15      1.0000 0.52210  0.92420  0.93380  Biso   1.000  H
  H16      1.0000 0.66050  0.79060  0.80560  Biso   1.000  H
  C1       1.0000 0.09763  0.39820  0.61986  Biso   1.000  C
  C2       1.0000 0.13887  0.33200  0.52954  Biso   1.000  C
  C3       1.0000 0.30035  0.37030  0.46510  Biso   1.000  C
  C4       1.0000 0.42334  0.47310  0.49568  Biso   1.000  C
  C5       1.0000 0.37567  0.53390  0.58834  Biso   1.000  C
  C6       1.0000 0.35412  0.30040  0.36504  Biso   1.000  C
  C7       1.0000 0.20320  0.22770  0.01520  Biso   1.000  C
  C8       1.0000 0.05778  0.30930  0.93596  Biso   1.000  C
  C9       1.0000 0.82577  0.38560  0.95374  Biso   1.000  C
  C10      1.0000 0.74666  0.37610  0.05192  Biso   1.000  C
  C11      1.0000 0.66030  0.47330  0.86800  Biso   1.000  C
  C12      1.0000 0.90626  0.29430  0.12832  Biso   1.000  C
  C13      1.0000 0.47777  0.89820  0.38014  Biso   1.000  C
  C14      1.0000 0.60933  0.83200  0.47046  Biso   1.000  C
  C15      1.0000 0.83525  0.87030  0.53490  Biso   1.000  C
  C16      1.0000 0.92766  0.97310  0.50432  Biso   1.000  C
  C17      1.0000 0.78733  0.03390  0.41166  Biso   1.000  C
  C18      1.0000 0.98908  0.80040  0.63496  Biso   1.000  C
  C19      1.0000 0.18800  0.72770  0.98480  Biso   1.000  C
  C20      1.0000 0.12182  0.80930  0.06404  Biso   1.000  C
  C21      1.0000 0.87203  0.88560  0.04626  Biso   1.000  C
  C22      1.0000 0.69474  0.87610  0.94808  Biso   1.000  C
  C23      1.0000 0.79230  0.97330  0.13200  Biso   1.000  C
  C24      1.0000 0.77794  0.79430  0.87168  Biso   1.000  C
  N1       1.0000 0.21357  0.49730  0.64954  Biso   1.000  N
  N2       1.0000 0.13083  0.22070  0.11026  Biso   1.000  N
  N3       1.0000 0.56403  0.99730  0.35046  Biso   1.000  N
  N4       1.0000 0.02057  0.72070  0.88974  Biso   1.000  N
  O1       1.0000 0.22428  0.21010  0.34116  Biso   1.000  O
  O2       1.0000 0.52088  0.33120  0.31576  Biso   1.000  O
  O3       1.0000 0.41395  0.51016  0.87850  Biso   1.000  O
  O4       1.0000 0.77188  0.50175  0.79556  Biso   1.000  O
  O5       1.0000 0.88312  0.71010  0.65884  Biso   1.000  O
  O6       1.0000 0.20512  0.83120  0.68424  Biso   1.000  O
  O7       1.0000 0.53545  0.01016  0.12150  Biso   1.000  O
  O8       1.0000 0.97632  0.00175  0.20444  Biso   1.000  O
