data_image0
_cell_length_a       11.85
_cell_length_b       13.853
_cell_length_c       13.944
_cell_angle_alpha    90
_cell_angle_beta     114.793
_cell_angle_gamma    90

_symmetry_space_group_name_H-M    P 1
_symmetry_int_tables_number       1

loop_
  _symmetry_equiv_pos_as_xyz
  'x, y, z'

loop_
  _atom_site_label
  _atom_site_occupancy
  _atom_site_fract_x
  _atom_site_fract_y
  _atom_site_fract_z
  _atom_site_thermal_displace_type
  _atom_site_B_iso_or_equiv
  _atom_site_type_symbol
  Co1      1.0000 0.89350  0.44187  0.95004  Biso   1.000  Co
  Co2      1.0000 0.10650  0.94187  0.54996  Biso   1.000  Co
  Co3      1.0000 0.10650  0.55813  0.04996  Biso   1.000  Co
  Co4      1.0000 0.89350  0.05813  0.45004  Biso   1.000  Co
  H1       1.0000 0.64580  0.52610  0.89630  Biso   1.000  H
  H2       1.0000 0.44100  0.48180  0.85140  Biso   1.000  H
  H3       1.0000 0.54160  0.20250  0.85060  Biso   1.000  H
  H4       1.0000 0.74320  0.25360  0.89840  Biso   1.000  H
  H5       1.0000 0.99920  0.25220  0.73720  Biso   1.000  H
  H6       1.0000 0.32960  0.19240  0.72620  Biso   1.000  H
  H7       1.0000 0.30390  0.41110  0.90840  Biso   1.000  H
  H8       1.0000 0.35420  0.02610  0.60370  Biso   1.000  H
  H9       1.0000 0.55900  0.98180  0.64860  Biso   1.000  H
  H10      1.0000 0.45840  0.70250  0.64940  Biso   1.000  H
  H11      1.0000 0.25680  0.75360  0.60160  Biso   1.000  H
  H12      1.0000 0.00080  0.75220  0.76280  Biso   1.000  H
  H13      1.0000 0.67040  0.69240  0.77380  Biso   1.000  H
  H14      1.0000 0.69610  0.91110  0.59160  Biso   1.000  H
  H15      1.0000 0.35420  0.47390  0.10370  Biso   1.000  H
  H16      1.0000 0.55900  0.51820  0.14860  Biso   1.000  H
  H17      1.0000 0.45840  0.79750  0.14940  Biso   1.000  H
  H18      1.0000 0.25680  0.74640  0.10160  Biso   1.000  H
  H19      1.0000 0.00080  0.74780  0.26280  Biso   1.000  H
  H20      1.0000 0.67040  0.80760  0.27380  Biso   1.000  H
  H21      1.0000 0.69610  0.58890  0.09160  Biso   1.000  H
  H22      1.0000 0.64580  0.97390  0.39630  Biso   1.000  H
  H23      1.0000 0.44100  0.01820  0.35140  Biso   1.000  H
  H24      1.0000 0.54160  0.29750  0.35060  Biso   1.000  H
  H25      1.0000 0.74320  0.24640  0.39840  Biso   1.000  H
  H26      1.0000 0.99920  0.24780  0.23720  Biso   1.000  H
  H27      1.0000 0.32960  0.30760  0.22620  Biso   1.000  H
  H28      1.0000 0.30390  0.08890  0.40840  Biso   1.000  H
  C1       1.0000 0.62420  0.45960  0.88800  Biso   1.000  C
  C2       1.0000 0.50170  0.43350  0.86090  Biso   1.000  C
  C3       1.0000 0.46750  0.33630  0.84760  Biso   1.000  C
  C4       1.0000 0.56080  0.26930  0.86080  Biso   1.000  C
  C5       1.0000 0.68080  0.30050  0.88880  Biso   1.000  C
  C6       1.0000 0.08540  0.26490  0.75990  Biso   1.000  C
  C7       1.0000 0.15510  0.20990  0.72040  Biso   1.000  C
  C8       1.0000 0.28140  0.23070  0.75140  Biso   1.000  C
  C9       1.0000 0.33610  0.30800  0.81970  Biso   1.000  C
  C10      1.0000 0.26620  0.35980  0.86040  Biso   1.000  C
  C11      1.0000 0.14100  0.33780  0.83200  Biso   1.000  C
  C12      1.0000 0.09470  0.13060  0.64260  Biso   1.000  C
  C13      1.0000 0.07080  0.39350  0.88190  Biso   1.000  C
  C14      1.0000 0.37580  0.95960  0.61200  Biso   1.000  C
  C15      1.0000 0.49830  0.93350  0.63910  Biso   1.000  C
  C16      1.0000 0.53250  0.83630  0.65240  Biso   1.000  C
  C17      1.0000 0.43920  0.76930  0.63920  Biso   1.000  C
  C18      1.0000 0.31920  0.80050  0.61120  Biso   1.000  C
  C19      1.0000 0.91460  0.76490  0.74010  Biso   1.000  C
  C20      1.0000 0.84490  0.70990  0.77960  Biso   1.000  C
  C21      1.0000 0.71860  0.73070  0.74860  Biso   1.000  C
  C22      1.0000 0.66390  0.80800  0.68030  Biso   1.000  C
  C23      1.0000 0.73380  0.85980  0.63960  Biso   1.000  C
  C24      1.0000 0.85900  0.83780  0.66800  Biso   1.000  C
  C25      1.0000 0.90530  0.63060  0.85740  Biso   1.000  C
  C26      1.0000 0.92920  0.89350  0.61810  Biso   1.000  C
  C27      1.0000 0.37580  0.54040  0.11200  Biso   1.000  C
  C28      1.0000 0.49830  0.56650  0.13910  Biso   1.000  C
  C29      1.0000 0.53250  0.66370  0.15240  Biso   1.000  C
  C30      1.0000 0.43920  0.73070  0.13920  Biso   1.000  C
  C31      1.0000 0.31920  0.69950  0.11120  Biso   1.000  C
  C32      1.0000 0.91460  0.73510  0.24010  Biso   1.000  C
  C33      1.0000 0.84490  0.79010  0.27960  Biso   1.000  C
  C34      1.0000 0.71860  0.76930  0.24860  Biso   1.000  C
  C35      1.0000 0.66390  0.69200  0.18030  Biso   1.000  C
  C36      1.0000 0.73380  0.64020  0.13960  Biso   1.000  C
  C37      1.0000 0.85900  0.66220  0.16800  Biso   1.000  C
  C38      1.0000 0.90530  0.86940  0.35740  Biso   1.000  C
  C39      1.0000 0.92920  0.60650  0.11810  Biso   1.000  C
  C40      1.0000 0.62420  0.04040  0.38800  Biso   1.000  C
  C41      1.0000 0.50170  0.06650  0.36090  Biso   1.000  C
  C42      1.0000 0.46750  0.16370  0.34760  Biso   1.000  C
  C43      1.0000 0.56080  0.23070  0.36080  Biso   1.000  C
  C44      1.0000 0.68080  0.19950  0.38880  Biso   1.000  C
  C45      1.0000 0.08540  0.23510  0.25990  Biso   1.000  C
  C46      1.0000 0.15510  0.29010  0.22040  Biso   1.000  C
  C47      1.0000 0.28140  0.26930  0.25140  Biso   1.000  C
  C48      1.0000 0.33610  0.19200  0.31970  Biso   1.000  C
  C49      1.0000 0.26620  0.14020  0.36040  Biso   1.000  C
  C50      1.0000 0.14100  0.16220  0.33200  Biso   1.000  C
  C51      1.0000 0.09470  0.36940  0.14260  Biso   1.000  C
  C52      1.0000 0.07080  0.10650  0.38190  Biso   1.000  C
  N1       1.0000 0.71380  0.39380  0.90300  Biso   1.000  N
  N2       1.0000 0.28620  0.89380  0.59700  Biso   1.000  N
  N3       1.0000 0.28620  0.60620  0.09700  Biso   1.000  N
  N4       1.0000 0.71380  0.10620  0.40300  Biso   1.000  N
  O1       1.0000 0.96070  0.36670  0.86140  Biso   1.000  O
  O2       1.0000 0.12640  0.46150  0.94270  Biso   1.000  O
  O3       1.0000 0.98410  0.14540  0.57530  Biso   1.000  O
  O4       1.0000 0.15830  0.05630  0.64960  Biso   1.000  O
  O5       1.0000 0.03930  0.86670  0.63860  Biso   1.000  O
  O6       1.0000 0.87360  0.96150  0.55730  Biso   1.000  O
  O7       1.0000 0.01590  0.64540  0.92470  Biso   1.000  O
  O8       1.0000 0.84170  0.55630  0.85040  Biso   1.000  O
  O9       1.0000 0.03930  0.63330  0.13860  Biso   1.000  O
  O10      1.0000 0.87360  0.53850  0.05730  Biso   1.000  O
  O11      1.0000 0.01590  0.85460  0.42470  Biso   1.000  O
  O12      1.0000 0.84170  0.94370  0.35040  Biso   1.000  O
  O13      1.0000 0.96070  0.13330  0.36140  Biso   1.000  O
  O14      1.0000 0.12640  0.03850  0.44270  Biso   1.000  O
  O15      1.0000 0.98410  0.35460  0.07530  Biso   1.000  O
  O16      1.0000 0.15830  0.44370  0.14960  Biso   1.000  O
