data_image0
_cell_length_a       11.994
_cell_length_b       16.3509
_cell_length_c       16.3509
_cell_angle_alpha    65.775
_cell_angle_beta     75.847
_cell_angle_gamma    104.153

_symmetry_space_group_name_H-M    P 1
_symmetry_int_tables_number       1

loop_
  _symmetry_equiv_pos_as_xyz
  'x, y, z'

loop_
  _atom_site_label
  _atom_site_occupancy
  _atom_site_fract_x
  _atom_site_fract_y
  _atom_site_fract_z
  _atom_site_thermal_displace_type
  _atom_site_B_iso_or_equiv
  _atom_site_type_symbol
  Mn1      1.0000 0.50000  0.50000  0.00000  Biso   1.000  Mn
  Mn2      1.0000 0.50000  0.00000  0.50000  Biso   1.000  Mn
  Mn3      1.0000 0.00000  0.50000  0.50000  Biso   1.000  Mn
  H1       1.0000 0.91960  0.62520  0.74720  Biso   1.000  H
  H2       1.0000 0.67560  0.37100  0.72130  Biso   1.000  H
  H3       1.0000 0.41680  0.33160  0.95160  Biso   1.000  H
  H4       1.0000 0.43050  0.18380  0.92350  Biso   1.000  H
  H5       1.0000 0.35450  0.23920  0.87420  Biso   1.000  H
  H6       1.0000 0.47610  0.26500  0.72300  Biso   1.000  H
  H7       1.0000 0.41580  0.15310  0.79830  Biso   1.000  H
  H8       1.0000 0.55620  0.21320  0.77020  Biso   1.000  H
  H9       1.0000 0.99190  0.83070  0.67820  Biso   1.000  H
  H10      1.0000 0.94930  0.85590  0.76040  Biso   1.000  H
  H11      1.0000 0.85060  0.80920  0.72810  Biso   1.000  H
  H12      1.0000 0.04600  0.75500  0.85690  Biso   1.000  H
  H13      1.0000 0.99310  0.56420  0.88600  Biso   1.000  H
  H14      1.0000 0.93180  0.58550  0.96730  Biso   1.000  H
  H15      1.0000 0.07610  0.61160  0.92800  Biso   1.000  H
  H16      1.0000 0.20740  0.73340  0.76060  Biso   1.000  H
  H17      1.0000 0.16420  0.81090  0.69710  Biso   1.000  H
  H18      1.0000 0.11890  0.70580  0.71140  Biso   1.000  H
  H19      1.0000 0.66680  0.74720  0.62760  Biso   1.000  H
  H20      1.0000 0.39690  0.72130  0.90770  Biso   1.000  H
  H21      1.0000 0.36840  0.95160  0.71680  Biso   1.000  H
  H22      1.0000 0.35400  0.92350  0.89270  Biso   1.000  H
  H23      1.0000 0.22870  0.87420  0.88660  Biso   1.000  H
  H24      1.0000 0.19910  0.72300  0.01200  Biso   1.000  H
  H25      1.0000 0.21410  0.79830  0.04860  Biso   1.000  H
  H26      1.0000 0.32640  0.77020  0.01660  Biso   1.000  H
  H27      1.0000 0.67010  0.67820  0.49110  Biso   1.000  H
  H28      1.0000 0.70970  0.76040  0.38370  Biso   1.000  H
  H29      1.0000 0.57870  0.72810  0.46270  Biso   1.000  H
  H30      1.0000 0.90290  0.85690  0.38810  Biso   1.000  H
  H31      1.0000 0.87910  0.88600  0.54980  Biso   1.000  H
  H32      1.0000 0.89910  0.96730  0.44720  Biso   1.000  H
  H33      1.0000 0.00410  0.92800  0.46040  Biso   1.000  H
  H34      1.0000 0.96800  0.76060  0.50600  Biso   1.000  H
  H35      1.0000 0.86130  0.69710  0.49200  Biso   1.000  H
  H36      1.0000 0.83030  0.71140  0.58280  Biso   1.000  H
  H37      1.0000 0.29440  0.62760  0.62520  Biso   1.000  H
  H38      1.0000 0.30460  0.90770  0.37100  Biso   1.000  H
  H39      1.0000 0.08520  0.71680  0.33160  Biso   1.000  H
  H40      1.0000 0.24670  0.89270  0.18380  Biso   1.000  H
  H41      1.0000 0.11530  0.88660  0.23920  Biso   1.000  H
  H42      1.0000 0.21110  0.01200  0.26500  Biso   1.000  H
  H43      1.0000 0.26270  0.04860  0.15310  Biso   1.000  H
  H44      1.0000 0.34300  0.01660  0.21320  Biso   1.000  H
  H45      1.0000 0.16120  0.49110  0.83070  Biso   1.000  H
  H46      1.0000 0.09340  0.38370  0.85590  Biso   1.000  H
  H47      1.0000 0.04140  0.46270  0.80920  Biso   1.000  H
  H48      1.0000 0.29100  0.38810  0.75500  Biso   1.000  H
  H49      1.0000 0.42890  0.54980  0.56420  Biso   1.000  H
  H50      1.0000 0.34630  0.44720  0.58550  Biso   1.000  H
  H51      1.0000 0.46450  0.46040  0.61160  Biso   1.000  H
  H52      1.0000 0.47400  0.50600  0.73340  Biso   1.000  H
  H53      1.0000 0.35330  0.49200  0.81090  Biso   1.000  H
  H54      1.0000 0.41310  0.58280  0.70580  Biso   1.000  H
  H55      1.0000 0.08040  0.37480  0.25280  Biso   1.000  H
  H56      1.0000 0.32440  0.62900  0.27870  Biso   1.000  H
  H57      1.0000 0.58320  0.66840  0.04840  Biso   1.000  H
  H58      1.0000 0.56950  0.81620  0.07650  Biso   1.000  H
  H59      1.0000 0.64550  0.76080  0.12580  Biso   1.000  H
  H60      1.0000 0.52390  0.73500  0.27700  Biso   1.000  H
  H61      1.0000 0.58420  0.84690  0.20170  Biso   1.000  H
  H62      1.0000 0.44380  0.78680  0.22980  Biso   1.000  H
  H63      1.0000 0.00810  0.16930  0.32180  Biso   1.000  H
  H64      1.0000 0.05070  0.14410  0.23960  Biso   1.000  H
  H65      1.0000 0.14940  0.19080  0.27190  Biso   1.000  H
  H66      1.0000 0.95400  0.24500  0.14310  Biso   1.000  H
  H67      1.0000 0.00690  0.43580  0.11400  Biso   1.000  H
  H68      1.0000 0.06820  0.41450  0.03270  Biso   1.000  H
  H69      1.0000 0.92390  0.38840  0.07200  Biso   1.000  H
  H70      1.0000 0.79260  0.26660  0.23940  Biso   1.000  H
  H71      1.0000 0.83580  0.18910  0.30290  Biso   1.000  H
  H72      1.0000 0.88110  0.29420  0.28860  Biso   1.000  H
  H73      1.0000 0.33320  0.25280  0.37240  Biso   1.000  H
  H74      1.0000 0.60310  0.27870  0.09230  Biso   1.000  H
  H75      1.0000 0.63160  0.04840  0.28320  Biso   1.000  H
  H76      1.0000 0.64600  0.07650  0.10730  Biso   1.000  H
  H77      1.0000 0.77130  0.12580  0.11340  Biso   1.000  H
  H78      1.0000 0.80090  0.27700  0.98800  Biso   1.000  H
  H79      1.0000 0.78590  0.20170  0.95140  Biso   1.000  H
  H80      1.0000 0.67360  0.22980  0.98340  Biso   1.000  H
  H81      1.0000 0.32990  0.32180  0.50890  Biso   1.000  H
  H82      1.0000 0.29030  0.23960  0.61630  Biso   1.000  H
  H83      1.0000 0.42130  0.27190  0.53730  Biso   1.000  H
  H84      1.0000 0.09710  0.14310  0.61190  Biso   1.000  H
  H85      1.0000 0.12090  0.11400  0.45020  Biso   1.000  H
  H86      1.0000 0.10090  0.03270  0.55280  Biso   1.000  H
  H87      1.0000 0.99590  0.07200  0.53960  Biso   1.000  H
  H88      1.0000 0.03200  0.23940  0.49400  Biso   1.000  H
  H89      1.0000 0.13870  0.30290  0.50800  Biso   1.000  H
  H90      1.0000 0.16970  0.28860  0.41720  Biso   1.000  H
  H91      1.0000 0.70560  0.37240  0.37480  Biso   1.000  H
  H92      1.0000 0.69540  0.09230  0.62900  Biso   1.000  H
  H93      1.0000 0.91480  0.28320  0.66840  Biso   1.000  H
  H94      1.0000 0.75330  0.10730  0.81620  Biso   1.000  H
  H95      1.0000 0.88470  0.11340  0.76080  Biso   1.000  H
  H96      1.0000 0.78890  0.98800  0.73500  Biso   1.000  H
  H97      1.0000 0.73730  0.95140  0.84690  Biso   1.000  H
  H98      1.0000 0.65700  0.98340  0.78680  Biso   1.000  H
  H99      1.0000 0.83880  0.50890  0.16930  Biso   1.000  H
  H100     1.0000 0.90660  0.61630  0.14410  Biso   1.000  H
  H101     1.0000 0.95860  0.53730  0.19080  Biso   1.000  H
  H102     1.0000 0.70900  0.61190  0.24500  Biso   1.000  H
  H103     1.0000 0.57110  0.45020  0.43580  Biso   1.000  H
  H104     1.0000 0.65370  0.55280  0.41450  Biso   1.000  H
  H105     1.0000 0.53550  0.53960  0.38840  Biso   1.000  H
  H106     1.0000 0.52600  0.49400  0.26660  Biso   1.000  H
  H107     1.0000 0.64670  0.50800  0.18910  Biso   1.000  H
  H108     1.0000 0.58690  0.41720  0.29420  Biso   1.000  H
  C1       1.0000 0.85600  0.52020  0.67340  Biso   1.000  C
  C2       1.0000 0.68790  0.49280  0.83230  Biso   1.000  C
  C3       1.0000 0.73180  0.46920  0.76100  Biso   1.000  C
  C4       1.0000 0.64970  0.38860  0.76770  Biso   1.000  C
  C5       1.0000 0.53140  0.33250  0.83970  Biso   1.000  C
  C6       1.0000 0.49730  0.36530  0.90370  Biso   1.000  C
  C7       1.0000 0.43700  0.23700  0.86300  Biso   1.000  C
  C8       1.0000 0.47460  0.21490  0.78120  Biso   1.000  C
  C9       1.0000 0.75640  0.57040  0.84660  Biso   1.000  C
  C10      1.0000 0.90600  0.70840  0.81540  Biso   1.000  C
  C11      1.0000 0.79540  0.65770  0.91350  Biso   1.000  C
  C12      1.0000 0.92670  0.81050  0.73840  Biso   1.000  C
  C13      1.0000 0.02630  0.71020  0.83220  Biso   1.000  C
  C14      1.0000 0.00400  0.60700  0.91200  Biso   1.000  C
  C15      1.0000 0.13980  0.74320  0.74190  Biso   1.000  C
  C16      1.0000 0.52940  0.67340  0.80640  Biso   1.000  C
  C17      1.0000 0.52020  0.83230  0.67490  Biso   1.000  C
  C18      1.0000 0.49280  0.76100  0.76980  Biso   1.000  C
  C19      1.0000 0.41740  0.76770  0.84370  Biso   1.000  C
  C20      1.0000 0.37110  0.83970  0.82780  Biso   1.000  C
  C21      1.0000 0.40100  0.90370  0.73100  Biso   1.000  C
  C22      1.0000 0.30000  0.86300  0.90000  Biso   1.000  C
  C23      1.0000 0.25580  0.78120  0.00390  Biso   1.000  C
  C24      1.0000 0.60300  0.84660  0.58300  Biso   1.000  C
  C25      1.0000 0.72140  0.81540  0.47620  Biso   1.000  C
  C26      1.0000 0.70890  0.91350  0.42880  Biso   1.000  C
  C27      1.0000 0.66510  0.73840  0.45110  Biso   1.000  C
  C28      1.0000 0.85850  0.83220  0.45760  Biso   1.000  C
  C29      1.0000 0.91600  0.91200  0.48100  Biso   1.000  C
  C30      1.0000 0.88170  0.74190  0.51490  Biso   1.000  C
  C31      1.0000 0.33580  0.80640  0.52020  Biso   1.000  C
  C32      1.0000 0.19510  0.67490  0.49280  Biso   1.000  C
  C33      1.0000 0.26260  0.76980  0.46920  Biso   1.000  C
  C34      1.0000 0.26110  0.84370  0.38860  Biso   1.000  C
  C35      1.0000 0.19890  0.82780  0.33250  Biso   1.000  C
  C36      1.0000 0.13200  0.73100  0.36530  Biso   1.000  C
  C37      1.0000 0.20000  0.90000  0.23700  Biso   1.000  C
  C38      1.0000 0.25970  0.00390  0.21490  Biso   1.000  C
  C39      1.0000 0.18600  0.58300  0.57040  Biso   1.000  C
  C40      1.0000 0.19760  0.47620  0.70840  Biso   1.000  C
  C41      1.0000 0.13770  0.42880  0.65770  Biso   1.000  C
  C42      1.0000 0.11620  0.45110  0.81050  Biso   1.000  C
  C43      1.0000 0.31610  0.45760  0.71020  Biso   1.000  C
  C44      1.0000 0.39700  0.48100  0.60700  Biso   1.000  C
  C45      1.0000 0.39660  0.51490  0.74320  Biso   1.000  C
  C46      1.0000 0.14400  0.47980  0.32660  Biso   1.000  C
  C47      1.0000 0.31210  0.50720  0.16770  Biso   1.000  C
  C48      1.0000 0.26820  0.53080  0.23900  Biso   1.000  C
  C49      1.0000 0.35030  0.61140  0.23230  Biso   1.000  C
  C50      1.0000 0.46860  0.66750  0.16030  Biso   1.000  C
  C51      1.0000 0.50270  0.63470  0.09630  Biso   1.000  C
  C52      1.0000 0.56300  0.76300  0.13700  Biso   1.000  C
  C53      1.0000 0.52540  0.78510  0.21880  Biso   1.000  C
  C54      1.0000 0.24360  0.42960  0.15340  Biso   1.000  C
  C55      1.0000 0.09400  0.29160  0.18460  Biso   1.000  C
  C56      1.0000 0.20460  0.34230  0.08650  Biso   1.000  C
  C57      1.0000 0.07330  0.18950  0.26160  Biso   1.000  C
  C58      1.0000 0.97370  0.28980  0.16780  Biso   1.000  C
  C59      1.0000 0.99600  0.39300  0.08800  Biso   1.000  C
  C60      1.0000 0.86020  0.25680  0.25810  Biso   1.000  C
  C61      1.0000 0.47060  0.32660  0.19360  Biso   1.000  C
  C62      1.0000 0.47980  0.16770  0.32510  Biso   1.000  C
  C63      1.0000 0.50720  0.23900  0.23020  Biso   1.000  C
  C64      1.0000 0.58260  0.23230  0.15630  Biso   1.000  C
  C65      1.0000 0.62890  0.16030  0.17220  Biso   1.000  C
  C66      1.0000 0.59900  0.09630  0.26900  Biso   1.000  C
  C67      1.0000 0.70000  0.13700  0.10000  Biso   1.000  C
  C68      1.0000 0.74420  0.21880  0.99610  Biso   1.000  C
  C69      1.0000 0.39700  0.15340  0.41700  Biso   1.000  C
  C70      1.0000 0.27860  0.18460  0.52380  Biso   1.000  C
  C71      1.0000 0.29110  0.08650  0.57120  Biso   1.000  C
  C72      1.0000 0.33490  0.26160  0.54890  Biso   1.000  C
  C73      1.0000 0.14150  0.16780  0.54240  Biso   1.000  C
  C74      1.0000 0.08400  0.08800  0.51900  Biso   1.000  C
  C75      1.0000 0.11830  0.25810  0.48510  Biso   1.000  C
  C76      1.0000 0.66420  0.19360  0.47980  Biso   1.000  C
  C77      1.0000 0.80490  0.32510  0.50720  Biso   1.000  C
  C78      1.0000 0.73740  0.23020  0.53080  Biso   1.000  C
  C79      1.0000 0.73890  0.15630  0.61140  Biso   1.000  C
  C80      1.0000 0.80110  0.17220  0.66750  Biso   1.000  C
  C81      1.0000 0.86800  0.26900  0.63470  Biso   1.000  C
  C82      1.0000 0.80000  0.10000  0.76300  Biso   1.000  C
  C83      1.0000 0.74030  0.99610  0.78510  Biso   1.000  C
  C84      1.0000 0.81400  0.41700  0.42960  Biso   1.000  C
  C85      1.0000 0.80240  0.52380  0.29160  Biso   1.000  C
  C86      1.0000 0.86230  0.57120  0.34230  Biso   1.000  C
  C87      1.0000 0.88380  0.54890  0.18950  Biso   1.000  C
  C88      1.0000 0.68390  0.54240  0.28980  Biso   1.000  C
  C89      1.0000 0.60300  0.51900  0.39300  Biso   1.000  C
  C90      1.0000 0.60340  0.48510  0.25680  Biso   1.000  C
  N1       1.0000 0.57184  0.44168  0.90106  Biso   1.000  N
  N2       1.0000 0.70282  0.58222  0.92106  Biso   1.000  N
  N3       1.0000 0.87070  0.63010  0.79170  Biso   1.000  N
  N4       1.0000 0.47290  0.90106  0.65726  Biso   1.000  N
  N5       1.0000 0.62388  0.92106  0.49672  Biso   1.000  N
  N6       1.0000 0.66240  0.79170  0.57820  Biso   1.000  N
  N7       1.0000 0.13016  0.65726  0.44168  Biso   1.000  N
  N8       1.0000 0.12060  0.49672  0.58222  Biso   1.000  N
  N9       1.0000 0.24060  0.57820  0.63010  Biso   1.000  N
  N10      1.0000 0.42816  0.55832  0.09894  Biso   1.000  N
  N11      1.0000 0.29718  0.41778  0.07894  Biso   1.000  N
  N12      1.0000 0.12930  0.36990  0.20830  Biso   1.000  N
  N13      1.0000 0.52710  0.09894  0.34274  Biso   1.000  N
  N14      1.0000 0.37612  0.07894  0.50328  Biso   1.000  N
  N15      1.0000 0.33760  0.20830  0.42180  Biso   1.000  N
  N16      1.0000 0.86984  0.34274  0.55832  Biso   1.000  N
  N17      1.0000 0.87940  0.50328  0.41778  Biso   1.000  N
  N18      1.0000 0.75940  0.42180  0.36990  Biso   1.000  N
  O1       1.0000 0.85810  0.49536  0.61226  Biso   1.000  O
  O2       1.0000 0.94708  0.58090  0.66876  Biso   1.000  O
  O3       1.0000 0.78230  0.68920  0.96960  Biso   1.000  O
  O4       1.0000 0.47036  0.61226  0.89238  Biso   1.000  O
  O5       1.0000 0.61584  0.66876  0.75034  Biso   1.000  O
  O6       1.0000 0.75190  0.96960  0.34120  Biso   1.000  O
  O7       1.0000 0.36274  0.89238  0.49536  Biso   1.000  O
  O8       1.0000 0.36618  0.75034  0.58090  Biso   1.000  O
  O9       1.0000 0.09310  0.34120  0.68920  Biso   1.000  O
  O10      1.0000 0.14190  0.50464  0.38774  Biso   1.000  O
  O11      1.0000 0.05292  0.41910  0.33124  Biso   1.000  O
  O12      1.0000 0.21770  0.31080  0.03040  Biso   1.000  O
  O13      1.0000 0.52964  0.38774  0.10762  Biso   1.000  O
  O14      1.0000 0.38416  0.33124  0.24966  Biso   1.000  O
  O15      1.0000 0.24810  0.03040  0.65880  Biso   1.000  O
  O16      1.0000 0.63726  0.10762  0.50464  Biso   1.000  O
  O17      1.0000 0.63382  0.24966  0.41910  Biso   1.000  O
  O18      1.0000 0.90690  0.65880  0.31080  Biso   1.000  O
