data_image0
_cell_length_a       18.2791
_cell_length_b       18.4914
_cell_length_c       18.4914
_cell_angle_alpha    70.2974
_cell_angle_beta     70.7612
_cell_angle_gamma    109.239

_symmetry_space_group_name_H-M    P 1
_symmetry_int_tables_number       1

loop_
  _symmetry_equiv_pos_as_xyz
  'x, y, z'

loop_
  _atom_site_label
  _atom_site_occupancy
  _atom_site_fract_x
  _atom_site_fract_y
  _atom_site_fract_z
  _atom_site_thermal_displace_type
  _atom_site_B_iso_or_equiv
  _atom_site_type_symbol
  Zn1      1.0000 0.44018  0.50591  0.07401  Biso   1.000  Zn
  Zn2      1.0000 0.51419  0.07401  0.42008  Biso   1.000  Zn
  Zn3      1.0000 0.93427  0.42008  0.50591  Biso   1.000  Zn
  Zn4      1.0000 0.98581  0.42008  0.07401  Biso   1.000  Zn
  Zn5      1.0000 0.56573  0.50591  0.42008  Biso   1.000  Zn
  Zn6      1.0000 0.05982  0.07401  0.50591  Biso   1.000  Zn
  Zn7      1.0000 0.55982  0.49409  0.92599  Biso   1.000  Zn
  Zn8      1.0000 0.48581  0.92599  0.57992  Biso   1.000  Zn
  Zn9      1.0000 0.06573  0.57992  0.49409  Biso   1.000  Zn
  Zn10     1.0000 0.01419  0.57992  0.92599  Biso   1.000  Zn
  Zn11     1.0000 0.43427  0.49409  0.57992  Biso   1.000  Zn
  Zn12     1.0000 0.94018  0.92599  0.49409  Biso   1.000  Zn
  H1       1.0000 0.50400  0.37200  0.27910  Biso   1.000  H
  H2       1.0000 0.36020  0.22560  0.00700  Biso   1.000  H
  H3       1.0000 0.41930  0.70590  0.30430  Biso   1.000  H
  H4       1.0000 0.18990  0.59920  0.24590  Biso   1.000  H
  H5       1.0000 0.16120  0.51800  0.17670  Biso   1.000  H
  H6       1.0000 0.26590  0.48050  0.11340  Biso   1.000  H
  H7       1.0000 0.51620  0.65830  0.24500  Biso   1.000  H
  H8       1.0000 0.29000  0.67120  0.29630  Biso   1.000  H
  H9       1.0000 0.48600  0.57860  0.17550  Biso   1.000  H
  H10      1.0000 0.78310  0.27910  0.34890  Biso   1.000  H
  H11      1.0000 0.36720  0.00700  0.76740  Biso   1.000  H
  H12      1.0000 0.72360  0.30430  0.98980  Biso   1.000  H
  H13      1.0000 0.43580  0.24590  0.15490  Biso   1.000  H
  H14      1.0000 0.33790  0.17670  0.30530  Biso   1.000  H
  H15      1.0000 0.37930  0.11340  0.40610  Biso   1.000  H
  H16      1.0000 0.76120  0.24500  0.09670  Biso   1.000  H
  H17      1.0000 0.58630  0.29630  0.03250  Biso   1.000  H
  H18      1.0000 0.66150  0.17550  0.24590  Biso   1.000  H
  H19      1.0000 0.13200  0.34890  0.37200  Biso   1.000  H
  H20      1.0000 0.13460  0.76740  0.22560  Biso   1.000  H
  H21      1.0000 0.71340  0.98980  0.70590  Biso   1.000  H
  H22      1.0000 0.59070  0.15490  0.59920  Biso   1.000  H
  H23      1.0000 0.64320  0.30530  0.51800  Biso   1.000  H
  H24      1.0000 0.78540  0.40610  0.48050  Biso   1.000  H
  H25      1.0000 0.85790  0.09670  0.65830  Biso   1.000  H
  H26      1.0000 0.61880  0.03250  0.67120  Biso   1.000  H
  H27      1.0000 0.90740  0.24590  0.57860  Biso   1.000  H
  H28      1.0000 0.71690  0.34890  0.27910  Biso   1.000  H
  H29      1.0000 0.13280  0.76740  0.00700  Biso   1.000  H
  H30      1.0000 0.77640  0.98980  0.30430  Biso   1.000  H
  H31      1.0000 0.06420  0.15490  0.24590  Biso   1.000  H
  H32      1.0000 0.16210  0.30530  0.17670  Biso   1.000  H
  H33      1.0000 0.12070  0.40610  0.11340  Biso   1.000  H
  H34      1.0000 0.73880  0.09670  0.24500  Biso   1.000  H
  H35      1.0000 0.91370  0.03250  0.29630  Biso   1.000  H
  H36      1.0000 0.83850  0.24590  0.17550  Biso   1.000  H
  H37      1.0000 0.36800  0.37200  0.34890  Biso   1.000  H
  H38      1.0000 0.36540  0.22560  0.76740  Biso   1.000  H
  H39      1.0000 0.78660  0.70590  0.98980  Biso   1.000  H
  H40      1.0000 0.90930  0.59920  0.15490  Biso   1.000  H
  H41      1.0000 0.85680  0.51800  0.30530  Biso   1.000  H
  H42      1.0000 0.71460  0.48050  0.40610  Biso   1.000  H
  H43      1.0000 0.64210  0.65830  0.09670  Biso   1.000  H
  H44      1.0000 0.88120  0.67120  0.03250  Biso   1.000  H
  H45      1.0000 0.59260  0.57860  0.24590  Biso   1.000  H
  H46      1.0000 0.99600  0.27910  0.37200  Biso   1.000  H
  H47      1.0000 0.13980  0.00700  0.22560  Biso   1.000  H
  H48      1.0000 0.08070  0.30430  0.70590  Biso   1.000  H
  H49      1.0000 0.31010  0.24590  0.59920  Biso   1.000  H
  H50      1.0000 0.33880  0.17670  0.51800  Biso   1.000  H
  H51      1.0000 0.23410  0.11340  0.48050  Biso   1.000  H
  H52      1.0000 0.98380  0.24500  0.65830  Biso   1.000  H
  H53      1.0000 0.21000  0.29630  0.67120  Biso   1.000  H
  H54      1.0000 0.01400  0.17550  0.57860  Biso   1.000  H
  H55      1.0000 0.49600  0.62800  0.72090  Biso   1.000  H
  H56      1.0000 0.63980  0.77440  0.99300  Biso   1.000  H
  H57      1.0000 0.58070  0.29410  0.69570  Biso   1.000  H
  H58      1.0000 0.81010  0.40080  0.75410  Biso   1.000  H
  H59      1.0000 0.83880  0.48200  0.82330  Biso   1.000  H
  H60      1.0000 0.73410  0.51950  0.88660  Biso   1.000  H
  H61      1.0000 0.48380  0.34170  0.75500  Biso   1.000  H
  H62      1.0000 0.71000  0.32880  0.70370  Biso   1.000  H
  H63      1.0000 0.51400  0.42140  0.82450  Biso   1.000  H
  H64      1.0000 0.21690  0.72090  0.65110  Biso   1.000  H
  H65      1.0000 0.63280  0.99300  0.23260  Biso   1.000  H
  H66      1.0000 0.27640  0.69570  0.01020  Biso   1.000  H
  H67      1.0000 0.56420  0.75410  0.84510  Biso   1.000  H
  H68      1.0000 0.66210  0.82330  0.69470  Biso   1.000  H
  H69      1.0000 0.62070  0.88660  0.59390  Biso   1.000  H
  H70      1.0000 0.23880  0.75500  0.90330  Biso   1.000  H
  H71      1.0000 0.41370  0.70370  0.96750  Biso   1.000  H
  H72      1.0000 0.33850  0.82450  0.75410  Biso   1.000  H
  H73      1.0000 0.86800  0.65110  0.62800  Biso   1.000  H
  H74      1.0000 0.86540  0.23260  0.77440  Biso   1.000  H
  H75      1.0000 0.28660  0.01020  0.29410  Biso   1.000  H
  H76      1.0000 0.40930  0.84510  0.40080  Biso   1.000  H
  H77      1.0000 0.35680  0.69470  0.48200  Biso   1.000  H
  H78      1.0000 0.21460  0.59390  0.51950  Biso   1.000  H
  H79      1.0000 0.14210  0.90330  0.34170  Biso   1.000  H
  H80      1.0000 0.38120  0.96750  0.32880  Biso   1.000  H
  H81      1.0000 0.09260  0.75410  0.42140  Biso   1.000  H
  H82      1.0000 0.28310  0.65110  0.72090  Biso   1.000  H
  H83      1.0000 0.86720  0.23260  0.99300  Biso   1.000  H
  H84      1.0000 0.22360  0.01020  0.69570  Biso   1.000  H
  H85      1.0000 0.93580  0.84510  0.75410  Biso   1.000  H
  H86      1.0000 0.83790  0.69470  0.82330  Biso   1.000  H
  H87      1.0000 0.87930  0.59390  0.88660  Biso   1.000  H
  H88      1.0000 0.26120  0.90330  0.75500  Biso   1.000  H
  H89      1.0000 0.08630  0.96750  0.70370  Biso   1.000  H
  H90      1.0000 0.16150  0.75410  0.82450  Biso   1.000  H
  H91      1.0000 0.63200  0.62800  0.65110  Biso   1.000  H
  H92      1.0000 0.63460  0.77440  0.23260  Biso   1.000  H
  H93      1.0000 0.21340  0.29410  0.01020  Biso   1.000  H
  H94      1.0000 0.09070  0.40080  0.84510  Biso   1.000  H
  H95      1.0000 0.14320  0.48200  0.69470  Biso   1.000  H
  H96      1.0000 0.28540  0.51950  0.59390  Biso   1.000  H
  H97      1.0000 0.35790  0.34170  0.90330  Biso   1.000  H
  H98      1.0000 0.11880  0.32880  0.96750  Biso   1.000  H
  H99      1.0000 0.40740  0.42140  0.75410  Biso   1.000  H
  H100     1.0000 0.00400  0.72090  0.62800  Biso   1.000  H
  H101     1.0000 0.86020  0.99300  0.77440  Biso   1.000  H
  H102     1.0000 0.91930  0.69570  0.29410  Biso   1.000  H
  H103     1.0000 0.68990  0.75410  0.40080  Biso   1.000  H
  H104     1.0000 0.66120  0.82330  0.48200  Biso   1.000  H
  H105     1.0000 0.76590  0.88660  0.51950  Biso   1.000  H
  H106     1.0000 0.01620  0.75500  0.34170  Biso   1.000  H
  H107     1.0000 0.79000  0.70370  0.32880  Biso   1.000  H
  H108     1.0000 0.98600  0.82450  0.42140  Biso   1.000  H
  H109     1.0000 0.72650  0.47650  0.04700  Biso   1.000  H
  H110     1.0000 0.57190  0.32190  0.35620  Biso   1.000  H
  H111     1.0000 0.77350  0.04700  0.47650  Biso   1.000  H
  H112     1.0000 0.92810  0.35620  0.32190  Biso   1.000  H
  H113     1.0000 0.25000  0.47650  0.47650  Biso   1.000  H
  H114     1.0000 0.25000  0.32190  0.32190  Biso   1.000  H
  H115     1.0000 0.27350  0.52350  0.95300  Biso   1.000  H
  H116     1.0000 0.42810  0.67810  0.64380  Biso   1.000  H
  H117     1.0000 0.22650  0.95300  0.52350  Biso   1.000  H
  H118     1.0000 0.07190  0.64380  0.67810  Biso   1.000  H
  H119     1.0000 0.75000  0.52350  0.52350  Biso   1.000  H
  H120     1.0000 0.75000  0.67810  0.67810  Biso   1.000  H
  H121     1.0000 0.25000  0.23205  0.23205  Biso   1.000  H
  H122     1.0000 0.25000  0.07760  0.07760  Biso   1.000  H
  H123     1.0000 0.48205  0.23205  0.53590  Biso   1.000  H
  H124     1.0000 0.32760  0.07760  0.84480  Biso   1.000  H
  H125     1.0000 0.01795  0.53590  0.23205  Biso   1.000  H
  H126     1.0000 0.17240  0.84480  0.07760  Biso   1.000  H
  H127     1.0000 0.75000  0.76795  0.76795  Biso   1.000  H
  H128     1.0000 0.75000  0.92240  0.92240  Biso   1.000  H
  H129     1.0000 0.51795  0.76795  0.46410  Biso   1.000  H
  H130     1.0000 0.67240  0.92240  0.15520  Biso   1.000  H
  H131     1.0000 0.98205  0.46410  0.76795  Biso   1.000  H
  H132     1.0000 0.82760  0.15520  0.92240  Biso   1.000  H
  C1       1.0000 0.56098  0.45122  0.10563  Biso   1.000  C
  C2       1.0000 0.60736  0.42588  0.15559  Biso   1.000  C
  C3       1.0000 0.56252  0.38219  0.24756  Biso   1.000  C
  C4       1.0000 0.38001  0.34010  0.06882  Biso   1.000  C
  C5       1.0000 0.31335  0.24400  0.11207  Biso   1.000  C
  C6       1.0000 0.31488  0.19728  0.06673  Biso   1.000  C
  C7       1.0000 0.40552  0.67293  0.27628  Biso   1.000  C
  C8       1.0000 0.23120  0.58214  0.22128  Biso   1.000  C
  C9       1.0000 0.21450  0.53512  0.18011  Biso   1.000  C
  C10      1.0000 0.27746  0.51237  0.14293  Biso   1.000  C
  C11      1.0000 0.46371  0.64460  0.24021  Biso   1.000  C
  C12      1.0000 0.30946  0.60554  0.22746  Biso   1.000  C
  C13      1.0000 0.32968  0.65303  0.27084  Biso   1.000  C
  C14      1.0000 0.36941  0.57876  0.19009  Biso   1.000  C
  C15      1.0000 0.44641  0.59793  0.19855  Biso   1.000  C
  C16      1.0000 0.66661  0.10563  0.44315  Biso   1.000  C
  C17      1.0000 0.76295  0.15559  0.41853  Biso   1.000  C
  C18      1.0000 0.81008  0.24756  0.37025  Biso   1.000  C
  C19      1.0000 0.44883  0.06882  0.59108  Biso   1.000  C
  C20      1.0000 0.42542  0.11207  0.64393  Biso   1.000  C
  C21      1.0000 0.38161  0.06673  0.73599  Biso   1.000  C
  C22      1.0000 0.68180  0.27628  0.05079  Biso   1.000  C
  C23      1.0000 0.45248  0.22128  0.19658  Biso   1.000  C
  C24      1.0000 0.39461  0.18011  0.28477  Biso   1.000  C
  C25      1.0000 0.42039  0.14293  0.34470  Biso   1.000  C
  C26      1.0000 0.70392  0.24021  0.11519  Biso   1.000  C
  C27      1.0000 0.53692  0.22746  0.16700  Biso   1.000  C
  C28      1.0000 0.60052  0.27084  0.07613  Biso   1.000  C
  C29      1.0000 0.55950  0.19009  0.23115  Biso   1.000  C
  C30      1.0000 0.64496  0.19855  0.20352  Biso   1.000  C
  C31      1.0000 0.10976  0.44315  0.45122  Biso   1.000  C
  C32      1.0000 0.18148  0.41853  0.42588  Biso   1.000  C
  C33      1.0000 0.18033  0.37025  0.38219  Biso   1.000  C
  C34      1.0000 0.03991  0.59108  0.34010  Biso   1.000  C
  C35      1.0000 0.06935  0.64393  0.24400  Biso   1.000  C
  C36      1.0000 0.11760  0.73599  0.19728  Biso   1.000  C
  C37      1.0000 0.73259  0.05079  0.67293  Biso   1.000  C
  C38      1.0000 0.64906  0.19658  0.58214  Biso   1.000  C
  C39      1.0000 0.67938  0.28477  0.53512  Biso   1.000  C
  C40      1.0000 0.76509  0.34470  0.51237  Biso   1.000  C
  C41      1.0000 0.81911  0.11519  0.64460  Biso   1.000  C
  C42      1.0000 0.70392  0.16700  0.60554  Biso   1.000  C
  C43      1.0000 0.67665  0.07613  0.65303  Biso   1.000  C
  C44      1.0000 0.79065  0.23115  0.57876  Biso   1.000  C
  C45      1.0000 0.84848  0.20352  0.59793  Biso   1.000  C
  C46      1.0000 0.83339  0.44315  0.10563  Biso   1.000  C
  C47      1.0000 0.73705  0.41853  0.15559  Biso   1.000  C
  C48      1.0000 0.68992  0.37025  0.24756  Biso   1.000  C
  C49      1.0000 0.05117  0.59108  0.06882  Biso   1.000  C
  C50      1.0000 0.07458  0.64393  0.11207  Biso   1.000  C
  C51      1.0000 0.11839  0.73599  0.06673  Biso   1.000  C
  C52      1.0000 0.81820  0.05079  0.27628  Biso   1.000  C
  C53      1.0000 0.04752  0.19658  0.22128  Biso   1.000  C
  C54      1.0000 0.10539  0.28477  0.18011  Biso   1.000  C
  C55      1.0000 0.07961  0.34470  0.14293  Biso   1.000  C
  C56      1.0000 0.79608  0.11519  0.24021  Biso   1.000  C
  C57      1.0000 0.96308  0.16700  0.22746  Biso   1.000  C
  C58      1.0000 0.89948  0.07613  0.27084  Biso   1.000  C
  C59      1.0000 0.94050  0.23115  0.19009  Biso   1.000  C
  C60      1.0000 0.85504  0.20352  0.19855  Biso   1.000  C
  C61      1.0000 0.39024  0.45122  0.44315  Biso   1.000  C
  C62      1.0000 0.31852  0.42588  0.41853  Biso   1.000  C
  C63      1.0000 0.31967  0.38219  0.37025  Biso   1.000  C
  C64      1.0000 0.46009  0.34010  0.59108  Biso   1.000  C
  C65      1.0000 0.43065  0.24400  0.64393  Biso   1.000  C
  C66      1.0000 0.38240  0.19728  0.73599  Biso   1.000  C
  C67      1.0000 0.76741  0.67293  0.05079  Biso   1.000  C
  C68      1.0000 0.85094  0.58214  0.19658  Biso   1.000  C
  C69      1.0000 0.82062  0.53512  0.28477  Biso   1.000  C
  C70      1.0000 0.73491  0.51237  0.34470  Biso   1.000  C
  C71      1.0000 0.68089  0.64460  0.11519  Biso   1.000  C
  C72      1.0000 0.79608  0.60554  0.16700  Biso   1.000  C
  C73      1.0000 0.82335  0.65303  0.07613  Biso   1.000  C
  C74      1.0000 0.70935  0.57876  0.23115  Biso   1.000  C
  C75      1.0000 0.65152  0.59793  0.20352  Biso   1.000  C
  C76      1.0000 0.93902  0.10563  0.45122  Biso   1.000  C
  C77      1.0000 0.89264  0.15559  0.42588  Biso   1.000  C
  C78      1.0000 0.93748  0.24756  0.38219  Biso   1.000  C
  C79      1.0000 0.11999  0.06882  0.34010  Biso   1.000  C
  C80      1.0000 0.18665  0.11207  0.24400  Biso   1.000  C
  C81      1.0000 0.18512  0.06673  0.19728  Biso   1.000  C
  C82      1.0000 0.09448  0.27628  0.67293  Biso   1.000  C
  C83      1.0000 0.26880  0.22128  0.58214  Biso   1.000  C
  C84      1.0000 0.28550  0.18011  0.53512  Biso   1.000  C
  C85      1.0000 0.22254  0.14293  0.51237  Biso   1.000  C
  C86      1.0000 0.03629  0.24021  0.64460  Biso   1.000  C
  C87      1.0000 0.19054  0.22746  0.60554  Biso   1.000  C
  C88      1.0000 0.17032  0.27084  0.65303  Biso   1.000  C
  C89      1.0000 0.13059  0.19009  0.57876  Biso   1.000  C
  C90      1.0000 0.05359  0.19855  0.59793  Biso   1.000  C
  C91      1.0000 0.43902  0.54878  0.89437  Biso   1.000  C
  C92      1.0000 0.39264  0.57412  0.84441  Biso   1.000  C
  C93      1.0000 0.43748  0.61781  0.75244  Biso   1.000  C
  C94      1.0000 0.61999  0.65990  0.93118  Biso   1.000  C
  C95      1.0000 0.68665  0.75600  0.88793  Biso   1.000  C
  C96      1.0000 0.68512  0.80272  0.93327  Biso   1.000  C
  C97      1.0000 0.59448  0.32707  0.72372  Biso   1.000  C
  C98      1.0000 0.76880  0.41786  0.77872  Biso   1.000  C
  C99      1.0000 0.78550  0.46488  0.81989  Biso   1.000  C
  C100     1.0000 0.72254  0.48763  0.85707  Biso   1.000  C
  C101     1.0000 0.53629  0.35540  0.75979  Biso   1.000  C
  C102     1.0000 0.69054  0.39446  0.77254  Biso   1.000  C
  C103     1.0000 0.67032  0.34697  0.72916  Biso   1.000  C
  C104     1.0000 0.63059  0.42124  0.80991  Biso   1.000  C
  C105     1.0000 0.55359  0.40207  0.80145  Biso   1.000  C
  C106     1.0000 0.33339  0.89437  0.55685  Biso   1.000  C
  C107     1.0000 0.23705  0.84441  0.58147  Biso   1.000  C
  C108     1.0000 0.18992  0.75244  0.62975  Biso   1.000  C
  C109     1.0000 0.55117  0.93118  0.40892  Biso   1.000  C
  C110     1.0000 0.57458  0.88793  0.35607  Biso   1.000  C
  C111     1.0000 0.61839  0.93327  0.26401  Biso   1.000  C
  C112     1.0000 0.31820  0.72372  0.94921  Biso   1.000  C
  C113     1.0000 0.54752  0.77872  0.80342  Biso   1.000  C
  C114     1.0000 0.60539  0.81989  0.71523  Biso   1.000  C
  C115     1.0000 0.57961  0.85707  0.65530  Biso   1.000  C
  C116     1.0000 0.29608  0.75979  0.88481  Biso   1.000  C
  C117     1.0000 0.46308  0.77254  0.83300  Biso   1.000  C
  C118     1.0000 0.39948  0.72916  0.92387  Biso   1.000  C
  C119     1.0000 0.44050  0.80991  0.76885  Biso   1.000  C
  C120     1.0000 0.35504  0.80145  0.79648  Biso   1.000  C
  C121     1.0000 0.89024  0.55685  0.54878  Biso   1.000  C
  C122     1.0000 0.81852  0.58147  0.57412  Biso   1.000  C
  C123     1.0000 0.81967  0.62975  0.61781  Biso   1.000  C
  C124     1.0000 0.96009  0.40892  0.65990  Biso   1.000  C
  C125     1.0000 0.93065  0.35607  0.75600  Biso   1.000  C
  C126     1.0000 0.88240  0.26401  0.80272  Biso   1.000  C
  C127     1.0000 0.26741  0.94921  0.32707  Biso   1.000  C
  C128     1.0000 0.35094  0.80342  0.41786  Biso   1.000  C
  C129     1.0000 0.32062  0.71523  0.46488  Biso   1.000  C
  C130     1.0000 0.23491  0.65530  0.48763  Biso   1.000  C
  C131     1.0000 0.18089  0.88481  0.35540  Biso   1.000  C
  C132     1.0000 0.29608  0.83300  0.39446  Biso   1.000  C
  C133     1.0000 0.32335  0.92387  0.34697  Biso   1.000  C
  C134     1.0000 0.20935  0.76885  0.42124  Biso   1.000  C
  C135     1.0000 0.15152  0.79648  0.40207  Biso   1.000  C
  C136     1.0000 0.16661  0.55685  0.89437  Biso   1.000  C
  C137     1.0000 0.26295  0.58147  0.84441  Biso   1.000  C
  C138     1.0000 0.31008  0.62975  0.75244  Biso   1.000  C
  C139     1.0000 0.94883  0.40892  0.93118  Biso   1.000  C
  C140     1.0000 0.92542  0.35607  0.88793  Biso   1.000  C
  C141     1.0000 0.88161  0.26401  0.93327  Biso   1.000  C
  C142     1.0000 0.18180  0.94921  0.72372  Biso   1.000  C
  C143     1.0000 0.95248  0.80342  0.77872  Biso   1.000  C
  C144     1.0000 0.89461  0.71523  0.81989  Biso   1.000  C
  C145     1.0000 0.92039  0.65530  0.85707  Biso   1.000  C
  C146     1.0000 0.20392  0.88481  0.75979  Biso   1.000  C
  C147     1.0000 0.03692  0.83300  0.77254  Biso   1.000  C
  C148     1.0000 0.10052  0.92387  0.72916  Biso   1.000  C
  C149     1.0000 0.05950  0.76885  0.80991  Biso   1.000  C
  C150     1.0000 0.14496  0.79648  0.80145  Biso   1.000  C
  C151     1.0000 0.60976  0.54878  0.55685  Biso   1.000  C
  C152     1.0000 0.68148  0.57412  0.58147  Biso   1.000  C
  C153     1.0000 0.68033  0.61781  0.62975  Biso   1.000  C
  C154     1.0000 0.53991  0.65990  0.40892  Biso   1.000  C
  C155     1.0000 0.56935  0.75600  0.35607  Biso   1.000  C
  C156     1.0000 0.61760  0.80272  0.26401  Biso   1.000  C
  C157     1.0000 0.23259  0.32707  0.94921  Biso   1.000  C
  C158     1.0000 0.14906  0.41786  0.80342  Biso   1.000  C
  C159     1.0000 0.17938  0.46488  0.71523  Biso   1.000  C
  C160     1.0000 0.26509  0.48763  0.65530  Biso   1.000  C
  C161     1.0000 0.31911  0.35540  0.88481  Biso   1.000  C
  C162     1.0000 0.20392  0.39446  0.83300  Biso   1.000  C
  C163     1.0000 0.17665  0.34697  0.92387  Biso   1.000  C
  C164     1.0000 0.29065  0.42124  0.76885  Biso   1.000  C
  C165     1.0000 0.34848  0.40207  0.79648  Biso   1.000  C
  C166     1.0000 0.06098  0.89437  0.54878  Biso   1.000  C
  C167     1.0000 0.10736  0.84441  0.57412  Biso   1.000  C
  C168     1.0000 0.06252  0.75244  0.61781  Biso   1.000  C
  C169     1.0000 0.88001  0.93118  0.65990  Biso   1.000  C
  C170     1.0000 0.81335  0.88793  0.75600  Biso   1.000  C
  C171     1.0000 0.81488  0.93327  0.80272  Biso   1.000  C
  C172     1.0000 0.90552  0.72372  0.32707  Biso   1.000  C
  C173     1.0000 0.73120  0.77872  0.41786  Biso   1.000  C
  C174     1.0000 0.71450  0.81989  0.46488  Biso   1.000  C
  C175     1.0000 0.77746  0.85707  0.48763  Biso   1.000  C
  C176     1.0000 0.96371  0.75979  0.35540  Biso   1.000  C
  C177     1.0000 0.80946  0.77254  0.39446  Biso   1.000  C
  C178     1.0000 0.82968  0.72916  0.34697  Biso   1.000  C
  C179     1.0000 0.86941  0.80991  0.42124  Biso   1.000  C
  C180     1.0000 0.94641  0.80145  0.40207  Biso   1.000  C
  C181     1.0000 0.69513  0.44513  0.10974  Biso   1.000  C
  C182     1.0000 0.60333  0.35333  0.29334  Biso   1.000  C
  C183     1.0000 0.80487  0.10974  0.44513  Biso   1.000  C
  C184     1.0000 0.89667  0.29334  0.35333  Biso   1.000  C
  C185     1.0000 0.25000  0.44513  0.44513  Biso   1.000  C
  C186     1.0000 0.25000  0.35333  0.35333  Biso   1.000  C
  C187     1.0000 0.30487  0.55487  0.89026  Biso   1.000  C
  C188     1.0000 0.39667  0.64667  0.70666  Biso   1.000  C
  C189     1.0000 0.19513  0.89026  0.55487  Biso   1.000  C
  C190     1.0000 0.10333  0.70666  0.64667  Biso   1.000  C
  C191     1.0000 0.75000  0.55487  0.55487  Biso   1.000  C
  C192     1.0000 0.75000  0.64667  0.64667  Biso   1.000  C
  C193     1.0000 0.25000  0.20065  0.20065  Biso   1.000  C
  C194     1.0000 0.25000  0.10901  0.10901  Biso   1.000  C
  C195     1.0000 0.45065  0.20065  0.59870  Biso   1.000  C
  C196     1.0000 0.35901  0.10901  0.78198  Biso   1.000  C
  C197     1.0000 0.04935  0.59870  0.20065  Biso   1.000  C
  C198     1.0000 0.14099  0.78198  0.10901  Biso   1.000  C
  C199     1.0000 0.75000  0.79935  0.79935  Biso   1.000  C
  C200     1.0000 0.75000  0.89099  0.89099  Biso   1.000  C
  C201     1.0000 0.54935  0.79935  0.40130  Biso   1.000  C
  C202     1.0000 0.64099  0.89099  0.21802  Biso   1.000  C
  C203     1.0000 0.95065  0.40130  0.79935  Biso   1.000  C
  C204     1.0000 0.85901  0.21802  0.89099  Biso   1.000  C
  N1       1.0000 0.35230  0.53292  0.14680  Biso   1.000  N
  N2       1.0000 0.49910  0.14680  0.32028  Biso   1.000  N
  N3       1.0000 0.81938  0.32028  0.53292  Biso   1.000  N
  N4       1.0000 0.00090  0.32028  0.14680  Biso   1.000  N
  N5       1.0000 0.68062  0.53292  0.32028  Biso   1.000  N
  N6       1.0000 0.14770  0.14680  0.53292  Biso   1.000  N
  N7       1.0000 0.64770  0.46708  0.85320  Biso   1.000  N
  N8       1.0000 0.50090  0.85320  0.67972  Biso   1.000  N
  N9       1.0000 0.18062  0.67972  0.46708  Biso   1.000  N
  N10      1.0000 0.99910  0.67972  0.85320  Biso   1.000  N
  N11      1.0000 0.31938  0.46708  0.67972  Biso   1.000  N
  N12      1.0000 0.85230  0.85320  0.46708  Biso   1.000  N
  O1       1.0000 0.49687  0.46105  0.14366  Biso   1.000  O
  O2       1.0000 0.36098  0.37984  0.10868  Biso   1.000  O
  O3       1.0000 0.58932  0.46029  0.02947  Biso   1.000  O
  O4       1.0000 0.44988  0.37209  0.99749  Biso   1.000  O
  O5       1.0000 0.64053  0.14366  0.39529  Biso   1.000  O
  O6       1.0000 0.46966  0.10868  0.51148  Biso   1.000  O
  O7       1.0000 0.61879  0.02947  0.51024  Biso   1.000  O
  O8       1.0000 0.44737  0.99749  0.63042  Biso   1.000  O
  O9       1.0000 0.03582  0.39529  0.46105  Biso   1.000  O
  O10      1.0000 0.98114  0.51148  0.37984  Biso   1.000  O
  O11      1.0000 0.12903  0.51024  0.46029  Biso   1.000  O
  O12      1.0000 0.07779  0.63042  0.37209  Biso   1.000  O
  O13      1.0000 0.85947  0.39529  0.14366  Biso   1.000  O
  O14      1.0000 0.03034  0.51148  0.10868  Biso   1.000  O
  O15      1.0000 0.88121  0.51024  0.02947  Biso   1.000  O
  O16      1.0000 0.05263  0.63042  0.99749  Biso   1.000  O
  O17      1.0000 0.46418  0.46105  0.39529  Biso   1.000  O
  O18      1.0000 0.51886  0.37984  0.51148  Biso   1.000  O
  O19      1.0000 0.37097  0.46029  0.51024  Biso   1.000  O
  O20      1.0000 0.42221  0.37209  0.63042  Biso   1.000  O
  O21      1.0000 0.00313  0.14366  0.46105  Biso   1.000  O
  O22      1.0000 0.13902  0.10868  0.37984  Biso   1.000  O
  O23      1.0000 0.91068  0.02947  0.46029  Biso   1.000  O
  O24      1.0000 0.05012  0.99749  0.37209  Biso   1.000  O
  O25      1.0000 0.50313  0.53895  0.85634  Biso   1.000  O
  O26      1.0000 0.63902  0.62016  0.89132  Biso   1.000  O
  O27      1.0000 0.41068  0.53971  0.97053  Biso   1.000  O
  O28      1.0000 0.55012  0.62791  0.00251  Biso   1.000  O
  O29      1.0000 0.35947  0.85634  0.60471  Biso   1.000  O
  O30      1.0000 0.53034  0.89132  0.48852  Biso   1.000  O
  O31      1.0000 0.38121  0.97053  0.48976  Biso   1.000  O
  O32      1.0000 0.55263  0.00251  0.36958  Biso   1.000  O
  O33      1.0000 0.96418  0.60471  0.53895  Biso   1.000  O
  O34      1.0000 0.01886  0.48852  0.62016  Biso   1.000  O
  O35      1.0000 0.87097  0.48976  0.53971  Biso   1.000  O
  O36      1.0000 0.92221  0.36958  0.62791  Biso   1.000  O
  O37      1.0000 0.14053  0.60471  0.85634  Biso   1.000  O
  O38      1.0000 0.96966  0.48852  0.89132  Biso   1.000  O
  O39      1.0000 0.11879  0.48976  0.97053  Biso   1.000  O
  O40      1.0000 0.94737  0.36958  0.00251  Biso   1.000  O
  O41      1.0000 0.53582  0.53895  0.60471  Biso   1.000  O
  O42      1.0000 0.48114  0.62016  0.48852  Biso   1.000  O
  O43      1.0000 0.62903  0.53971  0.48976  Biso   1.000  O
  O44      1.0000 0.57779  0.62791  0.36958  Biso   1.000  O
  O45      1.0000 0.99687  0.85634  0.53895  Biso   1.000  O
  O46      1.0000 0.86098  0.89132  0.62016  Biso   1.000  O
  O47      1.0000 0.08932  0.97053  0.53971  Biso   1.000  O
  O48      1.0000 0.94988  0.00251  0.62791  Biso   1.000  O
