data_image0
_cell_length_a       12.403
_cell_length_b       15.729
_cell_length_c       15.729
_cell_angle_alpha    120
_cell_angle_beta     90
_cell_angle_gamma    90

_symmetry_space_group_name_H-M    P 1
_symmetry_int_tables_number       1

loop_
  _symmetry_equiv_pos_as_xyz
  'x, y, z'

loop_
  _atom_site_label
  _atom_site_occupancy
  _atom_site_fract_x
  _atom_site_fract_y
  _atom_site_fract_z
  _atom_site_thermal_displace_type
  _atom_site_B_iso_or_equiv
  _atom_site_type_symbol
  Zn1      1.0000 0.83333  0.00000  0.57877  Biso   1.000  Zn
  Zn2      1.0000 0.50000  0.57877  0.00000  Biso   1.000  Zn
  Zn3      1.0000 0.16667  0.42123  0.42123  Biso   1.000  Zn
  H1       1.0000 0.84370  0.81770  0.36750  Biso   1.000  H
  H2       1.0000 0.02330  0.05350  0.47250  Biso   1.000  H
  H3       1.0000 0.22050  0.05860  0.25110  Biso   1.000  H
  H4       1.0000 0.16380  0.95800  0.18240  Biso   1.000  H
  H5       1.0000 0.23260  0.97150  0.27200  Biso   1.000  H
  H6       1.0000 0.18430  0.19530  0.32730  Biso   1.000  H
  H7       1.0000 0.93440  0.37150  0.42940  Biso   1.000  H
  H8       1.0000 0.70200  0.28480  0.35180  Biso   1.000  H
  H9       1.0000 0.76720  0.37280  0.43440  Biso   1.000  H
  H10      1.0000 0.66600  0.33160  0.46180  Biso   1.000  H
  H11      1.0000 0.51037  0.54980  0.18230  Biso   1.000  H
  H12      1.0000 0.68997  0.41900  0.94650  Biso   1.000  H
  H13      1.0000 0.88717  0.19250  0.94140  Biso   1.000  H
  H14      1.0000 0.83047  0.22440  0.04200  Biso   1.000  H
  H15      1.0000 0.89927  0.30050  0.02850  Biso   1.000  H
  H16      1.0000 0.85097  0.13200  0.80470  Biso   1.000  H
  H17      1.0000 0.60107  0.05790  0.62850  Biso   1.000  H
  H18      1.0000 0.36867  0.06700  0.71520  Biso   1.000  H
  H19      1.0000 0.43387  0.06160  0.62720  Biso   1.000  H
  H20      1.0000 0.33267  0.13020  0.66840  Biso   1.000  H
  H21      1.0000 0.17703  0.63250  0.45020  Biso   1.000  H
  H22      1.0000 0.35663  0.52750  0.58100  Biso   1.000  H
  H23      1.0000 0.55383  0.74890  0.80750  Biso   1.000  H
  H24      1.0000 0.49713  0.81760  0.77560  Biso   1.000  H
  H25      1.0000 0.56593  0.72800  0.69950  Biso   1.000  H
  H26      1.0000 0.51763  0.67270  0.86800  Biso   1.000  H
  H27      1.0000 0.26773  0.57060  0.94210  Biso   1.000  H
  H28      1.0000 0.03533  0.64820  0.93300  Biso   1.000  H
  H29      1.0000 0.10053  0.56560  0.93840  Biso   1.000  H
  H30      1.0000 0.99933  0.53820  0.86980  Biso   1.000  H
  H31      1.0000 0.15630  0.45020  0.63250  Biso   1.000  H
  H32      1.0000 0.97670  0.58100  0.52750  Biso   1.000  H
  H33      1.0000 0.77950  0.80750  0.74890  Biso   1.000  H
  H34      1.0000 0.83620  0.77560  0.81760  Biso   1.000  H
  H35      1.0000 0.76740  0.69950  0.72800  Biso   1.000  H
  H36      1.0000 0.81570  0.86800  0.67270  Biso   1.000  H
  H37      1.0000 0.06560  0.94210  0.57060  Biso   1.000  H
  H38      1.0000 0.29800  0.93300  0.64820  Biso   1.000  H
  H39      1.0000 0.23280  0.93840  0.56560  Biso   1.000  H
  H40      1.0000 0.33400  0.86980  0.53820  Biso   1.000  H
  H41      1.0000 0.48963  0.36750  0.81770  Biso   1.000  H
  H42      1.0000 0.31003  0.47250  0.05350  Biso   1.000  H
  H43      1.0000 0.11283  0.25110  0.05860  Biso   1.000  H
  H44      1.0000 0.16953  0.18240  0.95800  Biso   1.000  H
  H45      1.0000 0.10073  0.27200  0.97150  Biso   1.000  H
  H46      1.0000 0.14903  0.32730  0.19530  Biso   1.000  H
  H47      1.0000 0.39893  0.42940  0.37150  Biso   1.000  H
  H48      1.0000 0.63133  0.35180  0.28480  Biso   1.000  H
  H49      1.0000 0.56613  0.43440  0.37280  Biso   1.000  H
  H50      1.0000 0.66733  0.46180  0.33160  Biso   1.000  H
  H51      1.0000 0.82297  0.18230  0.54980  Biso   1.000  H
  H52      1.0000 0.64337  0.94650  0.41900  Biso   1.000  H
  H53      1.0000 0.44617  0.94140  0.19250  Biso   1.000  H
  H54      1.0000 0.50287  0.04200  0.22440  Biso   1.000  H
  H55      1.0000 0.43407  0.02850  0.30050  Biso   1.000  H
  H56      1.0000 0.48237  0.80470  0.13200  Biso   1.000  H
  H57      1.0000 0.73227  0.62850  0.05790  Biso   1.000  H
  H58      1.0000 0.96467  0.71520  0.06700  Biso   1.000  H
  H59      1.0000 0.89947  0.62720  0.06160  Biso   1.000  H
  H60      1.0000 0.00067  0.66840  0.13020  Biso   1.000  H
  C1       1.0000 0.92080  0.83540  0.26430  Biso   1.000  C
  C2       1.0000 0.88990  0.85930  0.35880  Biso   1.000  C
  C3       1.0000 0.99480  0.99700  0.41970  Biso   1.000  C
  C4       1.0000 0.02380  0.97200  0.32510  Biso   1.000  C
  C5       1.0000 0.18460  0.00340  0.24880  Biso   1.000  C
  C6       1.0000 0.05010  0.13100  0.34530  Biso   1.000  C
  C7       1.0000 0.11300  0.20690  0.34840  Biso   1.000  C
  C8       1.0000 0.96590  0.31040  0.40810  Biso   1.000  C
  C9       1.0000 0.90410  0.23360  0.40410  Biso   1.000  C
  C10      1.0000 0.72700  0.31460  0.41860  Biso   1.000  C
  C11      1.0000 0.04580  0.28560  0.71960  Biso   1.000  C
  C12      1.0000 0.58747  0.42890  0.16460  Biso   1.000  C
  C13      1.0000 0.55657  0.49950  0.14070  Biso   1.000  C
  C14      1.0000 0.66147  0.42270  0.00300  Biso   1.000  C
  C15      1.0000 0.69047  0.35310  0.02800  Biso   1.000  C
  C16      1.0000 0.85127  0.24540  0.99660  Biso   1.000  C
  C17      1.0000 0.71677  0.21430  0.86900  Biso   1.000  C
  C18      1.0000 0.77967  0.14150  0.79310  Biso   1.000  C
  C19      1.0000 0.63257  0.09770  0.68960  Biso   1.000  C
  C20      1.0000 0.57077  0.17050  0.76640  Biso   1.000  C
  C21      1.0000 0.39367  0.10400  0.68540  Biso   1.000  C
  C22      1.0000 0.71247  0.43400  0.71440  Biso   1.000  C
  C23      1.0000 0.25413  0.73570  0.57110  Biso   1.000  C
  C24      1.0000 0.22323  0.64120  0.50050  Biso   1.000  C
  C25      1.0000 0.32813  0.58030  0.57730  Biso   1.000  C
  C26      1.0000 0.35713  0.67490  0.64690  Biso   1.000  C
  C27      1.0000 0.51793  0.75120  0.75460  Biso   1.000  C
  C28      1.0000 0.38343  0.65470  0.78570  Biso   1.000  C
  C29      1.0000 0.44633  0.65160  0.85850  Biso   1.000  C
  C30      1.0000 0.29923  0.59190  0.90230  Biso   1.000  C
  C31      1.0000 0.23743  0.59590  0.82950  Biso   1.000  C
  C32      1.0000 0.06033  0.58140  0.89600  Biso   1.000  C
  C33      1.0000 0.37913  0.28040  0.56600  Biso   1.000  C
  C34      1.0000 0.07920  0.57110  0.73570  Biso   1.000  C
  C35      1.0000 0.11010  0.50050  0.64120  Biso   1.000  C
  C36      1.0000 0.00520  0.57730  0.58030  Biso   1.000  C
  C37      1.0000 0.97620  0.64690  0.67490  Biso   1.000  C
  C38      1.0000 0.81540  0.75460  0.75120  Biso   1.000  C
  C39      1.0000 0.94990  0.78570  0.65470  Biso   1.000  C
  C40      1.0000 0.88700  0.85850  0.65160  Biso   1.000  C
  C41      1.0000 0.03410  0.90230  0.59190  Biso   1.000  C
  C42      1.0000 0.09590  0.82950  0.59590  Biso   1.000  C
  C43      1.0000 0.27300  0.89600  0.58140  Biso   1.000  C
  C44      1.0000 0.95420  0.56600  0.28040  Biso   1.000  C
  C45      1.0000 0.41253  0.26430  0.83540  Biso   1.000  C
  C46      1.0000 0.44343  0.35880  0.85930  Biso   1.000  C
  C47      1.0000 0.33853  0.41970  0.99700  Biso   1.000  C
  C48      1.0000 0.30953  0.32510  0.97200  Biso   1.000  C
  C49      1.0000 0.14873  0.24880  0.00340  Biso   1.000  C
  C50      1.0000 0.28323  0.34530  0.13100  Biso   1.000  C
  C51      1.0000 0.22033  0.34840  0.20690  Biso   1.000  C
  C52      1.0000 0.36743  0.40810  0.31040  Biso   1.000  C
  C53      1.0000 0.42923  0.40410  0.23360  Biso   1.000  C
  C54      1.0000 0.60633  0.41860  0.31460  Biso   1.000  C
  C55      1.0000 0.28753  0.71960  0.28560  Biso   1.000  C
  C56      1.0000 0.74587  0.16460  0.42890  Biso   1.000  C
  C57      1.0000 0.77677  0.14070  0.49950  Biso   1.000  C
  C58      1.0000 0.67187  0.00300  0.42270  Biso   1.000  C
  C59      1.0000 0.64287  0.02800  0.35310  Biso   1.000  C
  C60      1.0000 0.48207  0.99660  0.24540  Biso   1.000  C
  C61      1.0000 0.61657  0.86900  0.21430  Biso   1.000  C
  C62      1.0000 0.55367  0.79310  0.14150  Biso   1.000  C
  C63      1.0000 0.70077  0.68960  0.09770  Biso   1.000  C
  C64      1.0000 0.76257  0.76640  0.17050  Biso   1.000  C
  C65      1.0000 0.93967  0.68540  0.10400  Biso   1.000  C
  C66      1.0000 0.62087  0.71440  0.43400  Biso   1.000  C
  S1       1.0000 0.04445  0.15873  0.69081  Biso   1.000  S
  S2       1.0000 0.71112  0.53208  0.84127  Biso   1.000  S
  S3       1.0000 0.37778  0.30919  0.46792  Biso   1.000  S
  S4       1.0000 0.95555  0.46792  0.30919  Biso   1.000  S
  S5       1.0000 0.28888  0.69081  0.15873  Biso   1.000  S
  S6       1.0000 0.62222  0.84127  0.53208  Biso   1.000  S
  N1       1.0000 0.98930  0.89050  0.24690  Biso   1.000  N
  N2       1.0000 0.92550  0.94060  0.43690  Biso   1.000  N
  N3       1.0000 0.08980  0.03680  0.31030  Biso   1.000  N
  N4       1.0000 0.94640  0.14530  0.37300  Biso   1.000  N
  N5       1.0000 0.06920  0.29620  0.38170  Biso   1.000  N
  N6       1.0000 0.79600  0.24520  0.42980  Biso   1.000  N
  N7       1.0000 0.65597  0.35640  0.10950  Biso   1.000  N
  N8       1.0000 0.59217  0.49630  0.05940  Biso   1.000  N
  N9       1.0000 0.75647  0.27350  0.96320  Biso   1.000  N
  N10      1.0000 0.61307  0.22770  0.85470  Biso   1.000  N
  N11      1.0000 0.73587  0.08550  0.70380  Biso   1.000  N
  N12      1.0000 0.46267  0.18460  0.75480  Biso   1.000  N
  N13      1.0000 0.32263  0.75310  0.64360  Biso   1.000  N
  N14      1.0000 0.25883  0.56310  0.50370  Biso   1.000  N
  N15      1.0000 0.42313  0.68970  0.72650  Biso   1.000  N
  N16      1.0000 0.27973  0.62700  0.77230  Biso   1.000  N
  N17      1.0000 0.40253  0.61830  0.91450  Biso   1.000  N
  N18      1.0000 0.12933  0.57020  0.81540  Biso   1.000  N
  N19      1.0000 0.01070  0.64360  0.75310  Biso   1.000  N
  N20      1.0000 0.07450  0.50370  0.56310  Biso   1.000  N
  N21      1.0000 0.91020  0.72650  0.68970  Biso   1.000  N
  N22      1.0000 0.05360  0.77230  0.62700  Biso   1.000  N
  N23      1.0000 0.93080  0.91450  0.61830  Biso   1.000  N
  N24      1.0000 0.20400  0.81540  0.57020  Biso   1.000  N
  N25      1.0000 0.34403  0.24690  0.89050  Biso   1.000  N
  N26      1.0000 0.40783  0.43690  0.94060  Biso   1.000  N
  N27      1.0000 0.24353  0.31030  0.03680  Biso   1.000  N
  N28      1.0000 0.38693  0.37300  0.14530  Biso   1.000  N
  N29      1.0000 0.26413  0.38170  0.29620  Biso   1.000  N
  N30      1.0000 0.53733  0.42980  0.24520  Biso   1.000  N
  N31      1.0000 0.67737  0.10950  0.35640  Biso   1.000  N
  N32      1.0000 0.74117  0.05940  0.49630  Biso   1.000  N
  N33      1.0000 0.57687  0.96320  0.27350  Biso   1.000  N
  N34      1.0000 0.72027  0.85470  0.22770  Biso   1.000  N
  N35      1.0000 0.59747  0.70380  0.08550  Biso   1.000  N
  N36      1.0000 0.87067  0.75480  0.18460  Biso   1.000  N
  O1       1.0000 0.13720  0.11800  0.63030  Biso   1.000  O
  O2       1.0000 0.94230  0.12394  0.63874  Biso   1.000  O
  O3       1.0000 0.04700  0.16150  0.78270  Biso   1.000  O
  O4       1.0000 0.80387  0.51230  0.88200  Biso   1.000  O
  O5       1.0000 0.60897  0.51480  0.87606  Biso   1.000  O
  O6       1.0000 0.71367  0.62120  0.83850  Biso   1.000  O
  O7       1.0000 0.47053  0.36970  0.48770  Biso   1.000  O
  O8       1.0000 0.27563  0.36126  0.48520  Biso   1.000  O
  O9       1.0000 0.38033  0.21730  0.37880  Biso   1.000  O
  O10      1.0000 0.86280  0.48770  0.36970  Biso   1.000  O
  O11      1.0000 0.05770  0.48520  0.36126  Biso   1.000  O
  O12      1.0000 0.95300  0.37880  0.21730  Biso   1.000  O
  O13      1.0000 0.19613  0.63030  0.11800  Biso   1.000  O
  O14      1.0000 0.39103  0.63874  0.12394  Biso   1.000  O
  O15      1.0000 0.28633  0.78270  0.16150  Biso   1.000  O
  O16      1.0000 0.52947  0.88200  0.51230  Biso   1.000  O
  O17      1.0000 0.72437  0.87606  0.51480  Biso   1.000  O
  O18      1.0000 0.61967  0.83850  0.62120  Biso   1.000  O
  F1       1.0000 0.96370  0.33250  0.77570  Biso   1.000  F
  F2       1.0000 0.13480  0.32890  0.76620  Biso   1.000  F
  F3       1.0000 0.03680  0.29090  0.64030  Biso   1.000  F
  F4       1.0000 0.63037  0.44320  0.66750  Biso   1.000  F
  F5       1.0000 0.80147  0.43730  0.67110  Biso   1.000  F
  F6       1.0000 0.70347  0.34940  0.70910  Biso   1.000  F
  F7       1.0000 0.29703  0.22430  0.55680  Biso   1.000  F
  F8       1.0000 0.46813  0.23380  0.56270  Biso   1.000  F
  F9       1.0000 0.37013  0.35970  0.65060  Biso   1.000  F
  F10      1.0000 0.03630  0.55680  0.22430  Biso   1.000  F
  F11      1.0000 0.86520  0.56270  0.23380  Biso   1.000  F
  F12      1.0000 0.96320  0.65060  0.35970  Biso   1.000  F
  F13      1.0000 0.36963  0.77570  0.33250  Biso   1.000  F
  F14      1.0000 0.19853  0.76620  0.32890  Biso   1.000  F
  F15      1.0000 0.29653  0.64030  0.29090  Biso   1.000  F
  F16      1.0000 0.70297  0.66750  0.44320  Biso   1.000  F
  F17      1.0000 0.53187  0.67110  0.43730  Biso   1.000  F
  F18      1.0000 0.62987  0.70910  0.34940  Biso   1.000  F
