data_image0
_cell_length_a       18.38
_cell_length_b       18.5557
_cell_length_c       18.5557
_cell_angle_alpha    70.3378
_cell_angle_beta     70.7204
_cell_angle_gamma    109.28

_symmetry_space_group_name_H-M    P 1
_symmetry_int_tables_number       1

loop_
  _symmetry_equiv_pos_as_xyz
  'x, y, z'

loop_
  _atom_site_label
  _atom_site_occupancy
  _atom_site_fract_x
  _atom_site_fract_y
  _atom_site_fract_z
  _atom_site_thermal_displace_type
  _atom_site_B_iso_or_equiv
  _atom_site_type_symbol
  Cu1      1.0000 0.51209  0.57161  0.93529  Biso   1.000  Cu
  Cu2      1.0000 0.44738  0.93529  0.49310  Biso   1.000  Cu
  Cu3      1.0000 0.94048  0.49310  0.57161  Biso   1.000  Cu
  Cu4      1.0000 0.05262  0.49310  0.93529  Biso   1.000  Cu
  Cu5      1.0000 0.55952  0.57161  0.49310  Biso   1.000  Cu
  Cu6      1.0000 0.98791  0.93529  0.57161  Biso   1.000  Cu
  Cu7      1.0000 0.48791  0.42839  0.06471  Biso   1.000  Cu
  Cu8      1.0000 0.55262  0.06471  0.50690  Biso   1.000  Cu
  Cu9      1.0000 0.05952  0.50690  0.42839  Biso   1.000  Cu
  Cu10     1.0000 0.94738  0.50690  0.06471  Biso   1.000  Cu
  Cu11     1.0000 0.44048  0.42839  0.50690  Biso   1.000  Cu
  Cu12     1.0000 0.01209  0.06471  0.42839  Biso   1.000  Cu
  H1       1.0000 0.38670  0.59830  0.87930  Biso   1.000  H
  H2       1.0000 0.65990  0.75610  0.83070  Biso   1.000  H
  H3       1.0000 0.34600  0.69840  0.81800  Biso   1.000  H
  H4       1.0000 0.75920  0.90520  0.76110  Biso   1.000  H
  H5       1.0000 0.58870  0.96840  0.70760  Biso   1.000  H
  H6       1.0000 0.44150  0.84750  0.75440  Biso   1.000  H
  H7       1.0000 0.72350  0.01040  0.69860  Biso   1.000  H
  H8       1.0000 0.21930  0.35160  0.27070  Biso   1.000  H
  H9       1.0000 0.37620  0.23870  0.98650  Biso   1.000  H
  H10      1.0000 0.26600  0.87930  0.52240  Biso   1.000  H
  H11      1.0000 0.49060  0.83070  0.41320  Biso   1.000  H
  H12      1.0000 0.16400  0.81800  0.48360  Biso   1.000  H
  H13      1.0000 0.52030  0.76110  0.33370  Biso   1.000  H
  H14      1.0000 0.29630  0.70760  0.32400  Biso   1.000  H
  H15      1.0000 0.19590  0.75440  0.39810  Biso   1.000  H
  H16      1.0000 0.42210  0.69860  0.29100  Biso   1.000  H
  H17      1.0000 0.49000  0.27070  0.37770  Biso   1.000  H
  H18      1.0000 0.36270  0.98650  0.77480  Biso   1.000  H
  H19      1.0000 0.78840  0.52240  0.59830  Biso   1.000  H
  H20      1.0000 0.90380  0.41320  0.75610  Biso   1.000  H
  H21      1.0000 0.64760  0.48360  0.69840  Biso   1.000  H
  H22      1.0000 0.85400  0.33370  0.90520  Biso   1.000  H
  H23      1.0000 0.62030  0.32400  0.96840  Biso   1.000  H
  H24      1.0000 0.59400  0.39810  0.84750  Biso   1.000  H
  H25      1.0000 0.71310  0.29100  0.01040  Biso   1.000  H
  H26      1.0000 0.86770  0.37770  0.35160  Biso   1.000  H
  H27      1.0000 0.13750  0.77480  0.23870  Biso   1.000  H
  H28      1.0000 0.23400  0.52240  0.87930  Biso   1.000  H
  H29      1.0000 0.00940  0.41320  0.83070  Biso   1.000  H
  H30      1.0000 0.33600  0.48360  0.81800  Biso   1.000  H
  H31      1.0000 0.97970  0.33370  0.76110  Biso   1.000  H
  H32      1.0000 0.20370  0.32400  0.70760  Biso   1.000  H
  H33      1.0000 0.30410  0.39810  0.75440  Biso   1.000  H
  H34      1.0000 0.07790  0.29100  0.69860  Biso   1.000  H
  H35      1.0000 0.01000  0.37770  0.27070  Biso   1.000  H
  H36      1.0000 0.13730  0.77480  0.98650  Biso   1.000  H
  H37      1.0000 0.71160  0.59830  0.52240  Biso   1.000  H
  H38      1.0000 0.59620  0.75610  0.41320  Biso   1.000  H
  H39      1.0000 0.85240  0.69840  0.48360  Biso   1.000  H
  H40      1.0000 0.64600  0.90520  0.33370  Biso   1.000  H
  H41      1.0000 0.87970  0.96840  0.32400  Biso   1.000  H
  H42      1.0000 0.90600  0.84750  0.39810  Biso   1.000  H
  H43      1.0000 0.78690  0.01040  0.29100  Biso   1.000  H
  H44      1.0000 0.63230  0.35160  0.37770  Biso   1.000  H
  H45      1.0000 0.36250  0.23870  0.77480  Biso   1.000  H
  H46      1.0000 0.11330  0.87930  0.59830  Biso   1.000  H
  H47      1.0000 0.84010  0.83070  0.75610  Biso   1.000  H
  H48      1.0000 0.15400  0.81800  0.69840  Biso   1.000  H
  H49      1.0000 0.74080  0.76110  0.90520  Biso   1.000  H
  H50      1.0000 0.91130  0.70760  0.96840  Biso   1.000  H
  H51      1.0000 0.05850  0.75440  0.84750  Biso   1.000  H
  H52      1.0000 0.77650  0.69860  0.01040  Biso   1.000  H
  H53      1.0000 0.28070  0.27070  0.35160  Biso   1.000  H
  H54      1.0000 0.12380  0.98650  0.23870  Biso   1.000  H
  H55      1.0000 0.61330  0.40170  0.12070  Biso   1.000  H
  H56      1.0000 0.34010  0.24390  0.16930  Biso   1.000  H
  H57      1.0000 0.65400  0.30160  0.18200  Biso   1.000  H
  H58      1.0000 0.24080  0.09480  0.23890  Biso   1.000  H
  H59      1.0000 0.41130  0.03160  0.29240  Biso   1.000  H
  H60      1.0000 0.55850  0.15250  0.24560  Biso   1.000  H
  H61      1.0000 0.27650  0.98960  0.30140  Biso   1.000  H
  H62      1.0000 0.78070  0.64840  0.72930  Biso   1.000  H
  H63      1.0000 0.62380  0.76130  0.01350  Biso   1.000  H
  H64      1.0000 0.73400  0.12070  0.47760  Biso   1.000  H
  H65      1.0000 0.50940  0.16930  0.58680  Biso   1.000  H
  H66      1.0000 0.83600  0.18200  0.51640  Biso   1.000  H
  H67      1.0000 0.47970  0.23890  0.66630  Biso   1.000  H
  H68      1.0000 0.70370  0.29240  0.67600  Biso   1.000  H
  H69      1.0000 0.80410  0.24560  0.60190  Biso   1.000  H
  H70      1.0000 0.57790  0.30140  0.70900  Biso   1.000  H
  H71      1.0000 0.51000  0.72930  0.62230  Biso   1.000  H
  H72      1.0000 0.63730  0.01350  0.22520  Biso   1.000  H
  H73      1.0000 0.21160  0.47760  0.40170  Biso   1.000  H
  H74      1.0000 0.09620  0.58680  0.24390  Biso   1.000  H
  H75      1.0000 0.35240  0.51640  0.30160  Biso   1.000  H
  H76      1.0000 0.14600  0.66630  0.09480  Biso   1.000  H
  H77      1.0000 0.37970  0.67600  0.03160  Biso   1.000  H
  H78      1.0000 0.40600  0.60190  0.15250  Biso   1.000  H
  H79      1.0000 0.28690  0.70900  0.98960  Biso   1.000  H
  H80      1.0000 0.13230  0.62230  0.64840  Biso   1.000  H
  H81      1.0000 0.86250  0.22520  0.76130  Biso   1.000  H
  H82      1.0000 0.76600  0.47760  0.12070  Biso   1.000  H
  H83      1.0000 0.99060  0.58680  0.16930  Biso   1.000  H
  H84      1.0000 0.66400  0.51640  0.18200  Biso   1.000  H
  H85      1.0000 0.02030  0.66630  0.23890  Biso   1.000  H
  H86      1.0000 0.79630  0.67600  0.29240  Biso   1.000  H
  H87      1.0000 0.69590  0.60190  0.24560  Biso   1.000  H
  H88      1.0000 0.92210  0.70900  0.30140  Biso   1.000  H
  H89      1.0000 0.99000  0.62230  0.72930  Biso   1.000  H
  H90      1.0000 0.86270  0.22520  0.01350  Biso   1.000  H
  H91      1.0000 0.28840  0.40170  0.47760  Biso   1.000  H
  H92      1.0000 0.40380  0.24390  0.58680  Biso   1.000  H
  H93      1.0000 0.14760  0.30160  0.51640  Biso   1.000  H
  H94      1.0000 0.35400  0.09480  0.66630  Biso   1.000  H
  H95      1.0000 0.12030  0.03160  0.67600  Biso   1.000  H
  H96      1.0000 0.09400  0.15250  0.60190  Biso   1.000  H
  H97      1.0000 0.21310  0.98960  0.70900  Biso   1.000  H
  H98      1.0000 0.36770  0.64840  0.62230  Biso   1.000  H
  H99      1.0000 0.63750  0.76130  0.22520  Biso   1.000  H
  H100     1.0000 0.88670  0.12070  0.40170  Biso   1.000  H
  H101     1.0000 0.15990  0.16930  0.24390  Biso   1.000  H
  H102     1.0000 0.84600  0.18200  0.30160  Biso   1.000  H
  H103     1.0000 0.25920  0.23890  0.09480  Biso   1.000  H
  H104     1.0000 0.08870  0.29240  0.03160  Biso   1.000  H
  H105     1.0000 0.94150  0.24560  0.15250  Biso   1.000  H
  H106     1.0000 0.22350  0.30140  0.98960  Biso   1.000  H
  H107     1.0000 0.71930  0.72930  0.64840  Biso   1.000  H
  H108     1.0000 0.87620  0.01350  0.76130  Biso   1.000  H
  H109     1.0000 0.22880  0.47880  0.04240  Biso   1.000  H
  H110     1.0000 0.07710  0.32710  0.34580  Biso   1.000  H
  H111     1.0000 0.27120  0.04240  0.47880  Biso   1.000  H
  H112     1.0000 0.42290  0.34580  0.32710  Biso   1.000  H
  H113     1.0000 0.75000  0.47880  0.47880  Biso   1.000  H
  H114     1.0000 0.75000  0.32710  0.32710  Biso   1.000  H
  H115     1.0000 0.77120  0.52120  0.95760  Biso   1.000  H
  H116     1.0000 0.92290  0.67290  0.65420  Biso   1.000  H
  H117     1.0000 0.72880  0.95760  0.52120  Biso   1.000  H
  H118     1.0000 0.57710  0.65420  0.67290  Biso   1.000  H
  H119     1.0000 0.25000  0.52120  0.52120  Biso   1.000  H
  H120     1.0000 0.25000  0.67290  0.67290  Biso   1.000  H
  H121     1.0000 0.48405  0.46810  0.76595  Biso   1.000  H
  H122     1.0000 0.33055  0.16110  0.91945  Biso   1.000  H
  H123     1.0000 0.25000  0.76595  0.76595  Biso   1.000  H
  H124     1.0000 0.25000  0.91945  0.91945  Biso   1.000  H
  H125     1.0000 0.01595  0.76595  0.46810  Biso   1.000  H
  H126     1.0000 0.16945  0.91945  0.16110  Biso   1.000  H
  H127     1.0000 0.51595  0.53190  0.23405  Biso   1.000  H
  H128     1.0000 0.66945  0.83890  0.08055  Biso   1.000  H
  H129     1.0000 0.75000  0.23405  0.23405  Biso   1.000  H
  H130     1.0000 0.75000  0.08055  0.08055  Biso   1.000  H
  H131     1.0000 0.98405  0.23405  0.53190  Biso   1.000  H
  H132     1.0000 0.83055  0.08055  0.83890  Biso   1.000  H
  C1       1.0000 0.56160  0.77050  0.81150  Biso   1.000  C
  C2       1.0000 0.42720  0.65930  0.85240  Biso   1.000  C
  C3       1.0000 0.64410  0.79820  0.80590  Biso   1.000  C
  C4       1.0000 0.53910  0.83430  0.77390  Biso   1.000  C
  C5       1.0000 0.40170  0.71870  0.81610  Biso   1.000  C
  C6       1.0000 0.70280  0.88650  0.76460  Biso   1.000  C
  C7       1.0000 0.60270  0.92460  0.73250  Biso   1.000  C
  C8       1.0000 0.45820  0.80590  0.77820  Biso   1.000  C
  C9       1.0000 0.68160  0.94960  0.72750  Biso   1.000  C
  C10      1.0000 0.33510  0.44570  0.09780  Biso   1.000  C
  C11      1.0000 0.23920  0.42100  0.14810  Biso   1.000  C
  C12      1.0000 0.19290  0.37360  0.23900  Biso   1.000  C
  C13      1.0000 0.45490  0.41350  0.92730  Biso   1.000  C
  C14      1.0000 0.43030  0.36180  0.88400  Biso   1.000  C
  C15      1.0000 0.38770  0.27010  0.92790  Biso   1.000  C
  C16      1.0000 0.37310  0.81150  0.41800  Biso   1.000  C
  C17      1.0000 0.27960  0.85240  0.48830  Biso   1.000  C
  C18      1.0000 0.45000  0.80590  0.39590  Biso   1.000  C
  C19      1.0000 0.31300  0.77390  0.39180  Biso   1.000  C
  C20      1.0000 0.21780  0.81610  0.46520  Biso   1.000  C
  C21      1.0000 0.46740  0.76460  0.34890  Biso   1.000  C
  C22      1.0000 0.33520  0.73250  0.34290  Biso   1.000  C
  C23      1.0000 0.23640  0.77820  0.41590  Biso   1.000  C
  C24      1.0000 0.40910  0.72750  0.32290  Biso   1.000  C
  C25      1.0000 0.43290  0.09780  0.45650  Biso   1.000  C
  C26      1.0000 0.38730  0.14810  0.43090  Biso   1.000  C
  C27      1.0000 0.43190  0.23900  0.38740  Biso   1.000  C
  C28      1.0000 0.38220  0.92730  0.65920  Biso   1.000  C
  C29      1.0000 0.31430  0.88400  0.75420  Biso   1.000  C
  C30      1.0000 0.31560  0.92790  0.80200  Biso   1.000  C
  C31      1.0000 0.79110  0.41800  0.77050  Biso   1.000  C
  C32      1.0000 0.76790  0.48830  0.65930  Biso   1.000  C
  C33      1.0000 0.84590  0.39590  0.79820  Biso   1.000  C
  C34      1.0000 0.70480  0.39180  0.83430  Biso   1.000  C
  C35      1.0000 0.68300  0.46520  0.71870  Biso   1.000  C
  C36      1.0000 0.81630  0.34890  0.88650  Biso   1.000  C
  C37      1.0000 0.67810  0.34290  0.92460  Biso   1.000  C
  C38      1.0000 0.65230  0.41590  0.80590  Biso   1.000  C
  C39      1.0000 0.73200  0.32290  0.94960  Biso   1.000  C
  C40      1.0000 0.88940  0.45650  0.44570  Biso   1.000  C
  C41      1.0000 0.81820  0.43090  0.42100  Biso   1.000  C
  C42      1.0000 0.81930  0.38740  0.37360  Biso   1.000  C
  C43      1.0000 0.04140  0.65920  0.41350  Biso   1.000  C
  C44      1.0000 0.06850  0.75420  0.36180  Biso   1.000  C
  C45      1.0000 0.11760  0.80200  0.27010  Biso   1.000  C
  C46      1.0000 0.12690  0.41800  0.81150  Biso   1.000  C
  C47      1.0000 0.22040  0.48830  0.85240  Biso   1.000  C
  C48      1.0000 0.05000  0.39590  0.80590  Biso   1.000  C
  C49      1.0000 0.18700  0.39180  0.77390  Biso   1.000  C
  C50      1.0000 0.28220  0.46520  0.81610  Biso   1.000  C
  C51      1.0000 0.03260  0.34890  0.76460  Biso   1.000  C
  C52      1.0000 0.16480  0.34290  0.73250  Biso   1.000  C
  C53      1.0000 0.26360  0.41590  0.77820  Biso   1.000  C
  C54      1.0000 0.09090  0.32290  0.72750  Biso   1.000  C
  C55      1.0000 0.06710  0.45650  0.09780  Biso   1.000  C
  C56      1.0000 0.11270  0.43090  0.14810  Biso   1.000  C
  C57      1.0000 0.06810  0.38740  0.23900  Biso   1.000  C
  C58      1.0000 0.11780  0.65920  0.92730  Biso   1.000  C
  C59      1.0000 0.18570  0.75420  0.88400  Biso   1.000  C
  C60      1.0000 0.18440  0.80200  0.92790  Biso   1.000  C
  C61      1.0000 0.70890  0.77050  0.41800  Biso   1.000  C
  C62      1.0000 0.73210  0.65930  0.48830  Biso   1.000  C
  C63      1.0000 0.65410  0.79820  0.39590  Biso   1.000  C
  C64      1.0000 0.79520  0.83430  0.39180  Biso   1.000  C
  C65      1.0000 0.81700  0.71870  0.46520  Biso   1.000  C
  C66      1.0000 0.68370  0.88650  0.34890  Biso   1.000  C
  C67      1.0000 0.82190  0.92460  0.34290  Biso   1.000  C
  C68      1.0000 0.84770  0.80590  0.41590  Biso   1.000  C
  C69      1.0000 0.76800  0.94960  0.32290  Biso   1.000  C
  C70      1.0000 0.61060  0.44570  0.45650  Biso   1.000  C
  C71      1.0000 0.68180  0.42100  0.43090  Biso   1.000  C
  C72      1.0000 0.68070  0.37360  0.38740  Biso   1.000  C
  C73      1.0000 0.45860  0.41350  0.65920  Biso   1.000  C
  C74      1.0000 0.43150  0.36180  0.75420  Biso   1.000  C
  C75      1.0000 0.38240  0.27010  0.80200  Biso   1.000  C
  C76      1.0000 0.93840  0.81150  0.77050  Biso   1.000  C
  C77      1.0000 0.07280  0.85240  0.65930  Biso   1.000  C
  C78      1.0000 0.85590  0.80590  0.79820  Biso   1.000  C
  C79      1.0000 0.96090  0.77390  0.83430  Biso   1.000  C
  C80      1.0000 0.09830  0.81610  0.71870  Biso   1.000  C
  C81      1.0000 0.79720  0.76460  0.88650  Biso   1.000  C
  C82      1.0000 0.89730  0.73250  0.92460  Biso   1.000  C
  C83      1.0000 0.04180  0.77820  0.80590  Biso   1.000  C
  C84      1.0000 0.81840  0.72750  0.94960  Biso   1.000  C
  C85      1.0000 0.16490  0.09780  0.44570  Biso   1.000  C
  C86      1.0000 0.26080  0.14810  0.42100  Biso   1.000  C
  C87      1.0000 0.30710  0.23900  0.37360  Biso   1.000  C
  C88      1.0000 0.04510  0.92730  0.41350  Biso   1.000  C
  C89      1.0000 0.06970  0.88400  0.36180  Biso   1.000  C
  C90      1.0000 0.11230  0.92790  0.27010  Biso   1.000  C
  C91      1.0000 0.43840  0.22950  0.18850  Biso   1.000  C
  C92      1.0000 0.57280  0.34070  0.14760  Biso   1.000  C
  C93      1.0000 0.35590  0.20180  0.19410  Biso   1.000  C
  C94      1.0000 0.46090  0.16570  0.22610  Biso   1.000  C
  C95      1.0000 0.59830  0.28130  0.18390  Biso   1.000  C
  C96      1.0000 0.29720  0.11350  0.23540  Biso   1.000  C
  C97      1.0000 0.39730  0.07540  0.26750  Biso   1.000  C
  C98      1.0000 0.54180  0.19410  0.22180  Biso   1.000  C
  C99      1.0000 0.31840  0.05040  0.27250  Biso   1.000  C
  C100     1.0000 0.66490  0.55430  0.90220  Biso   1.000  C
  C101     1.0000 0.76080  0.57900  0.85190  Biso   1.000  C
  C102     1.0000 0.80710  0.62640  0.76100  Biso   1.000  C
  C103     1.0000 0.54510  0.58650  0.07270  Biso   1.000  C
  C104     1.0000 0.56970  0.63820  0.11600  Biso   1.000  C
  C105     1.0000 0.61230  0.72990  0.07210  Biso   1.000  C
  C106     1.0000 0.62690  0.18850  0.58200  Biso   1.000  C
  C107     1.0000 0.72040  0.14760  0.51170  Biso   1.000  C
  C108     1.0000 0.55000  0.19410  0.60410  Biso   1.000  C
  C109     1.0000 0.68700  0.22610  0.60820  Biso   1.000  C
  C110     1.0000 0.78220  0.18390  0.53480  Biso   1.000  C
  C111     1.0000 0.53260  0.23540  0.65110  Biso   1.000  C
  C112     1.0000 0.66480  0.26750  0.65710  Biso   1.000  C
  C113     1.0000 0.76360  0.22180  0.58410  Biso   1.000  C
  C114     1.0000 0.59090  0.27250  0.67710  Biso   1.000  C
  C115     1.0000 0.56710  0.90220  0.54350  Biso   1.000  C
  C116     1.0000 0.61270  0.85190  0.56910  Biso   1.000  C
  C117     1.0000 0.56810  0.76100  0.61260  Biso   1.000  C
  C118     1.0000 0.61780  0.07270  0.34080  Biso   1.000  C
  C119     1.0000 0.68570  0.11600  0.24580  Biso   1.000  C
  C120     1.0000 0.68440  0.07210  0.19800  Biso   1.000  C
  C121     1.0000 0.20890  0.58200  0.22950  Biso   1.000  C
  C122     1.0000 0.23210  0.51170  0.34070  Biso   1.000  C
  C123     1.0000 0.15410  0.60410  0.20180  Biso   1.000  C
  C124     1.0000 0.29520  0.60820  0.16570  Biso   1.000  C
  C125     1.0000 0.31700  0.53480  0.28130  Biso   1.000  C
  C126     1.0000 0.18370  0.65110  0.11350  Biso   1.000  C
  C127     1.0000 0.32190  0.65710  0.07540  Biso   1.000  C
  C128     1.0000 0.34770  0.58410  0.19410  Biso   1.000  C
  C129     1.0000 0.26800  0.67710  0.05040  Biso   1.000  C
  C130     1.0000 0.11060  0.54350  0.55430  Biso   1.000  C
  C131     1.0000 0.18180  0.56910  0.57900  Biso   1.000  C
  C132     1.0000 0.18070  0.61260  0.62640  Biso   1.000  C
  C133     1.0000 0.95860  0.34080  0.58650  Biso   1.000  C
  C134     1.0000 0.93150  0.24580  0.63820  Biso   1.000  C
  C135     1.0000 0.88240  0.19800  0.72990  Biso   1.000  C
  C136     1.0000 0.87310  0.58200  0.18850  Biso   1.000  C
  C137     1.0000 0.77960  0.51170  0.14760  Biso   1.000  C
  C138     1.0000 0.95000  0.60410  0.19410  Biso   1.000  C
  C139     1.0000 0.81300  0.60820  0.22610  Biso   1.000  C
  C140     1.0000 0.71780  0.53480  0.18390  Biso   1.000  C
  C141     1.0000 0.96740  0.65110  0.23540  Biso   1.000  C
  C142     1.0000 0.83520  0.65710  0.26750  Biso   1.000  C
  C143     1.0000 0.73640  0.58410  0.22180  Biso   1.000  C
  C144     1.0000 0.90910  0.67710  0.27250  Biso   1.000  C
  C145     1.0000 0.93290  0.54350  0.90220  Biso   1.000  C
  C146     1.0000 0.88730  0.56910  0.85190  Biso   1.000  C
  C147     1.0000 0.93190  0.61260  0.76100  Biso   1.000  C
  C148     1.0000 0.88220  0.34080  0.07270  Biso   1.000  C
  C149     1.0000 0.81430  0.24580  0.11600  Biso   1.000  C
  C150     1.0000 0.81560  0.19800  0.07210  Biso   1.000  C
  C151     1.0000 0.29110  0.22950  0.58200  Biso   1.000  C
  C152     1.0000 0.26790  0.34070  0.51170  Biso   1.000  C
  C153     1.0000 0.34590  0.20180  0.60410  Biso   1.000  C
  C154     1.0000 0.20480  0.16570  0.60820  Biso   1.000  C
  C155     1.0000 0.18300  0.28130  0.53480  Biso   1.000  C
  C156     1.0000 0.31630  0.11350  0.65110  Biso   1.000  C
  C157     1.0000 0.17810  0.07540  0.65710  Biso   1.000  C
  C158     1.0000 0.15230  0.19410  0.58410  Biso   1.000  C
  C159     1.0000 0.23200  0.05040  0.67710  Biso   1.000  C
  C160     1.0000 0.38940  0.55430  0.54350  Biso   1.000  C
  C161     1.0000 0.31820  0.57900  0.56910  Biso   1.000  C
  C162     1.0000 0.31930  0.62640  0.61260  Biso   1.000  C
  C163     1.0000 0.54140  0.58650  0.34080  Biso   1.000  C
  C164     1.0000 0.56850  0.63820  0.24580  Biso   1.000  C
  C165     1.0000 0.61760  0.72990  0.19800  Biso   1.000  C
  C166     1.0000 0.06160  0.18850  0.22950  Biso   1.000  C
  C167     1.0000 0.92720  0.14760  0.34070  Biso   1.000  C
  C168     1.0000 0.14410  0.19410  0.20180  Biso   1.000  C
  C169     1.0000 0.03910  0.22610  0.16570  Biso   1.000  C
  C170     1.0000 0.90170  0.18390  0.28130  Biso   1.000  C
  C171     1.0000 0.20280  0.23540  0.11350  Biso   1.000  C
  C172     1.0000 0.10270  0.26750  0.07540  Biso   1.000  C
  C173     1.0000 0.95820  0.22180  0.19410  Biso   1.000  C
  C174     1.0000 0.18160  0.27250  0.05040  Biso   1.000  C
  C175     1.0000 0.83510  0.90220  0.55430  Biso   1.000  C
  C176     1.0000 0.73920  0.85190  0.57900  Biso   1.000  C
  C177     1.0000 0.69290  0.76100  0.62640  Biso   1.000  C
  C178     1.0000 0.95490  0.07270  0.58650  Biso   1.000  C
  C179     1.0000 0.93030  0.11600  0.63820  Biso   1.000  C
  C180     1.0000 0.88770  0.07210  0.72990  Biso   1.000  C
  C181     1.0000 0.19750  0.44750  0.10500  Biso   1.000  C
  C182     1.0000 0.10840  0.35840  0.28320  Biso   1.000  C
  C183     1.0000 0.30250  0.10500  0.44750  Biso   1.000  C
  C184     1.0000 0.39160  0.28320  0.35840  Biso   1.000  C
  C185     1.0000 0.75000  0.44750  0.44750  Biso   1.000  C
  C186     1.0000 0.75000  0.35840  0.35840  Biso   1.000  C
  C187     1.0000 0.80250  0.55250  0.89500  Biso   1.000  C
  C188     1.0000 0.89160  0.64160  0.71680  Biso   1.000  C
  C189     1.0000 0.69750  0.89500  0.55250  Biso   1.000  C
  C190     1.0000 0.60840  0.71680  0.64160  Biso   1.000  C
  C191     1.0000 0.25000  0.55250  0.55250  Biso   1.000  C
  C192     1.0000 0.25000  0.64160  0.64160  Biso   1.000  C
  C193     1.0000 0.45275  0.40550  0.79725  Biso   1.000  C
  C194     1.0000 0.36185  0.22370  0.88815  Biso   1.000  C
  C195     1.0000 0.25000  0.79725  0.79725  Biso   1.000  C
  C196     1.0000 0.25000  0.88815  0.88815  Biso   1.000  C
  C197     1.0000 0.04725  0.79725  0.40550  Biso   1.000  C
  C198     1.0000 0.13815  0.88815  0.22370  Biso   1.000  C
  C199     1.0000 0.54725  0.59450  0.20275  Biso   1.000  C
  C200     1.0000 0.63815  0.77630  0.11185  Biso   1.000  C
  C201     1.0000 0.75000  0.20275  0.20275  Biso   1.000  C
  C202     1.0000 0.75000  0.11185  0.11185  Biso   1.000  C
  C203     1.0000 0.95275  0.20275  0.59450  Biso   1.000  C
  C204     1.0000 0.86185  0.11185  0.77630  Biso   1.000  C
  N1       1.0000 0.50280  0.68120  0.85240  Biso   1.000  N
  N2       1.0000 0.35520  0.85240  0.46640  Biso   1.000  N
  N3       1.0000 0.82160  0.46640  0.68120  Biso   1.000  N
  N4       1.0000 0.14480  0.46640  0.85240  Biso   1.000  N
  N5       1.0000 0.67840  0.68120  0.46640  Biso   1.000  N
  N6       1.0000 0.99720  0.85240  0.68120  Biso   1.000  N
  N7       1.0000 0.49720  0.31880  0.14760  Biso   1.000  N
  N8       1.0000 0.64480  0.14760  0.53360  Biso   1.000  N
  N9       1.0000 0.17840  0.53360  0.31880  Biso   1.000  N
  N10      1.0000 0.85520  0.53360  0.14760  Biso   1.000  N
  N11      1.0000 0.32160  0.31880  0.53360  Biso   1.000  N
  N12      1.0000 0.00280  0.14760  0.31880  Biso   1.000  N
  O1       1.0000 0.38270  0.51420  0.02320  Biso   1.000  O
  O2       1.0000 0.47620  0.49380  0.88880  Biso   1.000  O
  O3       1.0000 0.45300  0.37310  0.99910  Biso   1.000  O
  O4       1.0000 0.36390  0.39910  0.13250  Biso   1.000  O
  O5       1.0000 0.40590  0.02320  0.46260  Biso   1.000  O
  O6       1.0000 0.36500  0.88880  0.61740  Biso   1.000  O
  O7       1.0000 0.45210  0.99910  0.62780  Biso   1.000  O
  O8       1.0000 0.49640  0.13250  0.46840  Biso   1.000  O
  O9       1.0000 0.86850  0.46260  0.51420  Biso   1.000  O
  O10      1.0000 0.98240  0.61740  0.49380  Biso   1.000  O
  O11      1.0000 0.07990  0.62780  0.37310  Biso   1.000  O
  O12      1.0000 0.96480  0.46840  0.39910  Biso   1.000  O
  O13      1.0000 0.09410  0.46260  0.02320  Biso   1.000  O
  O14      1.0000 0.13500  0.61740  0.88880  Biso   1.000  O
  O15      1.0000 0.04790  0.62780  0.99910  Biso   1.000  O
  O16      1.0000 0.00360  0.46840  0.13250  Biso   1.000  O
  O17      1.0000 0.63150  0.51420  0.46260  Biso   1.000  O
  O18      1.0000 0.51760  0.49380  0.61740  Biso   1.000  O
  O19      1.0000 0.42010  0.37310  0.62780  Biso   1.000  O
  O20      1.0000 0.53520  0.39910  0.46840  Biso   1.000  O
  O21      1.0000 0.11730  0.02320  0.51420  Biso   1.000  O
  O22      1.0000 0.02380  0.88880  0.49380  Biso   1.000  O
  O23      1.0000 0.04700  0.99910  0.37310  Biso   1.000  O
  O24      1.0000 0.13610  0.13250  0.39910  Biso   1.000  O
  O25      1.0000 0.61730  0.48580  0.97680  Biso   1.000  O
  O26      1.0000 0.52380  0.50620  0.11120  Biso   1.000  O
  O27      1.0000 0.54700  0.62690  0.00090  Biso   1.000  O
  O28      1.0000 0.63610  0.60090  0.86750  Biso   1.000  O
  O29      1.0000 0.59410  0.97680  0.53740  Biso   1.000  O
  O30      1.0000 0.63500  0.11120  0.38260  Biso   1.000  O
  O31      1.0000 0.54790  0.00090  0.37220  Biso   1.000  O
  O32      1.0000 0.50360  0.86750  0.53160  Biso   1.000  O
  O33      1.0000 0.13150  0.53740  0.48580  Biso   1.000  O
  O34      1.0000 0.01760  0.38260  0.50620  Biso   1.000  O
  O35      1.0000 0.92010  0.37220  0.62690  Biso   1.000  O
  O36      1.0000 0.03520  0.53160  0.60090  Biso   1.000  O
  O37      1.0000 0.90590  0.53740  0.97680  Biso   1.000  O
  O38      1.0000 0.86500  0.38260  0.11120  Biso   1.000  O
  O39      1.0000 0.95210  0.37220  0.00090  Biso   1.000  O
  O40      1.0000 0.99640  0.53160  0.86750  Biso   1.000  O
  O41      1.0000 0.36850  0.48580  0.53740  Biso   1.000  O
  O42      1.0000 0.48240  0.50620  0.38260  Biso   1.000  O
  O43      1.0000 0.57990  0.62690  0.37220  Biso   1.000  O
  O44      1.0000 0.46480  0.60090  0.53160  Biso   1.000  O
  O45      1.0000 0.88270  0.97680  0.48580  Biso   1.000  O
  O46      1.0000 0.97620  0.11120  0.50620  Biso   1.000  O
  O47      1.0000 0.95300  0.00090  0.62690  Biso   1.000  O
  O48      1.0000 0.86390  0.86750  0.60090  Biso   1.000  O
