data_image0
_cell_length_a       18.3364
_cell_length_b       18.5355
_cell_length_c       18.5355
_cell_angle_alpha    70.3122
_cell_angle_beta     70.7462
_cell_angle_gamma    109.254

_symmetry_space_group_name_H-M    P 1
_symmetry_int_tables_number       1

loop_
  _symmetry_equiv_pos_as_xyz
  'x, y, z'

loop_
  _atom_site_label
  _atom_site_occupancy
  _atom_site_fract_x
  _atom_site_fract_y
  _atom_site_fract_z
  _atom_site_thermal_displace_type
  _atom_site_B_iso_or_equiv
  _atom_site_type_symbol
  Co1      1.0000 0.98403  0.92876  0.57629  Biso   1.000  Co
  Co2      1.0000 0.56032  0.57629  0.49495  Biso   1.000  Co
  Co3      1.0000 0.05527  0.49495  0.92876  Biso   1.000  Co
  Co4      1.0000 0.93968  0.49495  0.57629  Biso   1.000  Co
  Co5      1.0000 0.44473  0.92876  0.49495  Biso   1.000  Co
  Co6      1.0000 0.51597  0.57629  0.92876  Biso   1.000  Co
  Co7      1.0000 0.01597  0.07124  0.42371  Biso   1.000  Co
  Co8      1.0000 0.43968  0.42371  0.50505  Biso   1.000  Co
  Co9      1.0000 0.94473  0.50505  0.07124  Biso   1.000  Co
  Co10     1.0000 0.06032  0.50505  0.42371  Biso   1.000  Co
  Co11     1.0000 0.55527  0.07124  0.50505  Biso   1.000  Co
  Co12     1.0000 0.48403  0.42371  0.07124  Biso   1.000  Co
  H1       1.0000 0.84080  0.82890  0.75300  Biso   1.000  H
  H2       1.0000 0.28460  0.27990  0.34780  Biso   1.000  H
  H3       1.0000 0.06640  0.75600  0.83940  Biso   1.000  H
  H4       1.0000 0.16270  0.82650  0.68940  Biso   1.000  H
  H5       1.0000 0.12040  0.89030  0.59060  Biso   1.000  H
  H6       1.0000 0.91770  0.70640  0.96260  Biso   1.000  H
  H7       1.0000 0.74200  0.75730  0.90280  Biso   1.000  H
  H8       1.0000 0.13130  0.99190  0.23380  Biso   1.000  H
  H9       1.0000 0.78080  0.69770  0.00730  Biso   1.000  H
  H10      1.0000 0.59380  0.75300  0.41810  Biso   1.000  H
  H11      1.0000 0.63240  0.34780  0.37230  Biso   1.000  H
  H12      1.0000 0.90580  0.83940  0.40460  Biso   1.000  H
  H13      1.0000 0.85210  0.68940  0.48410  Biso   1.000  H
  H14      1.0000 0.71100  0.59060  0.51910  Biso   1.000  H
  H15      1.0000 0.88030  0.96260  0.33100  Biso   1.000  H
  H16      1.0000 0.64480  0.90280  0.33990  Biso   1.000  H
  H17      1.0000 0.36510  0.23380  0.77430  Biso   1.000  H
  H18      1.0000 0.78810  0.00730  0.29500  Biso   1.000  H
  H19      1.0000 0.01190  0.41810  0.82890  Biso   1.000  H
  H20      1.0000 0.00470  0.37230  0.27990  Biso   1.000  H
  H21      1.0000 0.31040  0.40460  0.75600  Biso   1.000  H
  H22      1.0000 0.33620  0.48410  0.82650  Biso   1.000  H
  H23      1.0000 0.23010  0.51910  0.89030  Biso   1.000  H
  H24      1.0000 0.21130  0.33100  0.70640  Biso   1.000  H
  H25      1.0000 0.98470  0.33990  0.75730  Biso   1.000  H
  H26      1.0000 0.13940  0.77430  0.99190  Biso   1.000  H
  H27      1.0000 0.08310  0.29500  0.69770  Biso   1.000  H
  H28      1.0000 0.90620  0.41810  0.75300  Biso   1.000  H
  H29      1.0000 0.86760  0.37230  0.34780  Biso   1.000  H
  H30      1.0000 0.59420  0.40460  0.83940  Biso   1.000  H
  H31      1.0000 0.64790  0.48410  0.68940  Biso   1.000  H
  H32      1.0000 0.78900  0.51910  0.59060  Biso   1.000  H
  H33      1.0000 0.61970  0.33100  0.96260  Biso   1.000  H
  H34      1.0000 0.85520  0.33990  0.90280  Biso   1.000  H
  H35      1.0000 0.13490  0.77430  0.23380  Biso   1.000  H
  H36      1.0000 0.71190  0.29500  0.00730  Biso   1.000  H
  H37      1.0000 0.48810  0.82890  0.41810  Biso   1.000  H
  H38      1.0000 0.49530  0.27990  0.37230  Biso   1.000  H
  H39      1.0000 0.18960  0.75600  0.40460  Biso   1.000  H
  H40      1.0000 0.16380  0.82650  0.48410  Biso   1.000  H
  H41      1.0000 0.26990  0.89030  0.51910  Biso   1.000  H
  H42      1.0000 0.28870  0.70640  0.33100  Biso   1.000  H
  H43      1.0000 0.51530  0.75730  0.33990  Biso   1.000  H
  H44      1.0000 0.36060  0.99190  0.77430  Biso   1.000  H
  H45      1.0000 0.41690  0.69770  0.29500  Biso   1.000  H
  H46      1.0000 0.65920  0.75300  0.82890  Biso   1.000  H
  H47      1.0000 0.21540  0.34780  0.27990  Biso   1.000  H
  H48      1.0000 0.43360  0.83940  0.75600  Biso   1.000  H
  H49      1.0000 0.33730  0.68940  0.82650  Biso   1.000  H
  H50      1.0000 0.37960  0.59060  0.89030  Biso   1.000  H
  H51      1.0000 0.58230  0.96260  0.70640  Biso   1.000  H
  H52      1.0000 0.75800  0.90280  0.75730  Biso   1.000  H
  H53      1.0000 0.36870  0.23380  0.99190  Biso   1.000  H
  H54      1.0000 0.71920  0.00730  0.69770  Biso   1.000  H
  H55      1.0000 0.15920  0.17110  0.24700  Biso   1.000  H
  H56      1.0000 0.71540  0.72010  0.65220  Biso   1.000  H
  H57      1.0000 0.93360  0.24400  0.16060  Biso   1.000  H
  H58      1.0000 0.83730  0.17350  0.31060  Biso   1.000  H
  H59      1.0000 0.87960  0.10970  0.40940  Biso   1.000  H
  H60      1.0000 0.08230  0.29360  0.03740  Biso   1.000  H
  H61      1.0000 0.25800  0.24270  0.09720  Biso   1.000  H
  H62      1.0000 0.86870  0.00810  0.76620  Biso   1.000  H
  H63      1.0000 0.21920  0.30230  0.99270  Biso   1.000  H
  H64      1.0000 0.40620  0.24700  0.58190  Biso   1.000  H
  H65      1.0000 0.36760  0.65220  0.62770  Biso   1.000  H
  H66      1.0000 0.09420  0.16060  0.59540  Biso   1.000  H
  H67      1.0000 0.14790  0.31060  0.51590  Biso   1.000  H
  H68      1.0000 0.28900  0.40940  0.48090  Biso   1.000  H
  H69      1.0000 0.11970  0.03740  0.66900  Biso   1.000  H
  H70      1.0000 0.35520  0.09720  0.66010  Biso   1.000  H
  H71      1.0000 0.63490  0.76620  0.22570  Biso   1.000  H
  H72      1.0000 0.21190  0.99270  0.70500  Biso   1.000  H
  H73      1.0000 0.98810  0.58190  0.17110  Biso   1.000  H
  H74      1.0000 0.99530  0.62770  0.72010  Biso   1.000  H
  H75      1.0000 0.68960  0.59540  0.24400  Biso   1.000  H
  H76      1.0000 0.66380  0.51590  0.17350  Biso   1.000  H
  H77      1.0000 0.76990  0.48090  0.10970  Biso   1.000  H
  H78      1.0000 0.78870  0.66900  0.29360  Biso   1.000  H
  H79      1.0000 0.01530  0.66010  0.24270  Biso   1.000  H
  H80      1.0000 0.86060  0.22570  0.00810  Biso   1.000  H
  H81      1.0000 0.91690  0.70500  0.30230  Biso   1.000  H
  H82      1.0000 0.09380  0.58190  0.24700  Biso   1.000  H
  H83      1.0000 0.13240  0.62770  0.65220  Biso   1.000  H
  H84      1.0000 0.40580  0.59540  0.16060  Biso   1.000  H
  H85      1.0000 0.35210  0.51590  0.31060  Biso   1.000  H
  H86      1.0000 0.21100  0.48090  0.40940  Biso   1.000  H
  H87      1.0000 0.38030  0.66900  0.03740  Biso   1.000  H
  H88      1.0000 0.14480  0.66010  0.09720  Biso   1.000  H
  H89      1.0000 0.86510  0.22570  0.76620  Biso   1.000  H
  H90      1.0000 0.28810  0.70500  0.99270  Biso   1.000  H
  H91      1.0000 0.51190  0.17110  0.58190  Biso   1.000  H
  H92      1.0000 0.50470  0.72010  0.62770  Biso   1.000  H
  H93      1.0000 0.81040  0.24400  0.59540  Biso   1.000  H
  H94      1.0000 0.83620  0.17350  0.51590  Biso   1.000  H
  H95      1.0000 0.73010  0.10970  0.48090  Biso   1.000  H
  H96      1.0000 0.71130  0.29360  0.66900  Biso   1.000  H
  H97      1.0000 0.48470  0.24270  0.66010  Biso   1.000  H
  H98      1.0000 0.63940  0.00810  0.22570  Biso   1.000  H
  H99      1.0000 0.58310  0.30230  0.70500  Biso   1.000  H
  H100     1.0000 0.34080  0.24700  0.17110  Biso   1.000  H
  H101     1.0000 0.78460  0.65220  0.72010  Biso   1.000  H
  H102     1.0000 0.56640  0.16060  0.24400  Biso   1.000  H
  H103     1.0000 0.66270  0.31060  0.17350  Biso   1.000  H
  H104     1.0000 0.62040  0.40940  0.10970  Biso   1.000  H
  H105     1.0000 0.41770  0.03740  0.29360  Biso   1.000  H
  H106     1.0000 0.24200  0.09720  0.24270  Biso   1.000  H
  H107     1.0000 0.63130  0.76620  0.00810  Biso   1.000  H
  H108     1.0000 0.28080  0.99270  0.30230  Biso   1.000  H
  H109     1.0000 0.01795  0.76795  0.46410  Biso   1.000  H
  H110     1.0000 0.17165  0.92165  0.15670  Biso   1.000  H
  H111     1.0000 0.48205  0.46410  0.76795  Biso   1.000  H
  H112     1.0000 0.32835  0.15670  0.92165  Biso   1.000  H
  H113     1.0000 0.25000  0.76795  0.76795  Biso   1.000  H
  H114     1.0000 0.25000  0.92165  0.92165  Biso   1.000  H
  H115     1.0000 0.98205  0.23205  0.53590  Biso   1.000  H
  H116     1.0000 0.82835  0.07835  0.84330  Biso   1.000  H
  H117     1.0000 0.51795  0.53590  0.23205  Biso   1.000  H
  H118     1.0000 0.67165  0.84330  0.07835  Biso   1.000  H
  H119     1.0000 0.75000  0.23205  0.23205  Biso   1.000  H
  H120     1.0000 0.75000  0.07835  0.07835  Biso   1.000  H
  H121     1.0000 0.27420  0.04840  0.47580  Biso   1.000  H
  H122     1.0000 0.42800  0.35600  0.32200  Biso   1.000  H
  H123     1.0000 0.75000  0.47580  0.47580  Biso   1.000  H
  H124     1.0000 0.75000  0.32200  0.32200  Biso   1.000  H
  H125     1.0000 0.22580  0.47580  0.04840  Biso   1.000  H
  H126     1.0000 0.07200  0.32200  0.35600  Biso   1.000  H
  H127     1.0000 0.72580  0.95160  0.52420  Biso   1.000  H
  H128     1.0000 0.57200  0.64400  0.67800  Biso   1.000  H
  H129     1.0000 0.25000  0.52420  0.52420  Biso   1.000  H
  H130     1.0000 0.25000  0.67800  0.67800  Biso   1.000  H
  H131     1.0000 0.77420  0.52420  0.95160  Biso   1.000  H
  H132     1.0000 0.92800  0.67800  0.64400  Biso   1.000  H
  C1       1.0000 0.85755  0.80503  0.79471  Biso   1.000  C
  C2       1.0000 0.05040  0.93041  0.40913  Biso   1.000  C
  C3       1.0000 0.26340  0.15589  0.41801  Biso   1.000  C
  C4       1.0000 0.94258  0.81314  0.76595  Biso   1.000  C
  C5       1.0000 0.31121  0.24829  0.36956  Biso   1.000  C
  C6       1.0000 0.16820  0.10669  0.44174  Biso   1.000  C
  C7       1.0000 0.07384  0.88698  0.35685  Biso   1.000  C
  C8       1.0000 0.96589  0.77561  0.82904  Biso   1.000  C
  C9       1.0000 0.04950  0.78136  0.79846  Biso   1.000  C
  C10      1.0000 0.10619  0.82288  0.71071  Biso   1.000  C
  C11      1.0000 0.07959  0.86036  0.65201  Biso   1.000  C
  C12      1.0000 0.90293  0.73200  0.91971  Biso   1.000  C
  C13      1.0000 0.79922  0.76238  0.88352  Biso   1.000  C
  C14      1.0000 0.11732  0.93233  0.26513  Biso   1.000  C
  C15      1.0000 0.82201  0.72629  0.94616  Biso   1.000  C
  C16      1.0000 0.65226  0.79471  0.40026  Biso   1.000  C
  C17      1.0000 0.45953  0.40913  0.66046  Biso   1.000  C
  C18      1.0000 0.68141  0.41801  0.42610  Biso   1.000  C
  C19      1.0000 0.70853  0.76595  0.42091  Biso   1.000  C
  C20      1.0000 0.68077  0.36956  0.38215  Biso   1.000  C
  C21      1.0000 0.60994  0.44174  0.45157  Biso   1.000  C
  C22      1.0000 0.43069  0.35685  0.75617  Biso   1.000  C
  C23      1.0000 0.79493  0.82904  0.39535  Biso   1.000  C
  C24      1.0000 0.84796  0.79846  0.42018  Biso   1.000  C
  C25      1.0000 0.81690  0.71071  0.46641  Biso   1.000  C
  C26      1.0000 0.73160  0.65201  0.48763  Biso   1.000  C
  C27      1.0000 0.82264  0.91971  0.34829  Biso   1.000  C
  C28      1.0000 0.68274  0.88352  0.35410  Biso   1.000  C
  C29      1.0000 0.38245  0.26513  0.80254  Biso   1.000  C
  C30      1.0000 0.76817  0.94616  0.32755  Biso   1.000  C
  C31      1.0000 0.05252  0.40026  0.80503  Biso   1.000  C
  C32      1.0000 0.11999  0.66046  0.93041  Biso   1.000  C
  C33      1.0000 0.10751  0.42610  0.15589  Biso   1.000  C
  C34      1.0000 0.12944  0.42091  0.81314  Biso   1.000  C
  C35      1.0000 0.06292  0.38215  0.24829  Biso   1.000  C
  C36      1.0000 0.06151  0.45157  0.10669  Biso   1.000  C
  C37      1.0000 0.18686  0.75617  0.88698  Biso   1.000  C
  C38      1.0000 0.19028  0.39535  0.77561  Biso   1.000  C
  C39      1.0000 0.26814  0.42018  0.78136  Biso   1.000  C
  C40      1.0000 0.28331  0.46641  0.82288  Biso   1.000  C
  C41      1.0000 0.21923  0.48763  0.86036  Biso   1.000  C
  C42      1.0000 0.17093  0.34829  0.73200  Biso   1.000  C
  C43      1.0000 0.03684  0.35410  0.76238  Biso   1.000  C
  C44      1.0000 0.18499  0.80254  0.93233  Biso   1.000  C
  C45      1.0000 0.09572  0.32755  0.72629  Biso   1.000  C
  C46      1.0000 0.84774  0.40026  0.79471  Biso   1.000  C
  C47      1.0000 0.04047  0.66046  0.40913  Biso   1.000  C
  C48      1.0000 0.81859  0.42610  0.41801  Biso   1.000  C
  C49      1.0000 0.79147  0.42091  0.76595  Biso   1.000  C
  C50      1.0000 0.81923  0.38215  0.36956  Biso   1.000  C
  C51      1.0000 0.89006  0.45157  0.44174  Biso   1.000  C
  C52      1.0000 0.06931  0.75617  0.35685  Biso   1.000  C
  C53      1.0000 0.70507  0.39535  0.82904  Biso   1.000  C
  C54      1.0000 0.65204  0.42018  0.79846  Biso   1.000  C
  C55      1.0000 0.68310  0.46641  0.71071  Biso   1.000  C
  C56      1.0000 0.76840  0.48763  0.65201  Biso   1.000  C
  C57      1.0000 0.67736  0.34829  0.91971  Biso   1.000  C
  C58      1.0000 0.81726  0.35410  0.88352  Biso   1.000  C
  C59      1.0000 0.11755  0.80254  0.26513  Biso   1.000  C
  C60      1.0000 0.73183  0.32755  0.94616  Biso   1.000  C
  C61      1.0000 0.44748  0.80503  0.40026  Biso   1.000  C
  C62      1.0000 0.38001  0.93041  0.66046  Biso   1.000  C
  C63      1.0000 0.39249  0.15589  0.42610  Biso   1.000  C
  C64      1.0000 0.37056  0.81314  0.42091  Biso   1.000  C
  C65      1.0000 0.43708  0.24829  0.38215  Biso   1.000  C
  C66      1.0000 0.43849  0.10669  0.45157  Biso   1.000  C
  C67      1.0000 0.31314  0.88698  0.75617  Biso   1.000  C
  C68      1.0000 0.30972  0.77561  0.39535  Biso   1.000  C
  C69      1.0000 0.23186  0.78136  0.42018  Biso   1.000  C
  C70      1.0000 0.21669  0.82288  0.46641  Biso   1.000  C
  C71      1.0000 0.28077  0.86036  0.48763  Biso   1.000  C
  C72      1.0000 0.32907  0.73200  0.34829  Biso   1.000  C
  C73      1.0000 0.46316  0.76238  0.35410  Biso   1.000  C
  C74      1.0000 0.31501  0.93233  0.80254  Biso   1.000  C
  C75      1.0000 0.40428  0.72629  0.32755  Biso   1.000  C
  C76      1.0000 0.64245  0.79471  0.80503  Biso   1.000  C
  C77      1.0000 0.44960  0.40913  0.93041  Biso   1.000  C
  C78      1.0000 0.23660  0.41801  0.15589  Biso   1.000  C
  C79      1.0000 0.55742  0.76595  0.81314  Biso   1.000  C
  C80      1.0000 0.18879  0.36956  0.24829  Biso   1.000  C
  C81      1.0000 0.33180  0.44174  0.10669  Biso   1.000  C
  C82      1.0000 0.42616  0.35685  0.88698  Biso   1.000  C
  C83      1.0000 0.53411  0.82904  0.77561  Biso   1.000  C
  C84      1.0000 0.45050  0.79846  0.78136  Biso   1.000  C
  C85      1.0000 0.39381  0.71071  0.82288  Biso   1.000  C
  C86      1.0000 0.42041  0.65201  0.86036  Biso   1.000  C
  C87      1.0000 0.59707  0.91971  0.73200  Biso   1.000  C
  C88      1.0000 0.70078  0.88352  0.76238  Biso   1.000  C
  C89      1.0000 0.38268  0.26513  0.93233  Biso   1.000  C
  C90      1.0000 0.67799  0.94616  0.72629  Biso   1.000  C
  C91      1.0000 0.14245  0.19497  0.20529  Biso   1.000  C
  C92      1.0000 0.94960  0.06959  0.59087  Biso   1.000  C
  C93      1.0000 0.73660  0.84411  0.58199  Biso   1.000  C
  C94      1.0000 0.05742  0.18686  0.23405  Biso   1.000  C
  C95      1.0000 0.68879  0.75171  0.63044  Biso   1.000  C
  C96      1.0000 0.83180  0.89331  0.55826  Biso   1.000  C
  C97      1.0000 0.92616  0.11302  0.64315  Biso   1.000  C
  C98      1.0000 0.03411  0.22439  0.17096  Biso   1.000  C
  C99      1.0000 0.95050  0.21864  0.20154  Biso   1.000  C
  C100     1.0000 0.89381  0.17712  0.28929  Biso   1.000  C
  C101     1.0000 0.92041  0.13964  0.34799  Biso   1.000  C
  C102     1.0000 0.09707  0.26800  0.08029  Biso   1.000  C
  C103     1.0000 0.20078  0.23762  0.11648  Biso   1.000  C
  C104     1.0000 0.88268  0.06767  0.73487  Biso   1.000  C
  C105     1.0000 0.17799  0.27371  0.05384  Biso   1.000  C
  C106     1.0000 0.34774  0.20529  0.59974  Biso   1.000  C
  C107     1.0000 0.54047  0.59087  0.33954  Biso   1.000  C
  C108     1.0000 0.31859  0.58199  0.57390  Biso   1.000  C
  C109     1.0000 0.29147  0.23405  0.57909  Biso   1.000  C
  C110     1.0000 0.31923  0.63044  0.61785  Biso   1.000  C
  C111     1.0000 0.39006  0.55826  0.54843  Biso   1.000  C
  C112     1.0000 0.56931  0.64315  0.24383  Biso   1.000  C
  C113     1.0000 0.20507  0.17096  0.60465  Biso   1.000  C
  C114     1.0000 0.15204  0.20154  0.57982  Biso   1.000  C
  C115     1.0000 0.18310  0.28929  0.53359  Biso   1.000  C
  C116     1.0000 0.26840  0.34799  0.51237  Biso   1.000  C
  C117     1.0000 0.17736  0.08029  0.65171  Biso   1.000  C
  C118     1.0000 0.31726  0.11648  0.64590  Biso   1.000  C
  C119     1.0000 0.61755  0.73487  0.19746  Biso   1.000  C
  C120     1.0000 0.23183  0.05384  0.67245  Biso   1.000  C
  C121     1.0000 0.94748  0.59974  0.19497  Biso   1.000  C
  C122     1.0000 0.88001  0.33954  0.06959  Biso   1.000  C
  C123     1.0000 0.89249  0.57390  0.84411  Biso   1.000  C
  C124     1.0000 0.87056  0.57909  0.18686  Biso   1.000  C
  C125     1.0000 0.93708  0.61785  0.75171  Biso   1.000  C
  C126     1.0000 0.93849  0.54843  0.89331  Biso   1.000  C
  C127     1.0000 0.81314  0.24383  0.11302  Biso   1.000  C
  C128     1.0000 0.80972  0.60465  0.22439  Biso   1.000  C
  C129     1.0000 0.73186  0.57982  0.21864  Biso   1.000  C
  C130     1.0000 0.71669  0.53359  0.17712  Biso   1.000  C
  C131     1.0000 0.78077  0.51237  0.13964  Biso   1.000  C
  C132     1.0000 0.82907  0.65171  0.26800  Biso   1.000  C
  C133     1.0000 0.96316  0.64590  0.23762  Biso   1.000  C
  C134     1.0000 0.81501  0.19746  0.06767  Biso   1.000  C
  C135     1.0000 0.90428  0.67245  0.27371  Biso   1.000  C
  C136     1.0000 0.15226  0.59974  0.20529  Biso   1.000  C
  C137     1.0000 0.95953  0.33954  0.59087  Biso   1.000  C
  C138     1.0000 0.18141  0.57390  0.58199  Biso   1.000  C
  C139     1.0000 0.20853  0.57909  0.23405  Biso   1.000  C
  C140     1.0000 0.18077  0.61785  0.63044  Biso   1.000  C
  C141     1.0000 0.10994  0.54843  0.55826  Biso   1.000  C
  C142     1.0000 0.93069  0.24383  0.64315  Biso   1.000  C
  C143     1.0000 0.29493  0.60465  0.17096  Biso   1.000  C
  C144     1.0000 0.34796  0.57982  0.20154  Biso   1.000  C
  C145     1.0000 0.31690  0.53359  0.28929  Biso   1.000  C
  C146     1.0000 0.23160  0.51237  0.34799  Biso   1.000  C
  C147     1.0000 0.32264  0.65171  0.08029  Biso   1.000  C
  C148     1.0000 0.18274  0.64590  0.11648  Biso   1.000  C
  C149     1.0000 0.88245  0.19746  0.73487  Biso   1.000  C
  C150     1.0000 0.26817  0.67245  0.05384  Biso   1.000  C
  C151     1.0000 0.55252  0.19497  0.59974  Biso   1.000  C
  C152     1.0000 0.61999  0.06959  0.33954  Biso   1.000  C
  C153     1.0000 0.60751  0.84411  0.57390  Biso   1.000  C
  C154     1.0000 0.62944  0.18686  0.57909  Biso   1.000  C
  C155     1.0000 0.56292  0.75171  0.61785  Biso   1.000  C
  C156     1.0000 0.56151  0.89331  0.54843  Biso   1.000  C
  C157     1.0000 0.68686  0.11302  0.24383  Biso   1.000  C
  C158     1.0000 0.69028  0.22439  0.60465  Biso   1.000  C
  C159     1.0000 0.76814  0.21864  0.57982  Biso   1.000  C
  C160     1.0000 0.78331  0.17712  0.53359  Biso   1.000  C
  C161     1.0000 0.71923  0.13964  0.51237  Biso   1.000  C
  C162     1.0000 0.67093  0.26800  0.65171  Biso   1.000  C
  C163     1.0000 0.53684  0.23762  0.64590  Biso   1.000  C
  C164     1.0000 0.68499  0.06767  0.19746  Biso   1.000  C
  C165     1.0000 0.59572  0.27371  0.67245  Biso   1.000  C
  C166     1.0000 0.35755  0.20529  0.19497  Biso   1.000  C
  C167     1.0000 0.55040  0.59087  0.06959  Biso   1.000  C
  C168     1.0000 0.76340  0.58199  0.84411  Biso   1.000  C
  C169     1.0000 0.44258  0.23405  0.18686  Biso   1.000  C
  C170     1.0000 0.81121  0.63044  0.75171  Biso   1.000  C
  C171     1.0000 0.66820  0.55826  0.89331  Biso   1.000  C
  C172     1.0000 0.57384  0.64315  0.11302  Biso   1.000  C
  C173     1.0000 0.46589  0.17096  0.22439  Biso   1.000  C
  C174     1.0000 0.54950  0.20154  0.21864  Biso   1.000  C
  C175     1.0000 0.60619  0.28929  0.17712  Biso   1.000  C
  C176     1.0000 0.57959  0.34799  0.13964  Biso   1.000  C
  C177     1.0000 0.40293  0.08029  0.26800  Biso   1.000  C
  C178     1.0000 0.29922  0.11648  0.23762  Biso   1.000  C
  C179     1.0000 0.61732  0.73487  0.06767  Biso   1.000  C
  C180     1.0000 0.32201  0.05384  0.27371  Biso   1.000  C
  C181     1.0000 0.04930  0.79930  0.40140  Biso   1.000  C
  C182     1.0000 0.14029  0.89029  0.21942  Biso   1.000  C
  C183     1.0000 0.45070  0.40140  0.79930  Biso   1.000  C
  C184     1.0000 0.35971  0.21942  0.89029  Biso   1.000  C
  C185     1.0000 0.25000  0.79930  0.79930  Biso   1.000  C
  C186     1.0000 0.25000  0.89029  0.89029  Biso   1.000  C
  C187     1.0000 0.95070  0.20070  0.59860  Biso   1.000  C
  C188     1.0000 0.85971  0.10971  0.78058  Biso   1.000  C
  C189     1.0000 0.54930  0.59860  0.20070  Biso   1.000  C
  C190     1.0000 0.64029  0.78058  0.10971  Biso   1.000  C
  C191     1.0000 0.75000  0.20070  0.20070  Biso   1.000  C
  C192     1.0000 0.75000  0.10971  0.10971  Biso   1.000  C
  C193     1.0000 0.30554  0.11108  0.44446  Biso   1.000  C
  C194     1.0000 0.39669  0.29338  0.35331  Biso   1.000  C
  C195     1.0000 0.75000  0.44446  0.44446  Biso   1.000  C
  C196     1.0000 0.75000  0.35331  0.35331  Biso   1.000  C
  C197     1.0000 0.19446  0.44446  0.11108  Biso   1.000  C
  C198     1.0000 0.10331  0.35331  0.29338  Biso   1.000  C
  C199     1.0000 0.69446  0.88892  0.55554  Biso   1.000  C
  C200     1.0000 0.60331  0.70662  0.64669  Biso   1.000  C
  C201     1.0000 0.25000  0.55554  0.55554  Biso   1.000  C
  C202     1.0000 0.25000  0.64669  0.64669  Biso   1.000  C
  C203     1.0000 0.80554  0.55554  0.88892  Biso   1.000  C
  C204     1.0000 0.89669  0.64669  0.70662  Biso   1.000  C
  N1       1.0000 0.00181  0.85684  0.67639  Biso   1.000  N
  N2       1.0000 0.67820  0.67639  0.46677  Biso   1.000  N
  N3       1.0000 0.14497  0.46677  0.85684  Biso   1.000  N
  N4       1.0000 0.82180  0.46677  0.67639  Biso   1.000  N
  N5       1.0000 0.35503  0.85684  0.46677  Biso   1.000  N
  N6       1.0000 0.49819  0.67639  0.85684  Biso   1.000  N
  N7       1.0000 0.99819  0.14316  0.32361  Biso   1.000  N
  N8       1.0000 0.32180  0.32361  0.53323  Biso   1.000  N
  N9       1.0000 0.85503  0.53323  0.14316  Biso   1.000  N
  N10      1.0000 0.17820  0.53323  0.32361  Biso   1.000  N
  N11      1.0000 0.64497  0.14316  0.53323  Biso   1.000  N
  N12      1.0000 0.50181  0.32361  0.14316  Biso   1.000  N
  O1       1.0000 0.11916  0.03048  0.50869  Biso   1.000  O
  O2       1.0000 0.03058  0.89167  0.48871  Biso   1.000  O
  O3       1.0000 0.14199  0.14482  0.39359  Biso   1.000  O
  O4       1.0000 0.05053  0.00084  0.37036  Biso   1.000  O
  O5       1.0000 0.62785  0.50869  0.46083  Biso   1.000  O
  O6       1.0000 0.51929  0.48871  0.61962  Biso   1.000  O
  O7       1.0000 0.53558  0.39359  0.46159  Biso   1.000  O
  O8       1.0000 0.42089  0.37036  0.62880  Biso   1.000  O
  O9       1.0000 0.08868  0.46083  0.03048  Biso   1.000  O
  O10      1.0000 0.13891  0.61962  0.89167  Biso   1.000  O
  O11      1.0000 0.99717  0.46159  0.14482  Biso   1.000  O
  O12      1.0000 0.04969  0.62880  0.00084  Biso   1.000  O
  O13      1.0000 0.87215  0.46083  0.50869  Biso   1.000  O
  O14      1.0000 0.98071  0.61962  0.48871  Biso   1.000  O
  O15      1.0000 0.96442  0.46159  0.39359  Biso   1.000  O
  O16      1.0000 0.07911  0.62880  0.37036  Biso   1.000  O
  O17      1.0000 0.41132  0.03048  0.46083  Biso   1.000  O
  O18      1.0000 0.36109  0.89167  0.61962  Biso   1.000  O
  O19      1.0000 0.50283  0.14482  0.46159  Biso   1.000  O
  O20      1.0000 0.45031  0.00084  0.62880  Biso   1.000  O
  O21      1.0000 0.38084  0.50869  0.03048  Biso   1.000  O
  O22      1.0000 0.46942  0.48871  0.89167  Biso   1.000  O
  O23      1.0000 0.35801  0.39359  0.14482  Biso   1.000  O
  O24      1.0000 0.44947  0.37036  0.00084  Biso   1.000  O
  O25      1.0000 0.88084  0.96952  0.49131  Biso   1.000  O
  O26      1.0000 0.96942  0.10833  0.51129  Biso   1.000  O
  O27      1.0000 0.85801  0.85518  0.60641  Biso   1.000  O
  O28      1.0000 0.94947  0.99916  0.62964  Biso   1.000  O
  O29      1.0000 0.37215  0.49131  0.53917  Biso   1.000  O
  O30      1.0000 0.48071  0.51129  0.38038  Biso   1.000  O
  O31      1.0000 0.46442  0.60641  0.53841  Biso   1.000  O
  O32      1.0000 0.57911  0.62964  0.37120  Biso   1.000  O
  O33      1.0000 0.91132  0.53917  0.96952  Biso   1.000  O
  O34      1.0000 0.86109  0.38038  0.10833  Biso   1.000  O
  O35      1.0000 0.00283  0.53841  0.85518  Biso   1.000  O
  O36      1.0000 0.95031  0.37120  0.99916  Biso   1.000  O
  O37      1.0000 0.12785  0.53917  0.49131  Biso   1.000  O
  O38      1.0000 0.01929  0.38038  0.51129  Biso   1.000  O
  O39      1.0000 0.03558  0.53841  0.60641  Biso   1.000  O
  O40      1.0000 0.92089  0.37120  0.62964  Biso   1.000  O
  O41      1.0000 0.58868  0.96952  0.53917  Biso   1.000  O
  O42      1.0000 0.63891  0.10833  0.38038  Biso   1.000  O
  O43      1.0000 0.49717  0.85518  0.53841  Biso   1.000  O
  O44      1.0000 0.54969  0.99916  0.37120  Biso   1.000  O
  O45      1.0000 0.61916  0.49131  0.96952  Biso   1.000  O
  O46      1.0000 0.53058  0.51129  0.10833  Biso   1.000  O
  O47      1.0000 0.64199  0.60641  0.85518  Biso   1.000  O
  O48      1.0000 0.55053  0.62964  0.99916  Biso   1.000  O
