data_image0
_cell_length_a       13.0678
_cell_length_b       13.0678
_cell_length_c       25.914
_cell_angle_alpha    90
_cell_angle_beta     90
_cell_angle_gamma    90

_symmetry_space_group_name_H-M    P 1
_symmetry_int_tables_number       1

loop_
  _symmetry_equiv_pos_as_xyz
  'x, y, z'

loop_
  _atom_site_label
  _atom_site_occupancy
  _atom_site_fract_x
  _atom_site_fract_y
  _atom_site_fract_z
  _atom_site_thermal_displace_type
  _atom_site_B_iso_or_equiv
  _atom_site_type_symbol
  Co1      1.0000 0.75000  0.75000  0.38130  Biso   1.000  Co
  Co2      1.0000 0.25000  0.25000  0.88130  Biso   1.000  Co
  H1       1.0000 0.76110  0.88530  0.48000  Biso   1.000  H
  H2       1.0000 0.86970  0.92500  0.55010  Biso   1.000  H
  H3       1.0000 0.09350  0.76570  0.47620  Biso   1.000  H
  H4       1.0000 0.97280  0.72650  0.41220  Biso   1.000  H
  H5       1.0000 0.29440  0.86420  0.58070  Biso   1.000  H
  H6       1.0000 0.21000  0.90040  0.61860  Biso   1.000  H
  H7       1.0000 0.35930  0.70810  0.68320  Biso   1.000  H
  H8       1.0000 0.40070  0.78580  0.64300  Biso   1.000  H
  H9       1.0000 0.21400  0.98200  0.73560  Biso   1.000  H
  H10      1.0000 0.16770  0.11920  0.78780  Biso   1.000  H
  H11      1.0000 0.43890  0.11810  0.85410  Biso   1.000  H
  H12      1.0000 0.49050  0.98290  0.80440  Biso   1.000  H
  H13      1.0000 0.73890  0.61470  0.48000  Biso   1.000  H
  H14      1.0000 0.63030  0.57500  0.55010  Biso   1.000  H
  H15      1.0000 0.40650  0.73430  0.47620  Biso   1.000  H
  H16      1.0000 0.52720  0.77350  0.41220  Biso   1.000  H
  H17      1.0000 0.20560  0.63580  0.58070  Biso   1.000  H
  H18      1.0000 0.29000  0.59960  0.61860  Biso   1.000  H
  H19      1.0000 0.14070  0.79190  0.68320  Biso   1.000  H
  H20      1.0000 0.09930  0.71420  0.64300  Biso   1.000  H
  H21      1.0000 0.28600  0.51800  0.73560  Biso   1.000  H
  H22      1.0000 0.33230  0.38080  0.78780  Biso   1.000  H
  H23      1.0000 0.06110  0.38190  0.85410  Biso   1.000  H
  H24      1.0000 0.00950  0.51710  0.80440  Biso   1.000  H
  H25      1.0000 0.11470  0.26110  0.98000  Biso   1.000  H
  H26      1.0000 0.07500  0.36970  0.05010  Biso   1.000  H
  H27      1.0000 0.23430  0.59350  0.97620  Biso   1.000  H
  H28      1.0000 0.27350  0.47280  0.91220  Biso   1.000  H
  H29      1.0000 0.13580  0.79440  0.08070  Biso   1.000  H
  H30      1.0000 0.09960  0.71000  0.11860  Biso   1.000  H
  H31      1.0000 0.29190  0.85930  0.18320  Biso   1.000  H
  H32      1.0000 0.21420  0.90070  0.14300  Biso   1.000  H
  H33      1.0000 0.01800  0.71400  0.23560  Biso   1.000  H
  H34      1.0000 0.88080  0.66770  0.28780  Biso   1.000  H
  H35      1.0000 0.88190  0.93890  0.35410  Biso   1.000  H
  H36      1.0000 0.01710  0.99050  0.30440  Biso   1.000  H
  H37      1.0000 0.38530  0.23890  0.98000  Biso   1.000  H
  H38      1.0000 0.42500  0.13030  0.05010  Biso   1.000  H
  H39      1.0000 0.26570  0.90650  0.97620  Biso   1.000  H
  H40      1.0000 0.22650  0.02720  0.91220  Biso   1.000  H
  H41      1.0000 0.36420  0.70560  0.08070  Biso   1.000  H
  H42      1.0000 0.40040  0.79000  0.11860  Biso   1.000  H
  H43      1.0000 0.20810  0.64070  0.18320  Biso   1.000  H
  H44      1.0000 0.28580  0.59930  0.14300  Biso   1.000  H
  H45      1.0000 0.48200  0.78600  0.23560  Biso   1.000  H
  H46      1.0000 0.61920  0.83230  0.28780  Biso   1.000  H
  H47      1.0000 0.61810  0.56110  0.35410  Biso   1.000  H
  H48      1.0000 0.48290  0.50950  0.30440  Biso   1.000  H
  C1       1.0000 0.82900  0.85900  0.48020  Biso   1.000  C
  C2       1.0000 0.89300  0.88500  0.52210  Biso   1.000  C
  C3       1.0000 0.99400  0.84700  0.51990  Biso   1.000  C
  C4       1.0000 0.02500  0.79000  0.47890  Biso   1.000  C
  C5       1.0000 0.95200  0.76800  0.44050  Biso   1.000  C
  C6       1.0000 0.06300  0.86900  0.56510  Biso   1.000  C
  C7       1.0000 0.23200  0.84600  0.59720  Biso   1.000  C
  C8       1.0000 0.34400  0.76800  0.66380  Biso   1.000  C
  C9       1.0000 0.39000  0.88500  0.73090  Biso   1.000  C
  C10      1.0000 0.35900  0.96900  0.76350  Biso   1.000  C
  C11      1.0000 0.26200  0.01000  0.75950  Biso   1.000  C
  C12      1.0000 0.23500  0.09100  0.79100  Biso   1.000  C
  C13      1.0000 0.39200  0.09100  0.82960  Biso   1.000  C
  C14      1.0000 0.42400  0.01000  0.80000  Biso   1.000  C
  C15      1.0000 0.67100  0.64100  0.48020  Biso   1.000  C
  C16      1.0000 0.60700  0.61500  0.52210  Biso   1.000  C
  C17      1.0000 0.50600  0.65300  0.51990  Biso   1.000  C
  C18      1.0000 0.47500  0.71000  0.47890  Biso   1.000  C
  C19      1.0000 0.54800  0.73200  0.44050  Biso   1.000  C
  C20      1.0000 0.43700  0.63100  0.56510  Biso   1.000  C
  C21      1.0000 0.26800  0.65400  0.59720  Biso   1.000  C
  C22      1.0000 0.15600  0.73200  0.66380  Biso   1.000  C
  C23      1.0000 0.11000  0.61500  0.73090  Biso   1.000  C
  C24      1.0000 0.14100  0.53100  0.76350  Biso   1.000  C
  C25      1.0000 0.23800  0.49000  0.75950  Biso   1.000  C
  C26      1.0000 0.26500  0.40900  0.79100  Biso   1.000  C
  C27      1.0000 0.10800  0.40900  0.82960  Biso   1.000  C
  C28      1.0000 0.07600  0.49000  0.80000  Biso   1.000  C
  C29      1.0000 0.14100  0.32900  0.98020  Biso   1.000  C
  C30      1.0000 0.11500  0.39300  0.02210  Biso   1.000  C
  C31      1.0000 0.15300  0.49400  0.01990  Biso   1.000  C
  C32      1.0000 0.21000  0.52500  0.97890  Biso   1.000  C
  C33      1.0000 0.23200  0.45200  0.94050  Biso   1.000  C
  C34      1.0000 0.13100  0.56300  0.06510  Biso   1.000  C
  C35      1.0000 0.15400  0.73200  0.09720  Biso   1.000  C
  C36      1.0000 0.23200  0.84400  0.16380  Biso   1.000  C
  C37      1.0000 0.11500  0.89000  0.23090  Biso   1.000  C
  C38      1.0000 0.03100  0.85900  0.26350  Biso   1.000  C
  C39      1.0000 0.99000  0.76200  0.25950  Biso   1.000  C
  C40      1.0000 0.90900  0.73500  0.29100  Biso   1.000  C
  C41      1.0000 0.90900  0.89200  0.32960  Biso   1.000  C
  C42      1.0000 0.99000  0.92400  0.30000  Biso   1.000  C
  C43      1.0000 0.35900  0.17100  0.98020  Biso   1.000  C
  C44      1.0000 0.38500  0.10700  0.02210  Biso   1.000  C
  C45      1.0000 0.34700  0.00600  0.01990  Biso   1.000  C
  C46      1.0000 0.29000  0.97500  0.97890  Biso   1.000  C
  C47      1.0000 0.26800  0.04800  0.94050  Biso   1.000  C
  C48      1.0000 0.36900  0.93700  0.06510  Biso   1.000  C
  C49      1.0000 0.34600  0.76800  0.09720  Biso   1.000  C
  C50      1.0000 0.26800  0.65600  0.16380  Biso   1.000  C
  C51      1.0000 0.38500  0.61000  0.23090  Biso   1.000  C
  C52      1.0000 0.46900  0.64100  0.26350  Biso   1.000  C
  C53      1.0000 0.51000  0.73800  0.25950  Biso   1.000  C
  C54      1.0000 0.59100  0.76500  0.29100  Biso   1.000  C
  C55      1.0000 0.59100  0.60800  0.32960  Biso   1.000  C
  C56      1.0000 0.51000  0.57600  0.30000  Biso   1.000  C
  C57      1.0000 0.25000  0.75000  0.63060  Biso   1.000  C
  C58      1.0000 0.25000  0.75000  0.13060  Biso   1.000  C
  N1       1.0000 0.85700  0.80000  0.44100  Biso   1.000  N
  N2       1.0000 0.29800  0.13300  0.82560  Biso   1.000  N
  N3       1.0000 0.64300  0.70000  0.44100  Biso   1.000  N
  N4       1.0000 0.20200  0.36700  0.82560  Biso   1.000  N
  N5       1.0000 0.20000  0.35700  0.94100  Biso   1.000  N
  N6       1.0000 0.86700  0.79800  0.32560  Biso   1.000  N
  N7       1.0000 0.30000  0.14300  0.94100  Biso   1.000  N
  N8       1.0000 0.63300  0.70200  0.32560  Biso   1.000  N
  Cl1      1.0000 0.67220  0.91760  0.38100  Biso   1.000  Cl
  Cl2      1.0000 0.82780  0.58240  0.38100  Biso   1.000  Cl
  Cl3      1.0000 0.08240  0.17220  0.88100  Biso   1.000  Cl
  Cl4      1.0000 0.41760  0.32780  0.88100  Biso   1.000  Cl
  O1       1.0000 0.03700  0.92000  0.60110  Biso   1.000  O
  O2       1.0000 0.15410  0.82550  0.55790  Biso   1.000  O
  O3       1.0000 0.31710  0.85090  0.69770  Biso   1.000  O
  O4       1.0000 0.47400  0.84500  0.73230  Biso   1.000  O
  O5       1.0000 0.46300  0.58000  0.60110  Biso   1.000  O
  O6       1.0000 0.34590  0.67450  0.55790  Biso   1.000  O
  O7       1.0000 0.18290  0.64910  0.69770  Biso   1.000  O
  O8       1.0000 0.02600  0.65500  0.73230  Biso   1.000  O
  O9       1.0000 0.08000  0.53700  0.10110  Biso   1.000  O
  O10      1.0000 0.17450  0.65410  0.05790  Biso   1.000  O
  O11      1.0000 0.14910  0.81710  0.19770  Biso   1.000  O
  O12      1.0000 0.15500  0.97400  0.23230  Biso   1.000  O
  O13      1.0000 0.42000  0.96300  0.10110  Biso   1.000  O
  O14      1.0000 0.32550  0.84590  0.05790  Biso   1.000  O
  O15      1.0000 0.35090  0.68290  0.19770  Biso   1.000  O
  O16      1.0000 0.34500  0.52600  0.23230  Biso   1.000  O
  Co3      1.0000 0.25000  0.25000  0.61870  Biso   1.000  Co
  Co4      1.0000 0.75000  0.75000  0.11870  Biso   1.000  Co
  H49      1.0000 0.23890  0.11470  0.52000  Biso   1.000  H
  H50      1.0000 0.13030  0.07500  0.44990  Biso   1.000  H
  H51      1.0000 0.90650  0.23430  0.52380  Biso   1.000  H
  H52      1.0000 0.02720  0.27350  0.58780  Biso   1.000  H
  H53      1.0000 0.70560  0.13580  0.41930  Biso   1.000  H
  H54      1.0000 0.79000  0.09960  0.38140  Biso   1.000  H
  H55      1.0000 0.64070  0.29190  0.31680  Biso   1.000  H
  H56      1.0000 0.59930  0.21420  0.35700  Biso   1.000  H
  H57      1.0000 0.78600  0.01800  0.26440  Biso   1.000  H
  H58      1.0000 0.83230  0.88080  0.21220  Biso   1.000  H
  H59      1.0000 0.56110  0.88190  0.14590  Biso   1.000  H
  H60      1.0000 0.50950  0.01710  0.19560  Biso   1.000  H
  H61      1.0000 0.26110  0.38530  0.52000  Biso   1.000  H
  H62      1.0000 0.36970  0.42500  0.44990  Biso   1.000  H
  H63      1.0000 0.59350  0.26570  0.52380  Biso   1.000  H
  H64      1.0000 0.47280  0.22650  0.58780  Biso   1.000  H
  H65      1.0000 0.79440  0.36420  0.41930  Biso   1.000  H
  H66      1.0000 0.71000  0.40040  0.38140  Biso   1.000  H
  H67      1.0000 0.85930  0.20810  0.31680  Biso   1.000  H
  H68      1.0000 0.90070  0.28580  0.35700  Biso   1.000  H
  H69      1.0000 0.71400  0.48200  0.26440  Biso   1.000  H
  H70      1.0000 0.66770  0.61920  0.21220  Biso   1.000  H
  H71      1.0000 0.93890  0.61810  0.14590  Biso   1.000  H
  H72      1.0000 0.99050  0.48290  0.19560  Biso   1.000  H
  H73      1.0000 0.88530  0.73890  0.02000  Biso   1.000  H
  H74      1.0000 0.92500  0.63030  0.94990  Biso   1.000  H
  H75      1.0000 0.76570  0.40650  0.02380  Biso   1.000  H
  H76      1.0000 0.72650  0.52720  0.08780  Biso   1.000  H
  H77      1.0000 0.86420  0.20560  0.91930  Biso   1.000  H
  H78      1.0000 0.90040  0.29000  0.88140  Biso   1.000  H
  H79      1.0000 0.70810  0.14070  0.81680  Biso   1.000  H
  H80      1.0000 0.78580  0.09930  0.85700  Biso   1.000  H
  H81      1.0000 0.98200  0.28600  0.76440  Biso   1.000  H
  H82      1.0000 0.11920  0.33230  0.71220  Biso   1.000  H
  H83      1.0000 0.11810  0.06110  0.64590  Biso   1.000  H
  H84      1.0000 0.98290  0.00950  0.69560  Biso   1.000  H
  H85      1.0000 0.61470  0.76110  0.02000  Biso   1.000  H
  H86      1.0000 0.57500  0.86970  0.94990  Biso   1.000  H
  H87      1.0000 0.73430  0.09350  0.02380  Biso   1.000  H
  H88      1.0000 0.77350  0.97280  0.08780  Biso   1.000  H
  H89      1.0000 0.63580  0.29440  0.91930  Biso   1.000  H
  H90      1.0000 0.59960  0.21000  0.88140  Biso   1.000  H
  H91      1.0000 0.79190  0.35930  0.81680  Biso   1.000  H
  H92      1.0000 0.71420  0.40070  0.85700  Biso   1.000  H
  H93      1.0000 0.51800  0.21400  0.76440  Biso   1.000  H
  H94      1.0000 0.38080  0.16770  0.71220  Biso   1.000  H
  H95      1.0000 0.38190  0.43890  0.64590  Biso   1.000  H
  H96      1.0000 0.51710  0.49050  0.69560  Biso   1.000  H
  C59      1.0000 0.17100  0.14100  0.51980  Biso   1.000  C
  C60      1.0000 0.10700  0.11500  0.47790  Biso   1.000  C
  C61      1.0000 0.00600  0.15300  0.48010  Biso   1.000  C
  C62      1.0000 0.97500  0.21000  0.52110  Biso   1.000  C
  C63      1.0000 0.04800  0.23200  0.55950  Biso   1.000  C
  C64      1.0000 0.93700  0.13100  0.43490  Biso   1.000  C
  C65      1.0000 0.76800  0.15400  0.40280  Biso   1.000  C
  C66      1.0000 0.65600  0.23200  0.33620  Biso   1.000  C
  C67      1.0000 0.61000  0.11500  0.26910  Biso   1.000  C
  C68      1.0000 0.64100  0.03100  0.23650  Biso   1.000  C
  C69      1.0000 0.73800  0.99000  0.24050  Biso   1.000  C
  C70      1.0000 0.76500  0.90900  0.20900  Biso   1.000  C
  C71      1.0000 0.60800  0.90900  0.17040  Biso   1.000  C
  C72      1.0000 0.57600  0.99000  0.20000  Biso   1.000  C
  C73      1.0000 0.32900  0.35900  0.51980  Biso   1.000  C
  C74      1.0000 0.39300  0.38500  0.47790  Biso   1.000  C
  C75      1.0000 0.49400  0.34700  0.48010  Biso   1.000  C
  C76      1.0000 0.52500  0.29000  0.52110  Biso   1.000  C
  C77      1.0000 0.45200  0.26800  0.55950  Biso   1.000  C
  C78      1.0000 0.56300  0.36900  0.43490  Biso   1.000  C
  C79      1.0000 0.73200  0.34600  0.40280  Biso   1.000  C
  C80      1.0000 0.84400  0.26800  0.33620  Biso   1.000  C
  C81      1.0000 0.89000  0.38500  0.26910  Biso   1.000  C
  C82      1.0000 0.85900  0.46900  0.23650  Biso   1.000  C
  C83      1.0000 0.76200  0.51000  0.24050  Biso   1.000  C
  C84      1.0000 0.73500  0.59100  0.20900  Biso   1.000  C
  C85      1.0000 0.89200  0.59100  0.17040  Biso   1.000  C
  C86      1.0000 0.92400  0.51000  0.20000  Biso   1.000  C
  C87      1.0000 0.85900  0.67100  0.01980  Biso   1.000  C
  C88      1.0000 0.88500  0.60700  0.97790  Biso   1.000  C
  C89      1.0000 0.84700  0.50600  0.98010  Biso   1.000  C
  C90      1.0000 0.79000  0.47500  0.02110  Biso   1.000  C
  C91      1.0000 0.76800  0.54800  0.05950  Biso   1.000  C
  C92      1.0000 0.86900  0.43700  0.93490  Biso   1.000  C
  C93      1.0000 0.84600  0.26800  0.90280  Biso   1.000  C
  C94      1.0000 0.76800  0.15600  0.83620  Biso   1.000  C
  C95      1.0000 0.88500  0.11000  0.76910  Biso   1.000  C
  C96      1.0000 0.96900  0.14100  0.73650  Biso   1.000  C
  C97      1.0000 0.01000  0.23800  0.74050  Biso   1.000  C
  C98      1.0000 0.09100  0.26500  0.70900  Biso   1.000  C
  C99      1.0000 0.09100  0.10800  0.67040  Biso   1.000  C
  C100     1.0000 0.01000  0.07600  0.70000  Biso   1.000  C
  C101     1.0000 0.64100  0.82900  0.01980  Biso   1.000  C
  C102     1.0000 0.61500  0.89300  0.97790  Biso   1.000  C
  C103     1.0000 0.65300  0.99400  0.98010  Biso   1.000  C
  C104     1.0000 0.71000  0.02500  0.02110  Biso   1.000  C
  C105     1.0000 0.73200  0.95200  0.05950  Biso   1.000  C
  C106     1.0000 0.63100  0.06300  0.93490  Biso   1.000  C
  C107     1.0000 0.65400  0.23200  0.90280  Biso   1.000  C
  C108     1.0000 0.73200  0.34400  0.83620  Biso   1.000  C
  C109     1.0000 0.61500  0.39000  0.76910  Biso   1.000  C
  C110     1.0000 0.53100  0.35900  0.73650  Biso   1.000  C
  C111     1.0000 0.49000  0.26200  0.74050  Biso   1.000  C
  C112     1.0000 0.40900  0.23500  0.70900  Biso   1.000  C
  C113     1.0000 0.40900  0.39200  0.67040  Biso   1.000  C
  C114     1.0000 0.49000  0.42400  0.70000  Biso   1.000  C
  C115     1.0000 0.75000  0.25000  0.36940  Biso   1.000  C
  C116     1.0000 0.75000  0.25000  0.86940  Biso   1.000  C
  N9       1.0000 0.14300  0.20000  0.55900  Biso   1.000  N
  N10      1.0000 0.70200  0.86700  0.17440  Biso   1.000  N
  N11      1.0000 0.35700  0.30000  0.55900  Biso   1.000  N
  N12      1.0000 0.79800  0.63300  0.17440  Biso   1.000  N
  N13      1.0000 0.80000  0.64300  0.05900  Biso   1.000  N
  N14      1.0000 0.13300  0.20200  0.67440  Biso   1.000  N
  N15      1.0000 0.70000  0.85700  0.05900  Biso   1.000  N
  N16      1.0000 0.36700  0.29800  0.67440  Biso   1.000  N
  Cl5      1.0000 0.32780  0.08240  0.61900  Biso   1.000  Cl
  Cl6      1.0000 0.17220  0.41760  0.61900  Biso   1.000  Cl
  Cl7      1.0000 0.91760  0.82780  0.11900  Biso   1.000  Cl
  Cl8      1.0000 0.58240  0.67220  0.11900  Biso   1.000  Cl
  O17      1.0000 0.96300  0.08000  0.39890  Biso   1.000  O
  O18      1.0000 0.84590  0.17450  0.44210  Biso   1.000  O
  O19      1.0000 0.68290  0.14910  0.30230  Biso   1.000  O
  O20      1.0000 0.52600  0.15500  0.26770  Biso   1.000  O
  O21      1.0000 0.53700  0.42000  0.39890  Biso   1.000  O
  O22      1.0000 0.65410  0.32550  0.44210  Biso   1.000  O
  O23      1.0000 0.81710  0.35090  0.30230  Biso   1.000  O
  O24      1.0000 0.97400  0.34500  0.26770  Biso   1.000  O
  O25      1.0000 0.92000  0.46300  0.89890  Biso   1.000  O
  O26      1.0000 0.82550  0.34590  0.94210  Biso   1.000  O
  O27      1.0000 0.85090  0.18290  0.80230  Biso   1.000  O
  O28      1.0000 0.84500  0.02600  0.76770  Biso   1.000  O
  O29      1.0000 0.58000  0.03700  0.89890  Biso   1.000  O
  O30      1.0000 0.67450  0.15410  0.94210  Biso   1.000  O
  O31      1.0000 0.64910  0.31710  0.80230  Biso   1.000  O
  O32      1.0000 0.65500  0.47400  0.76770  Biso   1.000  O
