data_image0
_cell_length_a       8.4517
_cell_length_b       25.326
_cell_length_c       17.748
_cell_angle_alpha    90
_cell_angle_beta     90
_cell_angle_gamma    90

_symmetry_space_group_name_H-M    P 1
_symmetry_int_tables_number       1

loop_
  _symmetry_equiv_pos_as_xyz
  'x, y, z'

loop_
  _atom_site_label
  _atom_site_occupancy
  _atom_site_fract_x
  _atom_site_fract_y
  _atom_site_fract_z
  _atom_site_thermal_displace_type
  _atom_site_B_iso_or_equiv
  _atom_site_type_symbol
  Dy1      1.0000 0.66544  0.47616  0.78230  Biso   1.000  Dy
  Dy2      1.0000 0.16544  0.52384  0.71770  Biso   1.000  Dy
  Dy3      1.0000 0.16544  0.97616  0.21769  Biso   1.000  Dy
  Dy4      1.0000 0.66544  0.02384  0.28230  Biso   1.000  Dy
  Ag1      1.0000 0.46203  0.22732  0.55003  Biso   1.000  Ag
  Ag2      1.0000 0.96203  0.77268  0.94997  Biso   1.000  Ag
  Ag3      1.0000 0.96203  0.72732  0.44997  Biso   1.000  Ag
  Ag4      1.0000 0.46203  0.27268  0.05003  Biso   1.000  Ag
  H1       1.0000 0.05900  0.40400  0.14250  Biso   1.000  H
  H2       1.0000 0.71290  0.37100  0.39420  Biso   1.000  H
  H3       1.0000 0.96440  0.45510  0.00790  Biso   1.000  H
  H4       1.0000 0.24860  0.33910  0.17440  Biso   1.000  H
  H5       1.0000 0.40270  0.36110  0.91780  Biso   1.000  H
  H6       1.0000 0.69170  0.29810  0.66000  Biso   1.000  H
  H7       1.0000 0.55300  0.29580  0.40030  Biso   1.000  H
  H8       1.0000 0.88050  0.43420  0.50290  Biso   1.000  H
  H9       1.0000 0.55900  0.59600  0.35750  Biso   1.000  H
  H10      1.0000 0.21290  0.62900  0.10580  Biso   1.000  H
  H11      1.0000 0.46440  0.54490  0.49210  Biso   1.000  H
  H12      1.0000 0.74860  0.66090  0.32560  Biso   1.000  H
  H13      1.0000 0.90270  0.63890  0.58220  Biso   1.000  H
  H14      1.0000 0.19170  0.70190  0.84000  Biso   1.000  H
  H15      1.0000 0.05300  0.70420  0.09970  Biso   1.000  H
  H16      1.0000 0.38050  0.56580  0.99710  Biso   1.000  H
  H17      1.0000 0.55900  0.90400  0.85750  Biso   1.000  H
  H18      1.0000 0.21290  0.87100  0.60580  Biso   1.000  H
  H19      1.0000 0.46440  0.95510  0.99210  Biso   1.000  H
  H20      1.0000 0.74860  0.83910  0.82560  Biso   1.000  H
  H21      1.0000 0.90270  0.86110  0.08220  Biso   1.000  H
  H22      1.0000 0.19170  0.79810  0.34000  Biso   1.000  H
  H23      1.0000 0.05300  0.79580  0.59970  Biso   1.000  H
  H24      1.0000 0.38050  0.93420  0.49710  Biso   1.000  H
  H25      1.0000 0.05900  0.09600  0.64250  Biso   1.000  H
  H26      1.0000 0.71290  0.12900  0.89420  Biso   1.000  H
  H27      1.0000 0.96440  0.04490  0.50790  Biso   1.000  H
  H28      1.0000 0.24860  0.16090  0.67440  Biso   1.000  H
  H29      1.0000 0.40270  0.13890  0.41780  Biso   1.000  H
  H30      1.0000 0.69170  0.20190  0.16000  Biso   1.000  H
  H31      1.0000 0.55300  0.20420  0.90030  Biso   1.000  H
  H32      1.0000 0.88050  0.06580  0.00290  Biso   1.000  H
  C1       1.0000 0.01030  0.48246  0.87069  Biso   1.000  C
  C2       1.0000 0.10570  0.44443  0.91661  Biso   1.000  C
  C3       1.0000 0.05360  0.43753  0.99017  Biso   1.000  C
  C4       1.0000 0.13880  0.40364  0.03630  Biso   1.000  C
  C5       1.0000 0.23340  0.35368  0.12680  Biso   1.000  C
  C6       1.0000 0.26210  0.37280  0.00850  Biso   1.000  C
  C7       1.0000 0.31710  0.38033  0.93600  Biso   1.000  C
  C8       1.0000 0.24170  0.41723  0.89108  Biso   1.000  C
  C9       1.0000 0.30980  0.42622  0.81350  Biso   1.000  C
  C10      1.0000 0.84930  0.36563  0.74210  Biso   1.000  C
  C11      1.0000 0.81160  0.36774  0.65900  Biso   1.000  C
  C12      1.0000 0.72540  0.32570  0.62935  Biso   1.000  C
  C13      1.0000 0.69130  0.32604  0.55290  Biso   1.000  C
  C14      1.0000 0.60520  0.31113  0.44090  Biso   1.000  C
  C15      1.0000 0.75060  0.36570  0.50520  Biso   1.000  C
  C16      1.0000 0.84070  0.40792  0.53430  Biso   1.000  C
  C17      1.0000 0.86770  0.40890  0.61140  Biso   1.000  C
  C18      1.0000 0.95220  0.45430  0.64480  Biso   1.000  C
  C19      1.0000 0.51030  0.51754  0.62931  Biso   1.000  C
  C20      1.0000 0.60570  0.55557  0.58339  Biso   1.000  C
  C21      1.0000 0.55360  0.56247  0.50983  Biso   1.000  C
  C22      1.0000 0.63880  0.59636  0.46370  Biso   1.000  C
  C23      1.0000 0.73340  0.64632  0.37320  Biso   1.000  C
  C24      1.0000 0.76210  0.62720  0.49150  Biso   1.000  C
  C25      1.0000 0.81710  0.61967  0.56400  Biso   1.000  C
  C26      1.0000 0.74170  0.58277  0.60892  Biso   1.000  C
  C27      1.0000 0.80980  0.57378  0.68650  Biso   1.000  C
  C28      1.0000 0.34930  0.63437  0.75790  Biso   1.000  C
  C29      1.0000 0.31160  0.63226  0.84100  Biso   1.000  C
  C30      1.0000 0.22540  0.67430  0.87065  Biso   1.000  C
  C31      1.0000 0.19130  0.67396  0.94710  Biso   1.000  C
  C32      1.0000 0.10520  0.68887  0.05910  Biso   1.000  C
  C33      1.0000 0.25060  0.63430  0.99480  Biso   1.000  C
  C34      1.0000 0.34070  0.59208  0.96570  Biso   1.000  C
  C35      1.0000 0.36770  0.59110  0.88860  Biso   1.000  C
  C36      1.0000 0.45220  0.54570  0.85520  Biso   1.000  C
  C37      1.0000 0.51030  0.98246  0.12931  Biso   1.000  C
  C38      1.0000 0.60570  0.94443  0.08339  Biso   1.000  C
  C39      1.0000 0.55360  0.93753  0.00983  Biso   1.000  C
  C40      1.0000 0.63880  0.90364  0.96370  Biso   1.000  C
  C41      1.0000 0.73340  0.85368  0.87320  Biso   1.000  C
  C42      1.0000 0.76210  0.87280  0.99150  Biso   1.000  C
  C43      1.0000 0.81710  0.88033  0.06400  Biso   1.000  C
  C44      1.0000 0.74170  0.91723  0.10892  Biso   1.000  C
  C45      1.0000 0.80980  0.92622  0.18650  Biso   1.000  C
  C46      1.0000 0.34930  0.86563  0.25790  Biso   1.000  C
  C47      1.0000 0.31160  0.86774  0.34100  Biso   1.000  C
  C48      1.0000 0.22540  0.82570  0.37065  Biso   1.000  C
  C49      1.0000 0.19130  0.82604  0.44710  Biso   1.000  C
  C50      1.0000 0.10520  0.81113  0.55910  Biso   1.000  C
  C51      1.0000 0.25060  0.86570  0.49480  Biso   1.000  C
  C52      1.0000 0.34070  0.90792  0.46570  Biso   1.000  C
  C53      1.0000 0.36770  0.90890  0.38860  Biso   1.000  C
  C54      1.0000 0.45220  0.95430  0.35520  Biso   1.000  C
  C55      1.0000 0.01030  0.01754  0.37069  Biso   1.000  C
  C56      1.0000 0.10570  0.05557  0.41661  Biso   1.000  C
  C57      1.0000 0.05360  0.06247  0.49017  Biso   1.000  C
  C58      1.0000 0.13880  0.09636  0.53630  Biso   1.000  C
  C59      1.0000 0.23340  0.14632  0.62680  Biso   1.000  C
  C60      1.0000 0.26210  0.12720  0.50850  Biso   1.000  C
  C61      1.0000 0.31710  0.11967  0.43600  Biso   1.000  C
  C62      1.0000 0.24170  0.08277  0.39108  Biso   1.000  C
  C63      1.0000 0.30980  0.07378  0.31350  Biso   1.000  C
  C64      1.0000 0.84930  0.13437  0.24210  Biso   1.000  C
  C65      1.0000 0.81160  0.13226  0.15900  Biso   1.000  C
  C66      1.0000 0.72540  0.17430  0.12935  Biso   1.000  C
  C67      1.0000 0.69130  0.17396  0.05290  Biso   1.000  C
  C68      1.0000 0.60520  0.18887  0.94090  Biso   1.000  C
  C69      1.0000 0.75060  0.13430  0.00520  Biso   1.000  C
  C70      1.0000 0.84070  0.09208  0.03430  Biso   1.000  C
  C71      1.0000 0.86770  0.09110  0.11140  Biso   1.000  C
  C72      1.0000 0.95220  0.04570  0.14480  Biso   1.000  C
  N1       1.0000 0.12540  0.39066  0.11113  Biso   1.000  N
  N2       1.0000 0.31650  0.34021  0.06603  Biso   1.000  N
  N3       1.0000 0.59770  0.29215  0.51054  Biso   1.000  N
  N4       1.0000 0.69400  0.35377  0.43495  Biso   1.000  N
  N5       1.0000 0.62540  0.60934  0.38887  Biso   1.000  N
  N6       1.0000 0.81650  0.65979  0.43397  Biso   1.000  N
  N7       1.0000 0.09770  0.70785  0.98946  Biso   1.000  N
  N8       1.0000 0.19400  0.64623  0.06505  Biso   1.000  N
  N9       1.0000 0.62540  0.89066  0.88887  Biso   1.000  N
  N10      1.0000 0.81650  0.84021  0.93397  Biso   1.000  N
  N11      1.0000 0.09770  0.79215  0.48946  Biso   1.000  N
  N12      1.0000 0.19400  0.85377  0.56505  Biso   1.000  N
  N13      1.0000 0.12540  0.10934  0.61113  Biso   1.000  N
  N14      1.0000 0.31650  0.15979  0.56603  Biso   1.000  N
  N15      1.0000 0.59770  0.20785  0.01054  Biso   1.000  N
  N16      1.0000 0.69400  0.14623  0.93495  Biso   1.000  N
  O1       1.0000 0.86470  0.47572  0.87117  Biso   1.000  O
  O2       1.0000 0.07750  0.52186  0.83891  Biso   1.000  O
  O3       1.0000 0.22260  0.44061  0.75981  Biso   1.000  O
  O4       1.0000 0.45790  0.41927  0.80714  Biso   1.000  O
  O5       1.0000 0.74980  0.38950  0.78555  Biso   1.000  O
  O6       1.0000 0.96010  0.33926  0.76506  Biso   1.000  O
  O7       1.0000 0.91220  0.46974  0.71108  Biso   1.000  O
  O8       1.0000 0.06350  0.47635  0.61143  Biso   1.000  O
  O9       1.0000 0.36470  0.52428  0.62883  Biso   1.000  O
  O10      1.0000 0.57750  0.47814  0.66109  Biso   1.000  O
  O11      1.0000 0.72260  0.55939  0.74019  Biso   1.000  O
  O12      1.0000 0.95790  0.58073  0.69286  Biso   1.000  O
  O13      1.0000 0.24980  0.61050  0.71445  Biso   1.000  O
  O14      1.0000 0.46010  0.66074  0.73494  Biso   1.000  O
  O15      1.0000 0.41220  0.53026  0.78892  Biso   1.000  O
  O16      1.0000 0.56350  0.52365  0.88857  Biso   1.000  O
  O17      1.0000 0.36470  0.97572  0.12883  Biso   1.000  O
  O18      1.0000 0.57750  0.02186  0.16109  Biso   1.000  O
  O19      1.0000 0.72260  0.94061  0.24019  Biso   1.000  O
  O20      1.0000 0.95790  0.91927  0.19286  Biso   1.000  O
  O21      1.0000 0.24980  0.88950  0.21445  Biso   1.000  O
  O22      1.0000 0.46010  0.83926  0.23494  Biso   1.000  O
  O23      1.0000 0.41220  0.96974  0.28892  Biso   1.000  O
  O24      1.0000 0.56350  0.97635  0.38857  Biso   1.000  O
  O25      1.0000 0.86470  0.02428  0.37117  Biso   1.000  O
  O26      1.0000 0.07750  0.97814  0.33891  Biso   1.000  O
  O27      1.0000 0.22260  0.05939  0.25981  Biso   1.000  O
  O28      1.0000 0.45790  0.08073  0.30714  Biso   1.000  O
  O29      1.0000 0.74980  0.11050  0.28555  Biso   1.000  O
  O30      1.0000 0.96010  0.16074  0.26506  Biso   1.000  O
  O31      1.0000 0.91220  0.03026  0.21108  Biso   1.000  O
  O32      1.0000 0.06350  0.02365  0.11143  Biso   1.000  O
  Dy5      1.0000 0.83456  0.02384  0.78230  Biso   1.000  Dy
  Dy6      1.0000 0.33456  0.97616  0.71770  Biso   1.000  Dy
  Dy7      1.0000 0.33456  0.52384  0.21769  Biso   1.000  Dy
  Dy8      1.0000 0.83456  0.47616  0.28230  Biso   1.000  Dy
  Ag5      1.0000 0.03797  0.27268  0.55003  Biso   1.000  Ag
  Ag6      1.0000 0.53797  0.72732  0.94997  Biso   1.000  Ag
  Ag7      1.0000 0.53797  0.77268  0.44997  Biso   1.000  Ag
  Ag8      1.0000 0.03797  0.22732  0.05003  Biso   1.000  Ag
  H33      1.0000 0.44100  0.09600  0.14250  Biso   1.000  H
  H34      1.0000 0.78710  0.12900  0.39420  Biso   1.000  H
  H35      1.0000 0.53560  0.04490  0.00790  Biso   1.000  H
  H36      1.0000 0.25140  0.16090  0.17440  Biso   1.000  H
  H37      1.0000 0.09730  0.13890  0.91780  Biso   1.000  H
  H38      1.0000 0.80830  0.20190  0.66000  Biso   1.000  H
  H39      1.0000 0.94700  0.20420  0.40030  Biso   1.000  H
  H40      1.0000 0.61950  0.06580  0.50290  Biso   1.000  H
  H41      1.0000 0.94100  0.90400  0.35750  Biso   1.000  H
  H42      1.0000 0.28710  0.87100  0.10580  Biso   1.000  H
  H43      1.0000 0.03560  0.95510  0.49210  Biso   1.000  H
  H44      1.0000 0.75140  0.83910  0.32560  Biso   1.000  H
  H45      1.0000 0.59730  0.86110  0.58220  Biso   1.000  H
  H46      1.0000 0.30830  0.79810  0.84000  Biso   1.000  H
  H47      1.0000 0.44700  0.79580  0.09970  Biso   1.000  H
  H48      1.0000 0.11950  0.93420  0.99710  Biso   1.000  H
  H49      1.0000 0.94100  0.59600  0.85750  Biso   1.000  H
  H50      1.0000 0.28710  0.62900  0.60580  Biso   1.000  H
  H51      1.0000 0.03560  0.54490  0.99210  Biso   1.000  H
  H52      1.0000 0.75140  0.66090  0.82560  Biso   1.000  H
  H53      1.0000 0.59730  0.63890  0.08220  Biso   1.000  H
  H54      1.0000 0.30830  0.70190  0.34000  Biso   1.000  H
  H55      1.0000 0.44700  0.70420  0.59970  Biso   1.000  H
  H56      1.0000 0.11950  0.56580  0.49710  Biso   1.000  H
  H57      1.0000 0.44100  0.40400  0.64250  Biso   1.000  H
  H58      1.0000 0.78710  0.37100  0.89420  Biso   1.000  H
  H59      1.0000 0.53560  0.45510  0.50790  Biso   1.000  H
  H60      1.0000 0.25140  0.33910  0.67440  Biso   1.000  H
  H61      1.0000 0.09730  0.36110  0.41780  Biso   1.000  H
  H62      1.0000 0.80830  0.29810  0.16000  Biso   1.000  H
  H63      1.0000 0.94700  0.29580  0.90030  Biso   1.000  H
  H64      1.0000 0.61950  0.43420  0.00290  Biso   1.000  H
  C73      1.0000 0.48970  0.01754  0.87069  Biso   1.000  C
  C74      1.0000 0.39430  0.05557  0.91661  Biso   1.000  C
  C75      1.0000 0.44640  0.06247  0.99017  Biso   1.000  C
  C76      1.0000 0.36120  0.09636  0.03630  Biso   1.000  C
  C77      1.0000 0.26660  0.14632  0.12680  Biso   1.000  C
  C78      1.0000 0.23790  0.12720  0.00850  Biso   1.000  C
  C79      1.0000 0.18290  0.11967  0.93600  Biso   1.000  C
  C80      1.0000 0.25830  0.08277  0.89108  Biso   1.000  C
  C81      1.0000 0.19020  0.07378  0.81350  Biso   1.000  C
  C82      1.0000 0.65070  0.13437  0.74210  Biso   1.000  C
  C83      1.0000 0.68840  0.13226  0.65900  Biso   1.000  C
  C84      1.0000 0.77460  0.17430  0.62935  Biso   1.000  C
  C85      1.0000 0.80870  0.17396  0.55290  Biso   1.000  C
  C86      1.0000 0.89480  0.18887  0.44090  Biso   1.000  C
  C87      1.0000 0.74940  0.13430  0.50520  Biso   1.000  C
  C88      1.0000 0.65930  0.09208  0.53430  Biso   1.000  C
  C89      1.0000 0.63230  0.09110  0.61140  Biso   1.000  C
  C90      1.0000 0.54780  0.04570  0.64480  Biso   1.000  C
  C91      1.0000 0.98970  0.98246  0.62931  Biso   1.000  C
  C92      1.0000 0.89430  0.94443  0.58339  Biso   1.000  C
  C93      1.0000 0.94640  0.93753  0.50983  Biso   1.000  C
  C94      1.0000 0.86120  0.90364  0.46370  Biso   1.000  C
  C95      1.0000 0.76660  0.85368  0.37320  Biso   1.000  C
  C96      1.0000 0.73790  0.87280  0.49150  Biso   1.000  C
  C97      1.0000 0.68290  0.88033  0.56400  Biso   1.000  C
  C98      1.0000 0.75830  0.91723  0.60892  Biso   1.000  C
  C99      1.0000 0.69020  0.92622  0.68650  Biso   1.000  C
  C100     1.0000 0.15070  0.86563  0.75790  Biso   1.000  C
  C101     1.0000 0.18840  0.86774  0.84100  Biso   1.000  C
  C102     1.0000 0.27460  0.82570  0.87065  Biso   1.000  C
  C103     1.0000 0.30870  0.82604  0.94710  Biso   1.000  C
  C104     1.0000 0.39480  0.81113  0.05910  Biso   1.000  C
  C105     1.0000 0.24940  0.86570  0.99480  Biso   1.000  C
  C106     1.0000 0.15930  0.90792  0.96570  Biso   1.000  C
  C107     1.0000 0.13230  0.90890  0.88860  Biso   1.000  C
  C108     1.0000 0.04780  0.95430  0.85520  Biso   1.000  C
  C109     1.0000 0.98970  0.51754  0.12931  Biso   1.000  C
  C110     1.0000 0.89430  0.55557  0.08339  Biso   1.000  C
  C111     1.0000 0.94640  0.56247  0.00983  Biso   1.000  C
  C112     1.0000 0.86120  0.59636  0.96370  Biso   1.000  C
  C113     1.0000 0.76660  0.64632  0.87320  Biso   1.000  C
  C114     1.0000 0.73790  0.62720  0.99150  Biso   1.000  C
  C115     1.0000 0.68290  0.61967  0.06400  Biso   1.000  C
  C116     1.0000 0.75830  0.58277  0.10892  Biso   1.000  C
  C117     1.0000 0.69020  0.57378  0.18650  Biso   1.000  C
  C118     1.0000 0.15070  0.63437  0.25790  Biso   1.000  C
  C119     1.0000 0.18840  0.63226  0.34100  Biso   1.000  C
  C120     1.0000 0.27460  0.67430  0.37065  Biso   1.000  C
  C121     1.0000 0.30870  0.67396  0.44710  Biso   1.000  C
  C122     1.0000 0.39480  0.68887  0.55910  Biso   1.000  C
  C123     1.0000 0.24940  0.63430  0.49480  Biso   1.000  C
  C124     1.0000 0.15930  0.59208  0.46570  Biso   1.000  C
  C125     1.0000 0.13230  0.59110  0.38860  Biso   1.000  C
  C126     1.0000 0.04780  0.54570  0.35520  Biso   1.000  C
  C127     1.0000 0.48970  0.48246  0.37069  Biso   1.000  C
  C128     1.0000 0.39430  0.44443  0.41661  Biso   1.000  C
  C129     1.0000 0.44640  0.43753  0.49017  Biso   1.000  C
  C130     1.0000 0.36120  0.40364  0.53630  Biso   1.000  C
  C131     1.0000 0.26660  0.35368  0.62680  Biso   1.000  C
  C132     1.0000 0.23790  0.37280  0.50850  Biso   1.000  C
  C133     1.0000 0.18290  0.38033  0.43600  Biso   1.000  C
  C134     1.0000 0.25830  0.41723  0.39108  Biso   1.000  C
  C135     1.0000 0.19020  0.42622  0.31350  Biso   1.000  C
  C136     1.0000 0.65070  0.36563  0.24210  Biso   1.000  C
  C137     1.0000 0.68840  0.36774  0.15900  Biso   1.000  C
  C138     1.0000 0.77460  0.32570  0.12935  Biso   1.000  C
  C139     1.0000 0.80870  0.32604  0.05290  Biso   1.000  C
  C140     1.0000 0.89480  0.31113  0.94090  Biso   1.000  C
  C141     1.0000 0.74940  0.36570  0.00520  Biso   1.000  C
  C142     1.0000 0.65930  0.40792  0.03430  Biso   1.000  C
  C143     1.0000 0.63230  0.40890  0.11140  Biso   1.000  C
  C144     1.0000 0.54780  0.45430  0.14480  Biso   1.000  C
  N17      1.0000 0.37460  0.10934  0.11113  Biso   1.000  N
  N18      1.0000 0.18350  0.15979  0.06603  Biso   1.000  N
  N19      1.0000 0.90230  0.20785  0.51054  Biso   1.000  N
  N20      1.0000 0.80600  0.14623  0.43495  Biso   1.000  N
  N21      1.0000 0.87460  0.89066  0.38887  Biso   1.000  N
  N22      1.0000 0.68350  0.84021  0.43397  Biso   1.000  N
  N23      1.0000 0.40230  0.79215  0.98946  Biso   1.000  N
  N24      1.0000 0.30600  0.85377  0.06505  Biso   1.000  N
  N25      1.0000 0.87460  0.60934  0.88887  Biso   1.000  N
  N26      1.0000 0.68350  0.65979  0.93397  Biso   1.000  N
  N27      1.0000 0.40230  0.70785  0.48946  Biso   1.000  N
  N28      1.0000 0.30600  0.64623  0.56505  Biso   1.000  N
  N29      1.0000 0.37460  0.39066  0.61113  Biso   1.000  N
  N30      1.0000 0.18350  0.34021  0.56603  Biso   1.000  N
  N31      1.0000 0.90230  0.29215  0.01054  Biso   1.000  N
  N32      1.0000 0.80600  0.35377  0.93495  Biso   1.000  N
  O33      1.0000 0.63530  0.02428  0.87117  Biso   1.000  O
  O34      1.0000 0.42250  0.97814  0.83891  Biso   1.000  O
  O35      1.0000 0.27740  0.05939  0.75981  Biso   1.000  O
  O36      1.0000 0.04210  0.08073  0.80714  Biso   1.000  O
  O37      1.0000 0.75020  0.11050  0.78555  Biso   1.000  O
  O38      1.0000 0.53990  0.16074  0.76506  Biso   1.000  O
  O39      1.0000 0.58780  0.03026  0.71108  Biso   1.000  O
  O40      1.0000 0.43650  0.02365  0.61143  Biso   1.000  O
  O41      1.0000 0.13530  0.97572  0.62883  Biso   1.000  O
  O42      1.0000 0.92250  0.02186  0.66109  Biso   1.000  O
  O43      1.0000 0.77740  0.94061  0.74019  Biso   1.000  O
  O44      1.0000 0.54210  0.91927  0.69286  Biso   1.000  O
  O45      1.0000 0.25020  0.88950  0.71445  Biso   1.000  O
  O46      1.0000 0.03990  0.83926  0.73494  Biso   1.000  O
  O47      1.0000 0.08780  0.96974  0.78892  Biso   1.000  O
  O48      1.0000 0.93650  0.97635  0.88857  Biso   1.000  O
  O49      1.0000 0.13530  0.52428  0.12883  Biso   1.000  O
  O50      1.0000 0.92250  0.47814  0.16109  Biso   1.000  O
  O51      1.0000 0.77740  0.55939  0.24019  Biso   1.000  O
  O52      1.0000 0.54210  0.58073  0.19286  Biso   1.000  O
  O53      1.0000 0.25020  0.61050  0.21445  Biso   1.000  O
  O54      1.0000 0.03990  0.66074  0.23494  Biso   1.000  O
  O55      1.0000 0.08780  0.53026  0.28892  Biso   1.000  O
  O56      1.0000 0.93650  0.52365  0.38857  Biso   1.000  O
  O57      1.0000 0.63530  0.47572  0.37117  Biso   1.000  O
  O58      1.0000 0.42250  0.52186  0.33891  Biso   1.000  O
  O59      1.0000 0.27740  0.44061  0.25981  Biso   1.000  O
  O60      1.0000 0.04210  0.41927  0.30714  Biso   1.000  O
  O61      1.0000 0.75020  0.38950  0.28555  Biso   1.000  O
  O62      1.0000 0.53990  0.33926  0.26506  Biso   1.000  O
  O63      1.0000 0.58780  0.46974  0.21108  Biso   1.000  O
  O64      1.0000 0.43650  0.47635  0.11143  Biso   1.000  O
