data_image0
_cell_length_a       8.4759
_cell_length_b       25.285
_cell_length_c       17.765
_cell_angle_alpha    90
_cell_angle_beta     90
_cell_angle_gamma    90

_symmetry_space_group_name_H-M    P 1
_symmetry_int_tables_number       1

loop_
  _symmetry_equiv_pos_as_xyz
  'x, y, z'

loop_
  _atom_site_label
  _atom_site_occupancy
  _atom_site_fract_x
  _atom_site_fract_y
  _atom_site_fract_z
  _atom_site_thermal_displace_type
  _atom_site_B_iso_or_equiv
  _atom_site_type_symbol
  Er1      1.0000 0.16669  0.02325  0.28237  Biso   1.000  Er
  Er2      1.0000 0.66669  0.97675  0.21763  Biso   1.000  Er
  Er3      1.0000 0.66669  0.52325  0.71763  Biso   1.000  Er
  Er4      1.0000 0.16669  0.47675  0.78237  Biso   1.000  Er
  Ag1      1.0000 0.46143  0.72767  0.45213  Biso   1.000  Ag
  Ag2      1.0000 0.96143  0.27233  0.04787  Biso   1.000  Ag
  Ag3      1.0000 0.96143  0.22767  0.54787  Biso   1.000  Ag
  Ag4      1.0000 0.46143  0.77233  0.95213  Biso   1.000  Ag
  H1       1.0000 0.68570  0.79820  0.34090  Biso   1.000  H
  H2       1.0000 0.56030  0.09660  0.64230  Biso   1.000  H
  H3       1.0000 0.74400  0.16370  0.67210  Biso   1.000  H
  H4       1.0000 0.89960  0.14060  0.41710  Biso   1.000  H
  H5       1.0000 0.46600  0.04510  0.50840  Biso   1.000  H
  H6       1.0000 0.72290  0.86950  0.60660  Biso   1.000  H
  H7       1.0000 0.88650  0.93270  0.49660  Biso   1.000  H
  H8       1.0000 0.55910  0.79440  0.60140  Biso   1.000  H
  H9       1.0000 0.18570  0.20180  0.15910  Biso   1.000  H
  H10      1.0000 0.06030  0.90340  0.85770  Biso   1.000  H
  H11      1.0000 0.24400  0.83630  0.82790  Biso   1.000  H
  H12      1.0000 0.39960  0.85940  0.08290  Biso   1.000  H
  H13      1.0000 0.96600  0.95490  0.99160  Biso   1.000  H
  H14      1.0000 0.22290  0.13050  0.89340  Biso   1.000  H
  H15      1.0000 0.38650  0.06730  0.00340  Biso   1.000  H
  H16      1.0000 0.05910  0.20560  0.89860  Biso   1.000  H
  H17      1.0000 0.18570  0.29820  0.65910  Biso   1.000  H
  H18      1.0000 0.06030  0.59660  0.35770  Biso   1.000  H
  H19      1.0000 0.24400  0.66370  0.32790  Biso   1.000  H
  H20      1.0000 0.39960  0.64060  0.58290  Biso   1.000  H
  H21      1.0000 0.96600  0.54510  0.49160  Biso   1.000  H
  H22      1.0000 0.22290  0.36950  0.39340  Biso   1.000  H
  H23      1.0000 0.38650  0.43270  0.50340  Biso   1.000  H
  H24      1.0000 0.05910  0.29440  0.39860  Biso   1.000  H
  H25      1.0000 0.68570  0.70180  0.84090  Biso   1.000  H
  H26      1.0000 0.56030  0.40340  0.14230  Biso   1.000  H
  H27      1.0000 0.74400  0.33630  0.17210  Biso   1.000  H
  H28      1.0000 0.89960  0.35940  0.91710  Biso   1.000  H
  H29      1.0000 0.46600  0.45490  0.00840  Biso   1.000  H
  H30      1.0000 0.72290  0.63050  0.10660  Biso   1.000  H
  H31      1.0000 0.88650  0.56730  0.99660  Biso   1.000  H
  H32      1.0000 0.55910  0.70560  0.10140  Biso   1.000  H
  C1       1.0000 0.95360  0.95330  0.35390  Biso   1.000  C
  C2       1.0000 0.86630  0.90770  0.38800  Biso   1.000  C
  C3       1.0000 0.80880  0.86630  0.34080  Biso   1.000  C
  C4       1.0000 0.72270  0.82550  0.37130  Biso   1.000  C
  C5       1.0000 0.84140  0.86390  0.25700  Biso   1.000  C
  C6       1.0000 0.51040  0.01760  0.37060  Biso   1.000  C
  C7       1.0000 0.81140  0.07330  0.31440  Biso   1.000  C
  C8       1.0000 0.74120  0.08360  0.38950  Biso   1.000  C
  C9       1.0000 0.73100  0.14820  0.62510  Biso   1.000  C
  C10      1.0000 0.81510  0.12080  0.43510  Biso   1.000  C
  C11      1.0000 0.60460  0.05600  0.41620  Biso   1.000  C
  C12      1.0000 0.63770  0.09670  0.53580  Biso   1.000  C
  C13      1.0000 0.55410  0.06292  0.49030  Biso   1.000  C
  C14      1.0000 0.84410  0.90680  0.46540  Biso   1.000  C
  C15      1.0000 0.69170  0.82560  0.44830  Biso   1.000  C
  C16      1.0000 0.75980  0.12782  0.50810  Biso   1.000  C
  C17      1.0000 0.75480  0.86510  0.49410  Biso   1.000  C
  C18      1.0000 0.61000  0.80980  0.56060  Biso   1.000  C
  C19      1.0000 0.45360  0.04670  0.14610  Biso   1.000  C
  C20      1.0000 0.36630  0.09230  0.11200  Biso   1.000  C
  C21      1.0000 0.30880  0.13370  0.15920  Biso   1.000  C
  C22      1.0000 0.22270  0.17450  0.12870  Biso   1.000  C
  C23      1.0000 0.34140  0.13610  0.24300  Biso   1.000  C
  C24      1.0000 0.01040  0.98240  0.12940  Biso   1.000  C
  C25      1.0000 0.31140  0.92670  0.18560  Biso   1.000  C
  C26      1.0000 0.24120  0.91640  0.11050  Biso   1.000  C
  C27      1.0000 0.23100  0.85180  0.87490  Biso   1.000  C
  C28      1.0000 0.31510  0.87920  0.06490  Biso   1.000  C
  C29      1.0000 0.10460  0.94400  0.08380  Biso   1.000  C
  C30      1.0000 0.13770  0.90330  0.96420  Biso   1.000  C
  C31      1.0000 0.05410  0.93708  0.00970  Biso   1.000  C
  C32      1.0000 0.34410  0.09320  0.03460  Biso   1.000  C
  C33      1.0000 0.19170  0.17440  0.05170  Biso   1.000  C
  C34      1.0000 0.25980  0.87218  0.99190  Biso   1.000  C
  C35      1.0000 0.25480  0.13490  0.00590  Biso   1.000  C
  C36      1.0000 0.11000  0.19020  0.93940  Biso   1.000  C
  C37      1.0000 0.45360  0.45330  0.64610  Biso   1.000  C
  C38      1.0000 0.36630  0.40770  0.61200  Biso   1.000  C
  C39      1.0000 0.30880  0.36630  0.65920  Biso   1.000  C
  C40      1.0000 0.22270  0.32550  0.62870  Biso   1.000  C
  C41      1.0000 0.34140  0.36390  0.74300  Biso   1.000  C
  C42      1.0000 0.01040  0.51760  0.62940  Biso   1.000  C
  C43      1.0000 0.31140  0.57330  0.68560  Biso   1.000  C
  C44      1.0000 0.24120  0.58360  0.61050  Biso   1.000  C
  C45      1.0000 0.23100  0.64820  0.37490  Biso   1.000  C
  C46      1.0000 0.31510  0.62080  0.56490  Biso   1.000  C
  C47      1.0000 0.10460  0.55600  0.58380  Biso   1.000  C
  C48      1.0000 0.13770  0.59670  0.46420  Biso   1.000  C
  C49      1.0000 0.05410  0.56292  0.50970  Biso   1.000  C
  C50      1.0000 0.34410  0.40680  0.53460  Biso   1.000  C
  C51      1.0000 0.19170  0.32560  0.55170  Biso   1.000  C
  C52      1.0000 0.25980  0.62782  0.49190  Biso   1.000  C
  C53      1.0000 0.25480  0.36510  0.50590  Biso   1.000  C
  C54      1.0000 0.11000  0.30980  0.43940  Biso   1.000  C
  C55      1.0000 0.95360  0.54670  0.85390  Biso   1.000  C
  C56      1.0000 0.86630  0.59230  0.88800  Biso   1.000  C
  C57      1.0000 0.80880  0.63370  0.84080  Biso   1.000  C
  C58      1.0000 0.72270  0.67450  0.87130  Biso   1.000  C
  C59      1.0000 0.84140  0.63610  0.75700  Biso   1.000  C
  C60      1.0000 0.51040  0.48240  0.87060  Biso   1.000  C
  C61      1.0000 0.81140  0.42670  0.81440  Biso   1.000  C
  C62      1.0000 0.74120  0.41640  0.88950  Biso   1.000  C
  C63      1.0000 0.73100  0.35180  0.12510  Biso   1.000  C
  C64      1.0000 0.81510  0.37920  0.93510  Biso   1.000  C
  C65      1.0000 0.60460  0.44400  0.91620  Biso   1.000  C
  C66      1.0000 0.63770  0.40330  0.03580  Biso   1.000  C
  C67      1.0000 0.55410  0.43708  0.99030  Biso   1.000  C
  C68      1.0000 0.84410  0.59320  0.96540  Biso   1.000  C
  C69      1.0000 0.69170  0.67440  0.94830  Biso   1.000  C
  C70      1.0000 0.75980  0.37218  0.00810  Biso   1.000  C
  C71      1.0000 0.75480  0.63490  0.99410  Biso   1.000  C
  C72      1.0000 0.61000  0.69020  0.06060  Biso   1.000  C
  N1       1.0000 0.62500  0.11018  0.61040  Biso   1.000  N
  N2       1.0000 0.70110  0.85262  0.56590  Biso   1.000  N
  N3       1.0000 0.59980  0.79167  0.49100  Biso   1.000  N
  N4       1.0000 0.81460  0.16127  0.56520  Biso   1.000  N
  N5       1.0000 0.12500  0.88982  0.88960  Biso   1.000  N
  N6       1.0000 0.20110  0.14738  0.93410  Biso   1.000  N
  N7       1.0000 0.09980  0.20833  0.00900  Biso   1.000  N
  N8       1.0000 0.31460  0.83873  0.93480  Biso   1.000  N
  N9       1.0000 0.12500  0.61018  0.38960  Biso   1.000  N
  N10      1.0000 0.20110  0.35262  0.43410  Biso   1.000  N
  N11      1.0000 0.09980  0.29167  0.50900  Biso   1.000  N
  N12      1.0000 0.31460  0.66127  0.43480  Biso   1.000  N
  N13      1.0000 0.62500  0.38982  0.11040  Biso   1.000  N
  N14      1.0000 0.70110  0.64738  0.06590  Biso   1.000  N
  N15      1.0000 0.59980  0.70833  0.99100  Biso   1.000  N
  N16      1.0000 0.81460  0.33873  0.06520  Biso   1.000  N
  O1       1.0000 0.91260  0.96930  0.28812  Biso   1.000  O
  O2       1.0000 0.06660  0.97445  0.38740  Biso   1.000  O
  O3       1.0000 0.74860  0.88984  0.21429  Biso   1.000  O
  O4       1.0000 0.94570  0.83570  0.23390  Biso   1.000  O
  O5       1.0000 0.36470  0.02368  0.37090  Biso   1.000  O
  O6       1.0000 0.95970  0.07910  0.30910  Biso   1.000  O
  O7       1.0000 0.57980  0.97880  0.33850  Biso   1.000  O
  O8       1.0000 0.72540  0.06010  0.25950  Biso   1.000  O
  O9       1.0000 0.41260  0.03070  0.21188  Biso   1.000  O
  O10      1.0000 0.56660  0.02555  0.11260  Biso   1.000  O
  O11      1.0000 0.24860  0.11016  0.28571  Biso   1.000  O
  O12      1.0000 0.44570  0.16430  0.26610  Biso   1.000  O
  O13      1.0000 0.86470  0.97632  0.12910  Biso   1.000  O
  O14      1.0000 0.45970  0.92090  0.19090  Biso   1.000  O
  O15      1.0000 0.07980  0.02120  0.16150  Biso   1.000  O
  O16      1.0000 0.22540  0.93990  0.24050  Biso   1.000  O
  O17      1.0000 0.41260  0.46930  0.71188  Biso   1.000  O
  O18      1.0000 0.56660  0.47445  0.61260  Biso   1.000  O
  O19      1.0000 0.24860  0.38984  0.78571  Biso   1.000  O
  O20      1.0000 0.44570  0.33570  0.76610  Biso   1.000  O
  O21      1.0000 0.86470  0.52368  0.62910  Biso   1.000  O
  O22      1.0000 0.45970  0.57910  0.69090  Biso   1.000  O
  O23      1.0000 0.07980  0.47880  0.66150  Biso   1.000  O
  O24      1.0000 0.22540  0.56010  0.74050  Biso   1.000  O
  O25      1.0000 0.91260  0.53070  0.78812  Biso   1.000  O
  O26      1.0000 0.06660  0.52555  0.88740  Biso   1.000  O
  O27      1.0000 0.74860  0.61016  0.71429  Biso   1.000  O
  O28      1.0000 0.94570  0.66430  0.73390  Biso   1.000  O
  O29      1.0000 0.36470  0.47632  0.87090  Biso   1.000  O
  O30      1.0000 0.95970  0.42090  0.80910  Biso   1.000  O
  O31      1.0000 0.57980  0.52120  0.83850  Biso   1.000  O
  O32      1.0000 0.72540  0.43990  0.75950  Biso   1.000  O
  Er5      1.0000 0.33331  0.47675  0.28237  Biso   1.000  Er
  Er6      1.0000 0.83331  0.52325  0.21763  Biso   1.000  Er
  Er7      1.0000 0.83331  0.97675  0.71763  Biso   1.000  Er
  Er8      1.0000 0.33331  0.02325  0.78237  Biso   1.000  Er
  Ag5      1.0000 0.03857  0.77233  0.45213  Biso   1.000  Ag
  Ag6      1.0000 0.53857  0.22767  0.04787  Biso   1.000  Ag
  Ag7      1.0000 0.53857  0.27233  0.54787  Biso   1.000  Ag
  Ag8      1.0000 0.03857  0.72767  0.95213  Biso   1.000  Ag
  H33      1.0000 0.81430  0.70180  0.34090  Biso   1.000  H
  H34      1.0000 0.93970  0.40340  0.64230  Biso   1.000  H
  H35      1.0000 0.75600  0.33630  0.67210  Biso   1.000  H
  H36      1.0000 0.60040  0.35940  0.41710  Biso   1.000  H
  H37      1.0000 0.03400  0.45490  0.50840  Biso   1.000  H
  H38      1.0000 0.77710  0.63050  0.60660  Biso   1.000  H
  H39      1.0000 0.61350  0.56730  0.49660  Biso   1.000  H
  H40      1.0000 0.94090  0.70560  0.60140  Biso   1.000  H
  H41      1.0000 0.31430  0.29820  0.15910  Biso   1.000  H
  H42      1.0000 0.43970  0.59660  0.85770  Biso   1.000  H
  H43      1.0000 0.25600  0.66370  0.82790  Biso   1.000  H
  H44      1.0000 0.10040  0.64060  0.08290  Biso   1.000  H
  H45      1.0000 0.53400  0.54510  0.99160  Biso   1.000  H
  H46      1.0000 0.27710  0.36950  0.89340  Biso   1.000  H
  H47      1.0000 0.11350  0.43270  0.00340  Biso   1.000  H
  H48      1.0000 0.44090  0.29440  0.89860  Biso   1.000  H
  H49      1.0000 0.31430  0.20180  0.65910  Biso   1.000  H
  H50      1.0000 0.43970  0.90340  0.35770  Biso   1.000  H
  H51      1.0000 0.25600  0.83630  0.32790  Biso   1.000  H
  H52      1.0000 0.10040  0.85940  0.58290  Biso   1.000  H
  H53      1.0000 0.53400  0.95490  0.49160  Biso   1.000  H
  H54      1.0000 0.27710  0.13050  0.39340  Biso   1.000  H
  H55      1.0000 0.11350  0.06730  0.50340  Biso   1.000  H
  H56      1.0000 0.44090  0.20560  0.39860  Biso   1.000  H
  H57      1.0000 0.81430  0.79820  0.84090  Biso   1.000  H
  H58      1.0000 0.93970  0.09660  0.14230  Biso   1.000  H
  H59      1.0000 0.75600  0.16370  0.17210  Biso   1.000  H
  H60      1.0000 0.60040  0.14060  0.91710  Biso   1.000  H
  H61      1.0000 0.03400  0.04510  0.00840  Biso   1.000  H
  H62      1.0000 0.77710  0.86950  0.10660  Biso   1.000  H
  H63      1.0000 0.61350  0.93270  0.99660  Biso   1.000  H
  H64      1.0000 0.94090  0.79440  0.10140  Biso   1.000  H
  C73      1.0000 0.54640  0.54670  0.35390  Biso   1.000  C
  C74      1.0000 0.63370  0.59230  0.38800  Biso   1.000  C
  C75      1.0000 0.69120  0.63370  0.34080  Biso   1.000  C
  C76      1.0000 0.77730  0.67450  0.37130  Biso   1.000  C
  C77      1.0000 0.65860  0.63610  0.25700  Biso   1.000  C
  C78      1.0000 0.98960  0.48240  0.37060  Biso   1.000  C
  C79      1.0000 0.68860  0.42670  0.31440  Biso   1.000  C
  C80      1.0000 0.75880  0.41640  0.38950  Biso   1.000  C
  C81      1.0000 0.76900  0.35180  0.62510  Biso   1.000  C
  C82      1.0000 0.68490  0.37920  0.43510  Biso   1.000  C
  C83      1.0000 0.89540  0.44400  0.41620  Biso   1.000  C
  C84      1.0000 0.86230  0.40330  0.53580  Biso   1.000  C
  C85      1.0000 0.94590  0.43708  0.49030  Biso   1.000  C
  C86      1.0000 0.65590  0.59320  0.46540  Biso   1.000  C
  C87      1.0000 0.80830  0.67440  0.44830  Biso   1.000  C
  C88      1.0000 0.74020  0.37218  0.50810  Biso   1.000  C
  C89      1.0000 0.74520  0.63490  0.49410  Biso   1.000  C
  C90      1.0000 0.89000  0.69020  0.56060  Biso   1.000  C
  C91      1.0000 0.04640  0.45330  0.14610  Biso   1.000  C
  C92      1.0000 0.13370  0.40770  0.11200  Biso   1.000  C
  C93      1.0000 0.19120  0.36630  0.15920  Biso   1.000  C
  C94      1.0000 0.27730  0.32550  0.12870  Biso   1.000  C
  C95      1.0000 0.15860  0.36390  0.24300  Biso   1.000  C
  C96      1.0000 0.48960  0.51760  0.12940  Biso   1.000  C
  C97      1.0000 0.18860  0.57330  0.18560  Biso   1.000  C
  C98      1.0000 0.25880  0.58360  0.11050  Biso   1.000  C
  C99      1.0000 0.26900  0.64820  0.87490  Biso   1.000  C
  C100     1.0000 0.18490  0.62080  0.06490  Biso   1.000  C
  C101     1.0000 0.39540  0.55600  0.08380  Biso   1.000  C
  C102     1.0000 0.36230  0.59670  0.96420  Biso   1.000  C
  C103     1.0000 0.44590  0.56292  0.00970  Biso   1.000  C
  C104     1.0000 0.15590  0.40680  0.03460  Biso   1.000  C
  C105     1.0000 0.30830  0.32560  0.05170  Biso   1.000  C
  C106     1.0000 0.24020  0.62782  0.99190  Biso   1.000  C
  C107     1.0000 0.24520  0.36510  0.00590  Biso   1.000  C
  C108     1.0000 0.39000  0.30980  0.93940  Biso   1.000  C
  C109     1.0000 0.04640  0.04670  0.64610  Biso   1.000  C
  C110     1.0000 0.13370  0.09230  0.61200  Biso   1.000  C
  C111     1.0000 0.19120  0.13370  0.65920  Biso   1.000  C
  C112     1.0000 0.27730  0.17450  0.62870  Biso   1.000  C
  C113     1.0000 0.15860  0.13610  0.74300  Biso   1.000  C
  C114     1.0000 0.48960  0.98240  0.62940  Biso   1.000  C
  C115     1.0000 0.18860  0.92670  0.68560  Biso   1.000  C
  C116     1.0000 0.25880  0.91640  0.61050  Biso   1.000  C
  C117     1.0000 0.26900  0.85180  0.37490  Biso   1.000  C
  C118     1.0000 0.18490  0.87920  0.56490  Biso   1.000  C
  C119     1.0000 0.39540  0.94400  0.58380  Biso   1.000  C
  C120     1.0000 0.36230  0.90330  0.46420  Biso   1.000  C
  C121     1.0000 0.44590  0.93708  0.50970  Biso   1.000  C
  C122     1.0000 0.15590  0.09320  0.53460  Biso   1.000  C
  C123     1.0000 0.30830  0.17440  0.55170  Biso   1.000  C
  C124     1.0000 0.24020  0.87218  0.49190  Biso   1.000  C
  C125     1.0000 0.24520  0.13490  0.50590  Biso   1.000  C
  C126     1.0000 0.39000  0.19020  0.43940  Biso   1.000  C
  C127     1.0000 0.54640  0.95330  0.85390  Biso   1.000  C
  C128     1.0000 0.63370  0.90770  0.88800  Biso   1.000  C
  C129     1.0000 0.69120  0.86630  0.84080  Biso   1.000  C
  C130     1.0000 0.77730  0.82550  0.87130  Biso   1.000  C
  C131     1.0000 0.65860  0.86390  0.75700  Biso   1.000  C
  C132     1.0000 0.98960  0.01760  0.87060  Biso   1.000  C
  C133     1.0000 0.68860  0.07330  0.81440  Biso   1.000  C
  C134     1.0000 0.75880  0.08360  0.88950  Biso   1.000  C
  C135     1.0000 0.76900  0.14820  0.12510  Biso   1.000  C
  C136     1.0000 0.68490  0.12080  0.93510  Biso   1.000  C
  C137     1.0000 0.89540  0.05600  0.91620  Biso   1.000  C
  C138     1.0000 0.86230  0.09670  0.03580  Biso   1.000  C
  C139     1.0000 0.94590  0.06292  0.99030  Biso   1.000  C
  C140     1.0000 0.65590  0.90680  0.96540  Biso   1.000  C
  C141     1.0000 0.80830  0.82560  0.94830  Biso   1.000  C
  C142     1.0000 0.74020  0.12782  0.00810  Biso   1.000  C
  C143     1.0000 0.74520  0.86510  0.99410  Biso   1.000  C
  C144     1.0000 0.89000  0.80980  0.06060  Biso   1.000  C
  N17      1.0000 0.87500  0.38982  0.61040  Biso   1.000  N
  N18      1.0000 0.79890  0.64738  0.56590  Biso   1.000  N
  N19      1.0000 0.90020  0.70833  0.49100  Biso   1.000  N
  N20      1.0000 0.68540  0.33873  0.56520  Biso   1.000  N
  N21      1.0000 0.37500  0.61018  0.88960  Biso   1.000  N
  N22      1.0000 0.29890  0.35262  0.93410  Biso   1.000  N
  N23      1.0000 0.40020  0.29167  0.00900  Biso   1.000  N
  N24      1.0000 0.18540  0.66127  0.93480  Biso   1.000  N
  N25      1.0000 0.37500  0.88982  0.38960  Biso   1.000  N
  N26      1.0000 0.29890  0.14738  0.43410  Biso   1.000  N
  N27      1.0000 0.40020  0.20833  0.50900  Biso   1.000  N
  N28      1.0000 0.18540  0.83873  0.43480  Biso   1.000  N
  N29      1.0000 0.87500  0.11018  0.11040  Biso   1.000  N
  N30      1.0000 0.79890  0.85262  0.06590  Biso   1.000  N
  N31      1.0000 0.90020  0.79167  0.99100  Biso   1.000  N
  N32      1.0000 0.68540  0.16127  0.06520  Biso   1.000  N
  O33      1.0000 0.58740  0.53070  0.28812  Biso   1.000  O
  O34      1.0000 0.43340  0.52555  0.38740  Biso   1.000  O
  O35      1.0000 0.75140  0.61016  0.21429  Biso   1.000  O
  O36      1.0000 0.55430  0.66430  0.23390  Biso   1.000  O
  O37      1.0000 0.13530  0.47632  0.37090  Biso   1.000  O
  O38      1.0000 0.54030  0.42090  0.30910  Biso   1.000  O
  O39      1.0000 0.92020  0.52120  0.33850  Biso   1.000  O
  O40      1.0000 0.77460  0.43990  0.25950  Biso   1.000  O
  O41      1.0000 0.08740  0.46930  0.21188  Biso   1.000  O
  O42      1.0000 0.93340  0.47445  0.11260  Biso   1.000  O
  O43      1.0000 0.25140  0.38984  0.28571  Biso   1.000  O
  O44      1.0000 0.05430  0.33570  0.26610  Biso   1.000  O
  O45      1.0000 0.63530  0.52368  0.12910  Biso   1.000  O
  O46      1.0000 0.04030  0.57910  0.19090  Biso   1.000  O
  O47      1.0000 0.42020  0.47880  0.16150  Biso   1.000  O
  O48      1.0000 0.27460  0.56010  0.24050  Biso   1.000  O
  O49      1.0000 0.08740  0.03070  0.71188  Biso   1.000  O
  O50      1.0000 0.93340  0.02555  0.61260  Biso   1.000  O
  O51      1.0000 0.25140  0.11016  0.78571  Biso   1.000  O
  O52      1.0000 0.05430  0.16430  0.76610  Biso   1.000  O
  O53      1.0000 0.63530  0.97632  0.62910  Biso   1.000  O
  O54      1.0000 0.04030  0.92090  0.69090  Biso   1.000  O
  O55      1.0000 0.42020  0.02120  0.66150  Biso   1.000  O
  O56      1.0000 0.27460  0.93990  0.74050  Biso   1.000  O
  O57      1.0000 0.58740  0.96930  0.78812  Biso   1.000  O
  O58      1.0000 0.43340  0.97445  0.88740  Biso   1.000  O
  O59      1.0000 0.75140  0.88984  0.71429  Biso   1.000  O
  O60      1.0000 0.55430  0.83570  0.73390  Biso   1.000  O
  O61      1.0000 0.13530  0.02368  0.87090  Biso   1.000  O
  O62      1.0000 0.54030  0.07910  0.80910  Biso   1.000  O
  O63      1.0000 0.92020  0.97880  0.83850  Biso   1.000  O
  O64      1.0000 0.77460  0.06010  0.75950  Biso   1.000  O
