data_image0
_cell_length_a       8.5955
_cell_length_b       25.363
_cell_length_c       17.822
_cell_angle_alpha    90
_cell_angle_beta     90
_cell_angle_gamma    90

_symmetry_space_group_name_H-M    P 1
_symmetry_int_tables_number       1

loop_
  _symmetry_equiv_pos_as_xyz
  'x, y, z'

loop_
  _atom_site_label
  _atom_site_occupancy
  _atom_site_fract_x
  _atom_site_fract_y
  _atom_site_fract_z
  _atom_site_thermal_displace_type
  _atom_site_B_iso_or_equiv
  _atom_site_type_symbol
  Sm1      1.0000 0.66304  0.97613  0.71637  Biso   1.000  Sm
  Sm2      1.0000 0.16304  0.02387  0.78363  Biso   1.000  Sm
  Sm3      1.0000 0.16304  0.47613  0.28363  Biso   1.000  Sm
  Sm4      1.0000 0.66304  0.52387  0.21637  Biso   1.000  Sm
  Ag1      1.0000 0.96100  0.27343  0.54946  Biso   1.000  Ag
  Ag2      1.0000 0.46100  0.72657  0.95054  Biso   1.000  Ag
  Ag3      1.0000 0.46100  0.77343  0.45054  Biso   1.000  Ag
  Ag4      1.0000 0.96100  0.22657  0.04946  Biso   1.000  Ag
  H1       1.0000 0.46690  0.04580  0.00910  Biso   1.000  H
  H2       1.0000 0.74700  0.16250  0.17400  Biso   1.000  H
  H3       1.0000 0.89840  0.13960  0.91930  Biso   1.000  H
  H4       1.0000 0.38090  0.06940  0.50340  Biso   1.000  H
  H5       1.0000 0.05550  0.20700  0.40040  Biso   1.000  H
  H6       1.0000 0.18350  0.20280  0.66060  Biso   1.000  H
  H7       1.0000 0.57100  0.09670  0.15090  Biso   1.000  H
  H8       1.0000 0.21900  0.13250  0.39160  Biso   1.000  H
  H9       1.0000 0.96690  0.95420  0.49090  Biso   1.000  H
  H10      1.0000 0.24700  0.83750  0.32600  Biso   1.000  H
  H11      1.0000 0.39840  0.86040  0.58070  Biso   1.000  H
  H12      1.0000 0.88090  0.93060  0.99660  Biso   1.000  H
  H13      1.0000 0.55550  0.79300  0.09960  Biso   1.000  H
  H14      1.0000 0.68350  0.79720  0.83940  Biso   1.000  H
  H15      1.0000 0.07100  0.90330  0.34910  Biso   1.000  H
  H16      1.0000 0.71900  0.86750  0.10840  Biso   1.000  H
  H17      1.0000 0.96690  0.54580  0.99090  Biso   1.000  H
  H18      1.0000 0.24700  0.66250  0.82600  Biso   1.000  H
  H19      1.0000 0.39840  0.63960  0.08070  Biso   1.000  H
  H20      1.0000 0.88090  0.56940  0.49660  Biso   1.000  H
  H21      1.0000 0.55550  0.70700  0.59960  Biso   1.000  H
  H22      1.0000 0.68350  0.70280  0.33940  Biso   1.000  H
  H23      1.0000 0.07100  0.59670  0.84910  Biso   1.000  H
  H24      1.0000 0.71900  0.63250  0.60840  Biso   1.000  H
  H25      1.0000 0.46690  0.45420  0.50910  Biso   1.000  H
  H26      1.0000 0.74700  0.33750  0.67400  Biso   1.000  H
  H27      1.0000 0.89840  0.36040  0.41930  Biso   1.000  H
  H28      1.0000 0.38090  0.43060  0.00340  Biso   1.000  H
  H29      1.0000 0.05550  0.29300  0.90040  Biso   1.000  H
  H30      1.0000 0.18350  0.29720  0.16060  Biso   1.000  H
  H31      1.0000 0.57100  0.40330  0.65090  Biso   1.000  H
  H32      1.0000 0.21900  0.36750  0.89160  Biso   1.000  H
  C1       1.0000 0.50970  0.01842  0.87250  Biso   1.000  C
  C2       1.0000 0.60550  0.05667  0.91820  Biso   1.000  C
  C3       1.0000 0.55450  0.06333  0.99140  Biso   1.000  C
  C4       1.0000 0.63880  0.09724  0.03750  Biso   1.000  C
  C5       1.0000 0.73260  0.14751  0.12690  Biso   1.000  C
  C6       1.0000 0.76060  0.12765  0.00940  Biso   1.000  C
  C7       1.0000 0.81390  0.12039  0.93710  Biso   1.000  C
  C8       1.0000 0.73970  0.08409  0.89140  Biso   1.000  C
  C9       1.0000 0.80650  0.07474  0.81480  Biso   1.000  C
  C10      1.0000 0.44950  0.04822  0.64450  Biso   1.000  C
  C11      1.0000 0.36390  0.09423  0.61160  Biso   1.000  C
  C12      1.0000 0.33940  0.09520  0.53460  Biso   1.000  C
  C13      1.0000 0.24990  0.13657  0.50590  Biso   1.000  C
  C14      1.0000 0.10590  0.19151  0.44090  Biso   1.000  C
  C15      1.0000 0.18810  0.17549  0.55320  Biso   1.000  C
  C16      1.0000 0.21980  0.17576  0.62990  Biso   1.000  C
  C17      1.0000 0.30610  0.13495  0.65900  Biso   1.000  C
  C18      1.0000 0.34050  0.13730  0.74210  Biso   1.000  C
  C19      1.0000 0.00970  0.98158  0.62750  Biso   1.000  C
  C20      1.0000 0.10550  0.94333  0.58180  Biso   1.000  C
  C21      1.0000 0.05450  0.93667  0.50860  Biso   1.000  C
  C22      1.0000 0.13880  0.90276  0.46250  Biso   1.000  C
  C23      1.0000 0.23260  0.85249  0.37310  Biso   1.000  C
  C24      1.0000 0.26060  0.87235  0.49060  Biso   1.000  C
  C25      1.0000 0.31390  0.87961  0.56290  Biso   1.000  C
  C26      1.0000 0.23970  0.91591  0.60860  Biso   1.000  C
  C27      1.0000 0.30650  0.92526  0.68520  Biso   1.000  C
  C28      1.0000 0.94950  0.95178  0.85550  Biso   1.000  C
  C29      1.0000 0.86390  0.90577  0.88840  Biso   1.000  C
  C30      1.0000 0.83940  0.90480  0.96540  Biso   1.000  C
  C31      1.0000 0.74990  0.86343  0.99410  Biso   1.000  C
  C32      1.0000 0.60590  0.80849  0.05910  Biso   1.000  C
  C33      1.0000 0.68810  0.82451  0.94680  Biso   1.000  C
  C34      1.0000 0.71980  0.82424  0.87010  Biso   1.000  C
  C35      1.0000 0.80610  0.86505  0.84100  Biso   1.000  C
  C36      1.0000 0.84050  0.86270  0.75790  Biso   1.000  C
  C37      1.0000 0.00970  0.51842  0.12750  Biso   1.000  C
  C38      1.0000 0.10550  0.55667  0.08180  Biso   1.000  C
  C39      1.0000 0.05450  0.56333  0.00860  Biso   1.000  C
  C40      1.0000 0.13880  0.59724  0.96250  Biso   1.000  C
  C41      1.0000 0.23260  0.64751  0.87310  Biso   1.000  C
  C42      1.0000 0.26060  0.62765  0.99060  Biso   1.000  C
  C43      1.0000 0.31390  0.62039  0.06290  Biso   1.000  C
  C44      1.0000 0.23970  0.58409  0.10860  Biso   1.000  C
  C45      1.0000 0.30650  0.57474  0.18520  Biso   1.000  C
  C46      1.0000 0.94950  0.54822  0.35550  Biso   1.000  C
  C47      1.0000 0.86390  0.59423  0.38840  Biso   1.000  C
  C48      1.0000 0.83940  0.59520  0.46540  Biso   1.000  C
  C49      1.0000 0.74990  0.63657  0.49410  Biso   1.000  C
  C50      1.0000 0.60590  0.69151  0.55910  Biso   1.000  C
  C51      1.0000 0.68810  0.67549  0.44680  Biso   1.000  C
  C52      1.0000 0.71980  0.67576  0.37010  Biso   1.000  C
  C53      1.0000 0.80610  0.63495  0.34100  Biso   1.000  C
  C54      1.0000 0.84050  0.63730  0.25790  Biso   1.000  C
  C55      1.0000 0.50970  0.48158  0.37250  Biso   1.000  C
  C56      1.0000 0.60550  0.44333  0.41820  Biso   1.000  C
  C57      1.0000 0.55450  0.43667  0.49140  Biso   1.000  C
  C58      1.0000 0.63880  0.40276  0.53750  Biso   1.000  C
  C59      1.0000 0.73260  0.35249  0.62690  Biso   1.000  C
  C60      1.0000 0.76060  0.37235  0.50940  Biso   1.000  C
  C61      1.0000 0.81390  0.37961  0.43710  Biso   1.000  C
  C62      1.0000 0.73970  0.41591  0.39140  Biso   1.000  C
  C63      1.0000 0.80650  0.42526  0.31480  Biso   1.000  C
  C64      1.0000 0.44950  0.45178  0.14450  Biso   1.000  C
  C65      1.0000 0.36390  0.40577  0.11160  Biso   1.000  C
  C66      1.0000 0.33940  0.40480  0.03460  Biso   1.000  C
  C67      1.0000 0.24990  0.36343  0.00590  Biso   1.000  C
  C68      1.0000 0.10590  0.30849  0.94090  Biso   1.000  C
  C69      1.0000 0.18810  0.32451  0.05320  Biso   1.000  C
  C70      1.0000 0.21980  0.32424  0.12990  Biso   1.000  C
  C71      1.0000 0.30610  0.36505  0.15900  Biso   1.000  C
  C72      1.0000 0.34050  0.36270  0.24210  Biso   1.000  C
  N1       1.0000 0.62600  0.11014  0.11220  Biso   1.000  N
  N2       1.0000 0.81470  0.16048  0.06700  Biso   1.000  N
  N3       1.0000 0.09600  0.20934  0.51020  Biso   1.000  N
  N4       1.0000 0.19600  0.14865  0.43510  Biso   1.000  N
  N5       1.0000 0.12600  0.88986  0.38780  Biso   1.000  N
  N6       1.0000 0.31470  0.83952  0.43300  Biso   1.000  N
  N7       1.0000 0.59600  0.79066  0.98980  Biso   1.000  N
  N8       1.0000 0.69600  0.85135  0.06490  Biso   1.000  N
  N9       1.0000 0.12600  0.61014  0.88780  Biso   1.000  N
  N10      1.0000 0.31470  0.66048  0.93300  Biso   1.000  N
  N11      1.0000 0.59600  0.70934  0.48980  Biso   1.000  N
  N12      1.0000 0.69600  0.64865  0.56490  Biso   1.000  N
  N13      1.0000 0.62600  0.38986  0.61220  Biso   1.000  N
  N14      1.0000 0.81470  0.33952  0.56700  Biso   1.000  N
  N15      1.0000 0.09600  0.29066  0.01020  Biso   1.000  N
  N16      1.0000 0.19600  0.35135  0.93510  Biso   1.000  N
  O1       1.0000 0.57550  0.97954  0.84091  Biso   1.000  O
  O2       1.0000 0.36560  0.02526  0.87358  Biso   1.000  O
  O3       1.0000 0.72030  0.06137  0.76125  Biso   1.000  O
  O4       1.0000 0.95160  0.08167  0.80785  Biso   1.000  O
  O5       1.0000 0.55910  0.02710  0.60982  Biso   1.000  O
  O6       1.0000 0.41050  0.03169  0.71002  Biso   1.000  O
  O7       1.0000 0.24630  0.11296  0.78570  Biso   1.000  O
  O8       1.0000 0.45030  0.16370  0.76440  Biso   1.000  O
  O9       1.0000 0.07550  0.02046  0.65909  Biso   1.000  O
  O10      1.0000 0.86560  0.97474  0.62642  Biso   1.000  O
  O11      1.0000 0.22030  0.93863  0.73875  Biso   1.000  O
  O12      1.0000 0.45160  0.91833  0.69215  Biso   1.000  O
  O13      1.0000 0.05910  0.97290  0.89018  Biso   1.000  O
  O14      1.0000 0.91050  0.96831  0.78998  Biso   1.000  O
  O15      1.0000 0.74630  0.88704  0.71430  Biso   1.000  O
  O16      1.0000 0.95030  0.83630  0.73560  Biso   1.000  O
  O17      1.0000 0.07550  0.47954  0.15909  Biso   1.000  O
  O18      1.0000 0.86560  0.52526  0.12642  Biso   1.000  O
  O19      1.0000 0.22030  0.56137  0.23875  Biso   1.000  O
  O20      1.0000 0.45160  0.58167  0.19215  Biso   1.000  O
  O21      1.0000 0.05910  0.52710  0.39018  Biso   1.000  O
  O22      1.0000 0.91050  0.53169  0.28998  Biso   1.000  O
  O23      1.0000 0.74630  0.61296  0.21430  Biso   1.000  O
  O24      1.0000 0.95030  0.66370  0.23560  Biso   1.000  O
  O25      1.0000 0.57550  0.52046  0.34091  Biso   1.000  O
  O26      1.0000 0.36560  0.47474  0.37358  Biso   1.000  O
  O27      1.0000 0.72030  0.43863  0.26125  Biso   1.000  O
  O28      1.0000 0.95160  0.41833  0.30785  Biso   1.000  O
  O29      1.0000 0.55910  0.47290  0.10982  Biso   1.000  O
  O30      1.0000 0.41050  0.46831  0.21002  Biso   1.000  O
  O31      1.0000 0.24630  0.38704  0.28570  Biso   1.000  O
  O32      1.0000 0.45030  0.33630  0.26440  Biso   1.000  O
  Sm5      1.0000 0.83696  0.52387  0.71637  Biso   1.000  Sm
  Sm6      1.0000 0.33696  0.47613  0.78363  Biso   1.000  Sm
  Sm7      1.0000 0.33696  0.02387  0.28363  Biso   1.000  Sm
  Sm8      1.0000 0.83696  0.97613  0.21637  Biso   1.000  Sm
  Ag5      1.0000 0.53900  0.22657  0.54946  Biso   1.000  Ag
  Ag6      1.0000 0.03900  0.77343  0.95054  Biso   1.000  Ag
  Ag7      1.0000 0.03900  0.72657  0.45054  Biso   1.000  Ag
  Ag8      1.0000 0.53900  0.27343  0.04946  Biso   1.000  Ag
  H33      1.0000 0.03310  0.45420  0.00910  Biso   1.000  H
  H34      1.0000 0.75300  0.33750  0.17400  Biso   1.000  H
  H35      1.0000 0.60160  0.36040  0.91930  Biso   1.000  H
  H36      1.0000 0.11910  0.43060  0.50340  Biso   1.000  H
  H37      1.0000 0.44450  0.29300  0.40040  Biso   1.000  H
  H38      1.0000 0.31650  0.29720  0.66060  Biso   1.000  H
  H39      1.0000 0.92900  0.40330  0.15090  Biso   1.000  H
  H40      1.0000 0.28100  0.36750  0.39160  Biso   1.000  H
  H41      1.0000 0.53310  0.54580  0.49090  Biso   1.000  H
  H42      1.0000 0.25300  0.66250  0.32600  Biso   1.000  H
  H43      1.0000 0.10160  0.63960  0.58070  Biso   1.000  H
  H44      1.0000 0.61910  0.56940  0.99660  Biso   1.000  H
  H45      1.0000 0.94450  0.70700  0.09960  Biso   1.000  H
  H46      1.0000 0.81650  0.70280  0.83940  Biso   1.000  H
  H47      1.0000 0.42900  0.59670  0.34910  Biso   1.000  H
  H48      1.0000 0.78100  0.63250  0.10840  Biso   1.000  H
  H49      1.0000 0.53310  0.95420  0.99090  Biso   1.000  H
  H50      1.0000 0.25300  0.83750  0.82600  Biso   1.000  H
  H51      1.0000 0.10160  0.86040  0.08070  Biso   1.000  H
  H52      1.0000 0.61910  0.93060  0.49660  Biso   1.000  H
  H53      1.0000 0.94450  0.79300  0.59960  Biso   1.000  H
  H54      1.0000 0.81650  0.79720  0.33940  Biso   1.000  H
  H55      1.0000 0.42900  0.90330  0.84910  Biso   1.000  H
  H56      1.0000 0.78100  0.86750  0.60840  Biso   1.000  H
  H57      1.0000 0.03310  0.04580  0.50910  Biso   1.000  H
  H58      1.0000 0.75300  0.16250  0.67400  Biso   1.000  H
  H59      1.0000 0.60160  0.13960  0.41930  Biso   1.000  H
  H60      1.0000 0.11910  0.06940  0.00340  Biso   1.000  H
  H61      1.0000 0.44450  0.20700  0.90040  Biso   1.000  H
  H62      1.0000 0.31650  0.20280  0.16060  Biso   1.000  H
  H63      1.0000 0.92900  0.09670  0.65090  Biso   1.000  H
  H64      1.0000 0.28100  0.13250  0.89160  Biso   1.000  H
  C73      1.0000 0.99030  0.48158  0.87250  Biso   1.000  C
  C74      1.0000 0.89450  0.44333  0.91820  Biso   1.000  C
  C75      1.0000 0.94550  0.43667  0.99140  Biso   1.000  C
  C76      1.0000 0.86120  0.40276  0.03750  Biso   1.000  C
  C77      1.0000 0.76740  0.35249  0.12690  Biso   1.000  C
  C78      1.0000 0.73940  0.37235  0.00940  Biso   1.000  C
  C79      1.0000 0.68610  0.37961  0.93710  Biso   1.000  C
  C80      1.0000 0.76030  0.41591  0.89140  Biso   1.000  C
  C81      1.0000 0.69350  0.42526  0.81480  Biso   1.000  C
  C82      1.0000 0.05050  0.45178  0.64450  Biso   1.000  C
  C83      1.0000 0.13610  0.40577  0.61160  Biso   1.000  C
  C84      1.0000 0.16060  0.40480  0.53460  Biso   1.000  C
  C85      1.0000 0.25010  0.36343  0.50590  Biso   1.000  C
  C86      1.0000 0.39410  0.30849  0.44090  Biso   1.000  C
  C87      1.0000 0.31190  0.32451  0.55320  Biso   1.000  C
  C88      1.0000 0.28020  0.32424  0.62990  Biso   1.000  C
  C89      1.0000 0.19390  0.36505  0.65900  Biso   1.000  C
  C90      1.0000 0.15950  0.36270  0.74210  Biso   1.000  C
  C91      1.0000 0.49030  0.51842  0.62750  Biso   1.000  C
  C92      1.0000 0.39450  0.55667  0.58180  Biso   1.000  C
  C93      1.0000 0.44550  0.56333  0.50860  Biso   1.000  C
  C94      1.0000 0.36120  0.59724  0.46250  Biso   1.000  C
  C95      1.0000 0.26740  0.64751  0.37310  Biso   1.000  C
  C96      1.0000 0.23940  0.62765  0.49060  Biso   1.000  C
  C97      1.0000 0.18610  0.62039  0.56290  Biso   1.000  C
  C98      1.0000 0.26030  0.58409  0.60860  Biso   1.000  C
  C99      1.0000 0.19350  0.57474  0.68520  Biso   1.000  C
  C100     1.0000 0.55050  0.54822  0.85550  Biso   1.000  C
  C101     1.0000 0.63610  0.59423  0.88840  Biso   1.000  C
  C102     1.0000 0.66060  0.59520  0.96540  Biso   1.000  C
  C103     1.0000 0.75010  0.63657  0.99410  Biso   1.000  C
  C104     1.0000 0.89410  0.69151  0.05910  Biso   1.000  C
  C105     1.0000 0.81190  0.67549  0.94680  Biso   1.000  C
  C106     1.0000 0.78020  0.67576  0.87010  Biso   1.000  C
  C107     1.0000 0.69390  0.63495  0.84100  Biso   1.000  C
  C108     1.0000 0.65950  0.63730  0.75790  Biso   1.000  C
  C109     1.0000 0.49030  0.98158  0.12750  Biso   1.000  C
  C110     1.0000 0.39450  0.94333  0.08180  Biso   1.000  C
  C111     1.0000 0.44550  0.93667  0.00860  Biso   1.000  C
  C112     1.0000 0.36120  0.90276  0.96250  Biso   1.000  C
  C113     1.0000 0.26740  0.85249  0.87310  Biso   1.000  C
  C114     1.0000 0.23940  0.87235  0.99060  Biso   1.000  C
  C115     1.0000 0.18610  0.87961  0.06290  Biso   1.000  C
  C116     1.0000 0.26030  0.91591  0.10860  Biso   1.000  C
  C117     1.0000 0.19350  0.92526  0.18520  Biso   1.000  C
  C118     1.0000 0.55050  0.95178  0.35550  Biso   1.000  C
  C119     1.0000 0.63610  0.90577  0.38840  Biso   1.000  C
  C120     1.0000 0.66060  0.90480  0.46540  Biso   1.000  C
  C121     1.0000 0.75010  0.86343  0.49410  Biso   1.000  C
  C122     1.0000 0.89410  0.80849  0.55910  Biso   1.000  C
  C123     1.0000 0.81190  0.82451  0.44680  Biso   1.000  C
  C124     1.0000 0.78020  0.82424  0.37010  Biso   1.000  C
  C125     1.0000 0.69390  0.86505  0.34100  Biso   1.000  C
  C126     1.0000 0.65950  0.86270  0.25790  Biso   1.000  C
  C127     1.0000 0.99030  0.01842  0.37250  Biso   1.000  C
  C128     1.0000 0.89450  0.05667  0.41820  Biso   1.000  C
  C129     1.0000 0.94550  0.06333  0.49140  Biso   1.000  C
  C130     1.0000 0.86120  0.09724  0.53750  Biso   1.000  C
  C131     1.0000 0.76740  0.14751  0.62690  Biso   1.000  C
  C132     1.0000 0.73940  0.12765  0.50940  Biso   1.000  C
  C133     1.0000 0.68610  0.12039  0.43710  Biso   1.000  C
  C134     1.0000 0.76030  0.08409  0.39140  Biso   1.000  C
  C135     1.0000 0.69350  0.07474  0.31480  Biso   1.000  C
  C136     1.0000 0.05050  0.04822  0.14450  Biso   1.000  C
  C137     1.0000 0.13610  0.09423  0.11160  Biso   1.000  C
  C138     1.0000 0.16060  0.09520  0.03460  Biso   1.000  C
  C139     1.0000 0.25010  0.13657  0.00590  Biso   1.000  C
  C140     1.0000 0.39410  0.19151  0.94090  Biso   1.000  C
  C141     1.0000 0.31190  0.17549  0.05320  Biso   1.000  C
  C142     1.0000 0.28020  0.17576  0.12990  Biso   1.000  C
  C143     1.0000 0.19390  0.13495  0.15900  Biso   1.000  C
  C144     1.0000 0.15950  0.13730  0.24210  Biso   1.000  C
  N17      1.0000 0.87400  0.38986  0.11220  Biso   1.000  N
  N18      1.0000 0.68530  0.33952  0.06700  Biso   1.000  N
  N19      1.0000 0.40400  0.29066  0.51020  Biso   1.000  N
  N20      1.0000 0.30400  0.35135  0.43510  Biso   1.000  N
  N21      1.0000 0.37400  0.61014  0.38780  Biso   1.000  N
  N22      1.0000 0.18530  0.66048  0.43300  Biso   1.000  N
  N23      1.0000 0.90400  0.70934  0.98980  Biso   1.000  N
  N24      1.0000 0.80400  0.64865  0.06490  Biso   1.000  N
  N25      1.0000 0.37400  0.88986  0.88780  Biso   1.000  N
  N26      1.0000 0.18530  0.83952  0.93300  Biso   1.000  N
  N27      1.0000 0.90400  0.79066  0.48980  Biso   1.000  N
  N28      1.0000 0.80400  0.85135  0.56490  Biso   1.000  N
  N29      1.0000 0.87400  0.11014  0.61220  Biso   1.000  N
  N30      1.0000 0.68530  0.16048  0.56700  Biso   1.000  N
  N31      1.0000 0.40400  0.20934  0.01020  Biso   1.000  N
  N32      1.0000 0.30400  0.14865  0.93510  Biso   1.000  N
  O33      1.0000 0.92450  0.52046  0.84091  Biso   1.000  O
  O34      1.0000 0.13440  0.47474  0.87358  Biso   1.000  O
  O35      1.0000 0.77970  0.43863  0.76125  Biso   1.000  O
  O36      1.0000 0.54840  0.41833  0.80785  Biso   1.000  O
  O37      1.0000 0.94090  0.47290  0.60982  Biso   1.000  O
  O38      1.0000 0.08950  0.46831  0.71002  Biso   1.000  O
  O39      1.0000 0.25370  0.38704  0.78570  Biso   1.000  O
  O40      1.0000 0.04970  0.33630  0.76440  Biso   1.000  O
  O41      1.0000 0.42450  0.47954  0.65909  Biso   1.000  O
  O42      1.0000 0.63440  0.52526  0.62642  Biso   1.000  O
  O43      1.0000 0.27970  0.56137  0.73875  Biso   1.000  O
  O44      1.0000 0.04840  0.58167  0.69215  Biso   1.000  O
  O45      1.0000 0.44090  0.52710  0.89018  Biso   1.000  O
  O46      1.0000 0.58950  0.53169  0.78998  Biso   1.000  O
  O47      1.0000 0.75370  0.61296  0.71430  Biso   1.000  O
  O48      1.0000 0.54970  0.66370  0.73560  Biso   1.000  O
  O49      1.0000 0.42450  0.02046  0.15909  Biso   1.000  O
  O50      1.0000 0.63440  0.97474  0.12642  Biso   1.000  O
  O51      1.0000 0.27970  0.93863  0.23875  Biso   1.000  O
  O52      1.0000 0.04840  0.91833  0.19215  Biso   1.000  O
  O53      1.0000 0.44090  0.97290  0.39018  Biso   1.000  O
  O54      1.0000 0.58950  0.96831  0.28998  Biso   1.000  O
  O55      1.0000 0.75370  0.88704  0.21430  Biso   1.000  O
  O56      1.0000 0.54970  0.83630  0.23560  Biso   1.000  O
  O57      1.0000 0.92450  0.97954  0.34091  Biso   1.000  O
  O58      1.0000 0.13440  0.02526  0.37358  Biso   1.000  O
  O59      1.0000 0.77970  0.06137  0.26125  Biso   1.000  O
  O60      1.0000 0.54840  0.08167  0.30785  Biso   1.000  O
  O61      1.0000 0.94090  0.02710  0.10982  Biso   1.000  O
  O62      1.0000 0.08950  0.03169  0.21002  Biso   1.000  O
  O63      1.0000 0.25370  0.11296  0.28570  Biso   1.000  O
  O64      1.0000 0.04970  0.16370  0.26440  Biso   1.000  O
