data_image0
_cell_length_a       8.5525
_cell_length_b       25.287
_cell_length_c       17.827
_cell_angle_alpha    90
_cell_angle_beta     90
_cell_angle_gamma    90

_symmetry_space_group_name_H-M    P 1
_symmetry_int_tables_number       1

loop_
  _symmetry_equiv_pos_as_xyz
  'x, y, z'

loop_
  _atom_site_label
  _atom_site_occupancy
  _atom_site_fract_x
  _atom_site_fract_y
  _atom_site_fract_z
  _atom_site_thermal_displace_type
  _atom_site_B_iso_or_equiv
  _atom_site_type_symbol
  Gd1      1.0000 0.16435  0.97638  0.21692  Biso   1.000  Gd
  Gd2      1.0000 0.66435  0.02362  0.28308  Biso   1.000  Gd
  Gd3      1.0000 0.66435  0.47638  0.78308  Biso   1.000  Gd
  Gd4      1.0000 0.16435  0.52362  0.71692  Biso   1.000  Gd
  Ag1      1.0000 0.46123  0.27310  0.04865  Biso   1.000  Ag
  Ag2      1.0000 0.96123  0.72690  0.45135  Biso   1.000  Ag
  Ag3      1.0000 0.96123  0.77310  0.95135  Biso   1.000  Ag
  Ag4      1.0000 0.46123  0.22690  0.54865  Biso   1.000  Ag
  H1       1.0000 0.39910  0.14040  0.41890  Biso   1.000  H
  H2       1.0000 0.68340  0.20290  0.15960  Biso   1.000  H
  H3       1.0000 0.06220  0.09660  0.64330  Biso   1.000  H
  H4       1.0000 0.24600  0.16290  0.67310  Biso   1.000  H
  H5       1.0000 0.88240  0.06860  0.00400  Biso   1.000  H
  H6       1.0000 0.96650  0.04550  0.50810  Biso   1.000  H
  H7       1.0000 0.55740  0.20630  0.89970  Biso   1.000  H
  H8       1.0000 0.72070  0.13140  0.89440  Biso   1.000  H
  H9       1.0000 0.89910  0.85960  0.08110  Biso   1.000  H
  H10      1.0000 0.18340  0.79710  0.34040  Biso   1.000  H
  H11      1.0000 0.56220  0.90340  0.85670  Biso   1.000  H
  H12      1.0000 0.74600  0.83710  0.82690  Biso   1.000  H
  H13      1.0000 0.38240  0.93140  0.49600  Biso   1.000  H
  H14      1.0000 0.46650  0.95450  0.99190  Biso   1.000  H
  H15      1.0000 0.05740  0.79370  0.60030  Biso   1.000  H
  H16      1.0000 0.22070  0.86860  0.60560  Biso   1.000  H
  H17      1.0000 0.89910  0.64040  0.58110  Biso   1.000  H
  H18      1.0000 0.18340  0.70290  0.84040  Biso   1.000  H
  H19      1.0000 0.56220  0.59660  0.35670  Biso   1.000  H
  H20      1.0000 0.74600  0.66290  0.32690  Biso   1.000  H
  H21      1.0000 0.38240  0.56860  0.99600  Biso   1.000  H
  H22      1.0000 0.46650  0.54550  0.49190  Biso   1.000  H
  H23      1.0000 0.05740  0.70630  0.10030  Biso   1.000  H
  H24      1.0000 0.22070  0.63140  0.10560  Biso   1.000  H
  H25      1.0000 0.39910  0.35960  0.91890  Biso   1.000  H
  H26      1.0000 0.68340  0.29710  0.65960  Biso   1.000  H
  H27      1.0000 0.06220  0.40340  0.14330  Biso   1.000  H
  H28      1.0000 0.24600  0.33710  0.17310  Biso   1.000  H
  H29      1.0000 0.88240  0.43140  0.50400  Biso   1.000  H
  H30      1.0000 0.96650  0.45450  0.00810  Biso   1.000  H
  H31      1.0000 0.55740  0.29370  0.39970  Biso   1.000  H
  H32      1.0000 0.72070  0.36860  0.39440  Biso   1.000  H
  C1       1.0000 0.95070  0.04790  0.14520  Biso   1.000  C
  C2       1.0000 0.86500  0.09360  0.11160  Biso   1.000  C
  C3       1.0000 0.10530  0.05660  0.41780  Biso   1.000  C
  C4       1.0000 0.00980  0.01810  0.37190  Biso   1.000  C
  C5       1.0000 0.30850  0.07460  0.31490  Biso   1.000  C
  C6       1.0000 0.24000  0.08400  0.39060  Biso   1.000  C
  C7       1.0000 0.31460  0.12090  0.43660  Biso   1.000  C
  C8       1.0000 0.72020  0.17570  0.12920  Biso   1.000  C
  C9       1.0000 0.68960  0.17530  0.05260  Biso   1.000  C
  C10      1.0000 0.33970  0.86260  0.25830  Biso   1.000  C
  C11      1.0000 0.23190  0.14770  0.62610  Biso   1.000  C
  C12      1.0000 0.84080  0.09460  0.03510  Biso   1.000  C
  C13      1.0000 0.05430  0.06330  0.49050  Biso   1.000  C
  C14      1.0000 0.80640  0.13480  0.15880  Biso   1.000  C
  C15      1.0000 0.26090  0.12790  0.50910  Biso   1.000  C
  C16      1.0000 0.13850  0.09750  0.53680  Biso   1.000  C
  C17      1.0000 0.75140  0.13620  0.00570  Biso   1.000  C
  C18      1.0000 0.60820  0.19090  0.94030  Biso   1.000  C
  C19      1.0000 0.45070  0.95210  0.35480  Biso   1.000  C
  C20      1.0000 0.36500  0.90640  0.38840  Biso   1.000  C
  C21      1.0000 0.60530  0.94340  0.08220  Biso   1.000  C
  C22      1.0000 0.50980  0.98190  0.12810  Biso   1.000  C
  C23      1.0000 0.80850  0.92540  0.18510  Biso   1.000  C
  C24      1.0000 0.74000  0.91600  0.10940  Biso   1.000  C
  C25      1.0000 0.81460  0.87910  0.06340  Biso   1.000  C
  C26      1.0000 0.22020  0.82430  0.37080  Biso   1.000  C
  C27      1.0000 0.18960  0.82470  0.44740  Biso   1.000  C
  C28      1.0000 0.83970  0.13740  0.24170  Biso   1.000  C
  C29      1.0000 0.73190  0.85230  0.87390  Biso   1.000  C
  C30      1.0000 0.34080  0.90540  0.46490  Biso   1.000  C
  C31      1.0000 0.55430  0.93670  0.00950  Biso   1.000  C
  C32      1.0000 0.30640  0.86520  0.34120  Biso   1.000  C
  C33      1.0000 0.76090  0.87210  0.99090  Biso   1.000  C
  C34      1.0000 0.63850  0.90250  0.96320  Biso   1.000  C
  C35      1.0000 0.25140  0.86380  0.49430  Biso   1.000  C
  C36      1.0000 0.10820  0.80910  0.55970  Biso   1.000  C
  C37      1.0000 0.45070  0.54790  0.85480  Biso   1.000  C
  C38      1.0000 0.36500  0.59360  0.88840  Biso   1.000  C
  C39      1.0000 0.60530  0.55660  0.58220  Biso   1.000  C
  C40      1.0000 0.50980  0.51810  0.62810  Biso   1.000  C
  C41      1.0000 0.80850  0.57460  0.68510  Biso   1.000  C
  C42      1.0000 0.74000  0.58400  0.60940  Biso   1.000  C
  C43      1.0000 0.81460  0.62090  0.56340  Biso   1.000  C
  C44      1.0000 0.22020  0.67570  0.87080  Biso   1.000  C
  C45      1.0000 0.18960  0.67530  0.94740  Biso   1.000  C
  C46      1.0000 0.83970  0.36260  0.74170  Biso   1.000  C
  C47      1.0000 0.73190  0.64770  0.37390  Biso   1.000  C
  C48      1.0000 0.34080  0.59460  0.96490  Biso   1.000  C
  C49      1.0000 0.55430  0.56330  0.50950  Biso   1.000  C
  C50      1.0000 0.30640  0.63480  0.84120  Biso   1.000  C
  C51      1.0000 0.76090  0.62790  0.49090  Biso   1.000  C
  C52      1.0000 0.63850  0.59750  0.46320  Biso   1.000  C
  C53      1.0000 0.25140  0.63620  0.99430  Biso   1.000  C
  C54      1.0000 0.10820  0.69090  0.05970  Biso   1.000  C
  C55      1.0000 0.95070  0.45210  0.64520  Biso   1.000  C
  C56      1.0000 0.86500  0.40640  0.61160  Biso   1.000  C
  C57      1.0000 0.10530  0.44340  0.91780  Biso   1.000  C
  C58      1.0000 0.00980  0.48190  0.87190  Biso   1.000  C
  C59      1.0000 0.30850  0.42540  0.81490  Biso   1.000  C
  C60      1.0000 0.24000  0.41600  0.89060  Biso   1.000  C
  C61      1.0000 0.31460  0.37910  0.93660  Biso   1.000  C
  C62      1.0000 0.72020  0.32430  0.62920  Biso   1.000  C
  C63      1.0000 0.68960  0.32470  0.55260  Biso   1.000  C
  C64      1.0000 0.33970  0.63740  0.75830  Biso   1.000  C
  C65      1.0000 0.23190  0.35230  0.12610  Biso   1.000  C
  C66      1.0000 0.84080  0.40540  0.53510  Biso   1.000  C
  C67      1.0000 0.05430  0.43670  0.99050  Biso   1.000  C
  C68      1.0000 0.80640  0.36520  0.65880  Biso   1.000  C
  C69      1.0000 0.26090  0.37210  0.00910  Biso   1.000  C
  C70      1.0000 0.13850  0.40250  0.03680  Biso   1.000  C
  C71      1.0000 0.75140  0.36380  0.50570  Biso   1.000  C
  C72      1.0000 0.60820  0.30910  0.44030  Biso   1.000  C
  N1       1.0000 0.12630  0.11028  0.61160  Biso   1.000  N
  N2       1.0000 0.31390  0.16080  0.56640  Biso   1.000  N
  N3       1.0000 0.59820  0.20890  0.00920  Biso   1.000  N
  N4       1.0000 0.69890  0.14830  0.93490  Biso   1.000  N
  N5       1.0000 0.62630  0.88972  0.88840  Biso   1.000  N
  N6       1.0000 0.81390  0.83920  0.93360  Biso   1.000  N
  N7       1.0000 0.09820  0.79110  0.49080  Biso   1.000  N
  N8       1.0000 0.19890  0.85170  0.56510  Biso   1.000  N
  N9       1.0000 0.62630  0.61028  0.38840  Biso   1.000  N
  N10      1.0000 0.81390  0.66080  0.43360  Biso   1.000  N
  N11      1.0000 0.09820  0.70890  0.99080  Biso   1.000  N
  N12      1.0000 0.19890  0.64830  0.06510  Biso   1.000  N
  N13      1.0000 0.12630  0.38972  0.11160  Biso   1.000  N
  N14      1.0000 0.31390  0.33920  0.06640  Biso   1.000  N
  N15      1.0000 0.59820  0.29110  0.50920  Biso   1.000  N
  N16      1.0000 0.69890  0.35170  0.43490  Biso   1.000  N
  O1       1.0000 0.07740  0.97937  0.34020  Biso   1.000  O
  O2       1.0000 0.91140  0.03151  0.21080  Biso   1.000  O
  O3       1.0000 0.06180  0.02660  0.11140  Biso   1.000  O
  O4       1.0000 0.86530  0.02476  0.37250  Biso   1.000  O
  O5       1.0000 0.22230  0.06118  0.26100  Biso   1.000  O
  O6       1.0000 0.24670  0.88789  0.21460  Biso   1.000  O
  O7       1.0000 0.44670  0.83480  0.23510  Biso   1.000  O
  O8       1.0000 0.45410  0.08098  0.30850  Biso   1.000  O
  O9       1.0000 0.57740  0.02063  0.15980  Biso   1.000  O
  O10      1.0000 0.41140  0.96849  0.28920  Biso   1.000  O
  O11      1.0000 0.56180  0.97340  0.38860  Biso   1.000  O
  O12      1.0000 0.36530  0.97524  0.12750  Biso   1.000  O
  O13      1.0000 0.72230  0.93882  0.23900  Biso   1.000  O
  O14      1.0000 0.74670  0.11211  0.28540  Biso   1.000  O
  O15      1.0000 0.94670  0.16520  0.26490  Biso   1.000  O
  O16      1.0000 0.95410  0.91902  0.19150  Biso   1.000  O
  O17      1.0000 0.57740  0.47937  0.65980  Biso   1.000  O
  O18      1.0000 0.41140  0.53151  0.78920  Biso   1.000  O
  O19      1.0000 0.56180  0.52660  0.88860  Biso   1.000  O
  O20      1.0000 0.36530  0.52476  0.62750  Biso   1.000  O
  O21      1.0000 0.72230  0.56118  0.73900  Biso   1.000  O
  O22      1.0000 0.74670  0.38789  0.78540  Biso   1.000  O
  O23      1.0000 0.94670  0.33480  0.76490  Biso   1.000  O
  O24      1.0000 0.95410  0.58098  0.69150  Biso   1.000  O
  O25      1.0000 0.07740  0.52063  0.84020  Biso   1.000  O
  O26      1.0000 0.91140  0.46849  0.71080  Biso   1.000  O
  O27      1.0000 0.06180  0.47340  0.61140  Biso   1.000  O
  O28      1.0000 0.86530  0.47524  0.87250  Biso   1.000  O
  O29      1.0000 0.22230  0.43882  0.76100  Biso   1.000  O
  O30      1.0000 0.24670  0.61211  0.71460  Biso   1.000  O
  O31      1.0000 0.44670  0.66520  0.73510  Biso   1.000  O
  O32      1.0000 0.45410  0.41902  0.80850  Biso   1.000  O
  Gd5      1.0000 0.33565  0.52362  0.21692  Biso   1.000  Gd
  Gd6      1.0000 0.83565  0.47638  0.28308  Biso   1.000  Gd
  Gd7      1.0000 0.83565  0.02362  0.78308  Biso   1.000  Gd
  Gd8      1.0000 0.33565  0.97638  0.71692  Biso   1.000  Gd
  Ag5      1.0000 0.03877  0.22690  0.04865  Biso   1.000  Ag
  Ag6      1.0000 0.53877  0.77310  0.45135  Biso   1.000  Ag
  Ag7      1.0000 0.53877  0.72690  0.95135  Biso   1.000  Ag
  Ag8      1.0000 0.03877  0.27310  0.54865  Biso   1.000  Ag
  H33      1.0000 0.10090  0.35960  0.41890  Biso   1.000  H
  H34      1.0000 0.81660  0.29710  0.15960  Biso   1.000  H
  H35      1.0000 0.43780  0.40340  0.64330  Biso   1.000  H
  H36      1.0000 0.25400  0.33710  0.67310  Biso   1.000  H
  H37      1.0000 0.61760  0.43140  0.00400  Biso   1.000  H
  H38      1.0000 0.53350  0.45450  0.50810  Biso   1.000  H
  H39      1.0000 0.94260  0.29370  0.89970  Biso   1.000  H
  H40      1.0000 0.77930  0.36860  0.89440  Biso   1.000  H
  H41      1.0000 0.60090  0.64040  0.08110  Biso   1.000  H
  H42      1.0000 0.31660  0.70290  0.34040  Biso   1.000  H
  H43      1.0000 0.93780  0.59660  0.85670  Biso   1.000  H
  H44      1.0000 0.75400  0.66290  0.82690  Biso   1.000  H
  H45      1.0000 0.11760  0.56860  0.49600  Biso   1.000  H
  H46      1.0000 0.03350  0.54550  0.99190  Biso   1.000  H
  H47      1.0000 0.44260  0.70630  0.60030  Biso   1.000  H
  H48      1.0000 0.27930  0.63140  0.60560  Biso   1.000  H
  H49      1.0000 0.60090  0.85960  0.58110  Biso   1.000  H
  H50      1.0000 0.31660  0.79710  0.84040  Biso   1.000  H
  H51      1.0000 0.93780  0.90340  0.35670  Biso   1.000  H
  H52      1.0000 0.75400  0.83710  0.32690  Biso   1.000  H
  H53      1.0000 0.11760  0.93140  0.99600  Biso   1.000  H
  H54      1.0000 0.03350  0.95450  0.49190  Biso   1.000  H
  H55      1.0000 0.44260  0.79370  0.10030  Biso   1.000  H
  H56      1.0000 0.27930  0.86860  0.10560  Biso   1.000  H
  H57      1.0000 0.10090  0.14040  0.91890  Biso   1.000  H
  H58      1.0000 0.81660  0.20290  0.65960  Biso   1.000  H
  H59      1.0000 0.43780  0.09660  0.14330  Biso   1.000  H
  H60      1.0000 0.25400  0.16290  0.17310  Biso   1.000  H
  H61      1.0000 0.61760  0.06860  0.50400  Biso   1.000  H
  H62      1.0000 0.53350  0.04550  0.00810  Biso   1.000  H
  H63      1.0000 0.94260  0.20630  0.39970  Biso   1.000  H
  H64      1.0000 0.77930  0.13140  0.39440  Biso   1.000  H
  C73      1.0000 0.54930  0.45210  0.14520  Biso   1.000  C
  C74      1.0000 0.63500  0.40640  0.11160  Biso   1.000  C
  C75      1.0000 0.39470  0.44340  0.41780  Biso   1.000  C
  C76      1.0000 0.49020  0.48190  0.37190  Biso   1.000  C
  C77      1.0000 0.19150  0.42540  0.31490  Biso   1.000  C
  C78      1.0000 0.26000  0.41600  0.39060  Biso   1.000  C
  C79      1.0000 0.18540  0.37910  0.43660  Biso   1.000  C
  C80      1.0000 0.77980  0.32430  0.12920  Biso   1.000  C
  C81      1.0000 0.81040  0.32470  0.05260  Biso   1.000  C
  C82      1.0000 0.16030  0.63740  0.25830  Biso   1.000  C
  C83      1.0000 0.26810  0.35230  0.62610  Biso   1.000  C
  C84      1.0000 0.65920  0.40540  0.03510  Biso   1.000  C
  C85      1.0000 0.44570  0.43670  0.49050  Biso   1.000  C
  C86      1.0000 0.69360  0.36520  0.15880  Biso   1.000  C
  C87      1.0000 0.23910  0.37210  0.50910  Biso   1.000  C
  C88      1.0000 0.36150  0.40250  0.53680  Biso   1.000  C
  C89      1.0000 0.74860  0.36380  0.00570  Biso   1.000  C
  C90      1.0000 0.89180  0.30910  0.94030  Biso   1.000  C
  C91      1.0000 0.04930  0.54790  0.35480  Biso   1.000  C
  C92      1.0000 0.13500  0.59360  0.38840  Biso   1.000  C
  C93      1.0000 0.89470  0.55660  0.08220  Biso   1.000  C
  C94      1.0000 0.99020  0.51810  0.12810  Biso   1.000  C
  C95      1.0000 0.69150  0.57460  0.18510  Biso   1.000  C
  C96      1.0000 0.76000  0.58400  0.10940  Biso   1.000  C
  C97      1.0000 0.68540  0.62090  0.06340  Biso   1.000  C
  C98      1.0000 0.27980  0.67570  0.37080  Biso   1.000  C
  C99      1.0000 0.31040  0.67530  0.44740  Biso   1.000  C
  C100     1.0000 0.66030  0.36260  0.24170  Biso   1.000  C
  C101     1.0000 0.76810  0.64770  0.87390  Biso   1.000  C
  C102     1.0000 0.15920  0.59460  0.46490  Biso   1.000  C
  C103     1.0000 0.94570  0.56330  0.00950  Biso   1.000  C
  C104     1.0000 0.19360  0.63480  0.34120  Biso   1.000  C
  C105     1.0000 0.73910  0.62790  0.99090  Biso   1.000  C
  C106     1.0000 0.86150  0.59750  0.96320  Biso   1.000  C
  C107     1.0000 0.24860  0.63620  0.49430  Biso   1.000  C
  C108     1.0000 0.39180  0.69090  0.55970  Biso   1.000  C
  C109     1.0000 0.04930  0.95210  0.85480  Biso   1.000  C
  C110     1.0000 0.13500  0.90640  0.88840  Biso   1.000  C
  C111     1.0000 0.89470  0.94340  0.58220  Biso   1.000  C
  C112     1.0000 0.99020  0.98190  0.62810  Biso   1.000  C
  C113     1.0000 0.69150  0.92540  0.68510  Biso   1.000  C
  C114     1.0000 0.76000  0.91600  0.60940  Biso   1.000  C
  C115     1.0000 0.68540  0.87910  0.56340  Biso   1.000  C
  C116     1.0000 0.27980  0.82430  0.87080  Biso   1.000  C
  C117     1.0000 0.31040  0.82470  0.94740  Biso   1.000  C
  C118     1.0000 0.66030  0.13740  0.74170  Biso   1.000  C
  C119     1.0000 0.76810  0.85230  0.37390  Biso   1.000  C
  C120     1.0000 0.15920  0.90540  0.96490  Biso   1.000  C
  C121     1.0000 0.94570  0.93670  0.50950  Biso   1.000  C
  C122     1.0000 0.19360  0.86520  0.84120  Biso   1.000  C
  C123     1.0000 0.73910  0.87210  0.49090  Biso   1.000  C
  C124     1.0000 0.86150  0.90250  0.46320  Biso   1.000  C
  C125     1.0000 0.24860  0.86380  0.99430  Biso   1.000  C
  C126     1.0000 0.39180  0.80910  0.05970  Biso   1.000  C
  C127     1.0000 0.54930  0.04790  0.64520  Biso   1.000  C
  C128     1.0000 0.63500  0.09360  0.61160  Biso   1.000  C
  C129     1.0000 0.39470  0.05660  0.91780  Biso   1.000  C
  C130     1.0000 0.49020  0.01810  0.87190  Biso   1.000  C
  C131     1.0000 0.19150  0.07460  0.81490  Biso   1.000  C
  C132     1.0000 0.26000  0.08400  0.89060  Biso   1.000  C
  C133     1.0000 0.18540  0.12090  0.93660  Biso   1.000  C
  C134     1.0000 0.77980  0.17570  0.62920  Biso   1.000  C
  C135     1.0000 0.81040  0.17530  0.55260  Biso   1.000  C
  C136     1.0000 0.16030  0.86260  0.75830  Biso   1.000  C
  C137     1.0000 0.26810  0.14770  0.12610  Biso   1.000  C
  C138     1.0000 0.65920  0.09460  0.53510  Biso   1.000  C
  C139     1.0000 0.44570  0.06330  0.99050  Biso   1.000  C
  C140     1.0000 0.69360  0.13480  0.65880  Biso   1.000  C
  C141     1.0000 0.23910  0.12790  0.00910  Biso   1.000  C
  C142     1.0000 0.36150  0.09750  0.03680  Biso   1.000  C
  C143     1.0000 0.74860  0.13620  0.50570  Biso   1.000  C
  C144     1.0000 0.89180  0.19090  0.44030  Biso   1.000  C
  N17      1.0000 0.37370  0.38972  0.61160  Biso   1.000  N
  N18      1.0000 0.18610  0.33920  0.56640  Biso   1.000  N
  N19      1.0000 0.90180  0.29110  0.00920  Biso   1.000  N
  N20      1.0000 0.80110  0.35170  0.93490  Biso   1.000  N
  N21      1.0000 0.87370  0.61028  0.88840  Biso   1.000  N
  N22      1.0000 0.68610  0.66080  0.93360  Biso   1.000  N
  N23      1.0000 0.40180  0.70890  0.49080  Biso   1.000  N
  N24      1.0000 0.30110  0.64830  0.56510  Biso   1.000  N
  N25      1.0000 0.87370  0.88972  0.38840  Biso   1.000  N
  N26      1.0000 0.68610  0.83920  0.43360  Biso   1.000  N
  N27      1.0000 0.40180  0.79110  0.99080  Biso   1.000  N
  N28      1.0000 0.30110  0.85170  0.06510  Biso   1.000  N
  N29      1.0000 0.37370  0.11028  0.11160  Biso   1.000  N
  N30      1.0000 0.18610  0.16080  0.06640  Biso   1.000  N
  N31      1.0000 0.90180  0.20890  0.50920  Biso   1.000  N
  N32      1.0000 0.80110  0.14830  0.43490  Biso   1.000  N
  O33      1.0000 0.42260  0.52063  0.34020  Biso   1.000  O
  O34      1.0000 0.58860  0.46849  0.21080  Biso   1.000  O
  O35      1.0000 0.43820  0.47340  0.11140  Biso   1.000  O
  O36      1.0000 0.63470  0.47524  0.37250  Biso   1.000  O
  O37      1.0000 0.27770  0.43882  0.26100  Biso   1.000  O
  O38      1.0000 0.25330  0.61211  0.21460  Biso   1.000  O
  O39      1.0000 0.05330  0.66520  0.23510  Biso   1.000  O
  O40      1.0000 0.04590  0.41902  0.30850  Biso   1.000  O
  O41      1.0000 0.92260  0.47937  0.15980  Biso   1.000  O
  O42      1.0000 0.08860  0.53151  0.28920  Biso   1.000  O
  O43      1.0000 0.93820  0.52660  0.38860  Biso   1.000  O
  O44      1.0000 0.13470  0.52476  0.12750  Biso   1.000  O
  O45      1.0000 0.77770  0.56118  0.23900  Biso   1.000  O
  O46      1.0000 0.75330  0.38789  0.28540  Biso   1.000  O
  O47      1.0000 0.55330  0.33480  0.26490  Biso   1.000  O
  O48      1.0000 0.54590  0.58098  0.19150  Biso   1.000  O
  O49      1.0000 0.92260  0.02063  0.65980  Biso   1.000  O
  O50      1.0000 0.08860  0.96849  0.78920  Biso   1.000  O
  O51      1.0000 0.93820  0.97340  0.88860  Biso   1.000  O
  O52      1.0000 0.13470  0.97524  0.62750  Biso   1.000  O
  O53      1.0000 0.77770  0.93882  0.73900  Biso   1.000  O
  O54      1.0000 0.75330  0.11211  0.78540  Biso   1.000  O
  O55      1.0000 0.55330  0.16520  0.76490  Biso   1.000  O
  O56      1.0000 0.54590  0.91902  0.69150  Biso   1.000  O
  O57      1.0000 0.42260  0.97937  0.84020  Biso   1.000  O
  O58      1.0000 0.58860  0.03151  0.71080  Biso   1.000  O
  O59      1.0000 0.43820  0.02660  0.61140  Biso   1.000  O
  O60      1.0000 0.63470  0.02476  0.87250  Biso   1.000  O
  O61      1.0000 0.27770  0.06118  0.76100  Biso   1.000  O
  O62      1.0000 0.25330  0.88789  0.71460  Biso   1.000  O
  O63      1.0000 0.05330  0.83480  0.73510  Biso   1.000  O
  O64      1.0000 0.04590  0.08098  0.80850  Biso   1.000  O
