data_image0
_cell_length_a       8.5112
_cell_length_b       25.339
_cell_length_c       17.774
_cell_angle_alpha    90
_cell_angle_beta     90
_cell_angle_gamma    90

_symmetry_space_group_name_H-M    P 1
_symmetry_int_tables_number       1

loop_
  _symmetry_equiv_pos_as_xyz
  'x, y, z'

loop_
  _atom_site_label
  _atom_site_occupancy
  _atom_site_fract_x
  _atom_site_fract_y
  _atom_site_fract_z
  _atom_site_thermal_displace_type
  _atom_site_B_iso_or_equiv
  _atom_site_type_symbol
  Tb1      1.0000 0.33538  0.02407  0.78287  Biso   1.000  Tb
  Tb2      1.0000 0.83538  0.97593  0.71713  Biso   1.000  Tb
  Tb3      1.0000 0.83538  0.52407  0.21713  Biso   1.000  Tb
  Tb4      1.0000 0.33538  0.47593  0.28287  Biso   1.000  Tb
  Ag1      1.0000 0.03838  0.72700  0.94960  Biso   1.000  Ag
  Ag2      1.0000 0.53838  0.27300  0.55040  Biso   1.000  Ag
  Ag3      1.0000 0.53838  0.22700  0.05040  Biso   1.000  Ag
  Ag4      1.0000 0.03838  0.77300  0.44960  Biso   1.000  Ag
  H1       1.0000 0.43940  0.90460  0.35690  Biso   1.000  H
  H2       1.0000 0.78850  0.87030  0.10550  Biso   1.000  H
  H3       1.0000 0.09820  0.86110  0.58150  Biso   1.000  H
  H4       1.0000 0.25280  0.83850  0.32560  Biso   1.000  H
  H5       1.0000 0.53410  0.95500  0.49210  Biso   1.000  H
  H6       1.0000 0.62040  0.93300  0.99770  Biso   1.000  H
  H7       1.0000 0.94870  0.79470  0.09920  Biso   1.000  H
  H8       1.0000 0.80980  0.79800  0.83930  Biso   1.000  H
  H9       1.0000 0.93940  0.09540  0.14310  Biso   1.000  H
  H10      1.0000 0.28850  0.12970  0.39450  Biso   1.000  H
  H11      1.0000 0.59820  0.13890  0.91850  Biso   1.000  H
  H12      1.0000 0.75280  0.16150  0.17440  Biso   1.000  H
  H13      1.0000 0.03410  0.04500  0.00790  Biso   1.000  H
  H14      1.0000 0.12040  0.06700  0.50230  Biso   1.000  H
  H15      1.0000 0.44870  0.20530  0.40080  Biso   1.000  H
  H16      1.0000 0.30980  0.20200  0.66070  Biso   1.000  H
  H17      1.0000 0.93940  0.40460  0.64310  Biso   1.000  H
  H18      1.0000 0.28850  0.37030  0.89450  Biso   1.000  H
  H19      1.0000 0.59820  0.36110  0.41850  Biso   1.000  H
  H20      1.0000 0.75280  0.33850  0.67440  Biso   1.000  H
  H21      1.0000 0.03410  0.45500  0.50790  Biso   1.000  H
  H22      1.0000 0.12040  0.43300  0.00230  Biso   1.000  H
  H23      1.0000 0.44870  0.29470  0.90080  Biso   1.000  H
  H24      1.0000 0.30980  0.29800  0.16070  Biso   1.000  H
  H25      1.0000 0.43940  0.59540  0.85690  Biso   1.000  H
  H26      1.0000 0.78850  0.62970  0.60550  Biso   1.000  H
  H27      1.0000 0.09820  0.63890  0.08150  Biso   1.000  H
  H28      1.0000 0.25280  0.66150  0.82560  Biso   1.000  H
  H29      1.0000 0.53410  0.54500  0.99210  Biso   1.000  H
  H30      1.0000 0.62040  0.56700  0.49770  Biso   1.000  H
  H31      1.0000 0.94870  0.70530  0.59920  Biso   1.000  H
  H32      1.0000 0.80980  0.70200  0.33930  Biso   1.000  H
  C1       1.0000 0.19120  0.92590  0.68630  Biso   1.000  C
  C2       1.0000 0.25840  0.91690  0.60930  Biso   1.000  C
  C3       1.0000 0.18350  0.88034  0.56370  Biso   1.000  C
  C4       1.0000 0.23810  0.87293  0.49090  Biso   1.000  C
  C5       1.0000 0.26690  0.85346  0.37290  Biso   1.000  C
  C6       1.0000 0.36050  0.90382  0.46330  Biso   1.000  C
  C7       1.0000 0.44530  0.93756  0.50970  Biso   1.000  C
  C8       1.0000 0.39410  0.94442  0.58280  Biso   1.000  C
  C9       1.0000 0.48940  0.98251  0.62880  Biso   1.000  C
  C10      1.0000 0.54830  0.95374  0.85520  Biso   1.000  C
  C11      1.0000 0.63300  0.90797  0.88900  Biso   1.000  C
  C12      1.0000 0.66030  0.90702  0.96620  Biso   1.000  C
  C13      1.0000 0.75050  0.86516  0.99420  Biso   1.000  C
  C14      1.0000 0.89660  0.81018  0.05880  Biso   1.000  C
  C15      1.0000 0.80990  0.82576  0.94680  Biso   1.000  C
  C16      1.0000 0.77560  0.82538  0.87010  Biso   1.000  C
  C17      1.0000 0.68920  0.86699  0.84120  Biso   1.000  C
  C18      1.0000 0.65190  0.86516  0.75820  Biso   1.000  C
  C19      1.0000 0.69120  0.07410  0.81370  Biso   1.000  C
  C20      1.0000 0.75840  0.08310  0.89070  Biso   1.000  C
  C21      1.0000 0.68350  0.11966  0.93630  Biso   1.000  C
  C22      1.0000 0.73810  0.12707  0.00910  Biso   1.000  C
  C23      1.0000 0.76690  0.14654  0.12710  Biso   1.000  C
  C24      1.0000 0.86050  0.09618  0.03670  Biso   1.000  C
  C25      1.0000 0.94530  0.06244  0.99030  Biso   1.000  C
  C26      1.0000 0.89410  0.05558  0.91720  Biso   1.000  C
  C27      1.0000 0.98940  0.01749  0.87120  Biso   1.000  C
  C28      1.0000 0.04830  0.04626  0.64480  Biso   1.000  C
  C29      1.0000 0.13300  0.09203  0.61100  Biso   1.000  C
  C30      1.0000 0.16030  0.09298  0.53380  Biso   1.000  C
  C31      1.0000 0.25050  0.13484  0.50580  Biso   1.000  C
  C32      1.0000 0.39660  0.18982  0.44120  Biso   1.000  C
  C33      1.0000 0.30990  0.17424  0.55320  Biso   1.000  C
  C34      1.0000 0.27560  0.17462  0.62990  Biso   1.000  C
  C35      1.0000 0.18920  0.13301  0.65880  Biso   1.000  C
  C36      1.0000 0.15190  0.13484  0.74180  Biso   1.000  C
  C37      1.0000 0.69120  0.42590  0.31370  Biso   1.000  C
  C38      1.0000 0.75840  0.41690  0.39070  Biso   1.000  C
  C39      1.0000 0.68350  0.38034  0.43630  Biso   1.000  C
  C40      1.0000 0.73810  0.37293  0.50910  Biso   1.000  C
  C41      1.0000 0.76690  0.35346  0.62710  Biso   1.000  C
  C42      1.0000 0.86050  0.40382  0.53670  Biso   1.000  C
  C43      1.0000 0.94530  0.43756  0.49030  Biso   1.000  C
  C44      1.0000 0.89410  0.44442  0.41720  Biso   1.000  C
  C45      1.0000 0.98940  0.48251  0.37120  Biso   1.000  C
  C46      1.0000 0.04830  0.45374  0.14480  Biso   1.000  C
  C47      1.0000 0.13300  0.40797  0.11100  Biso   1.000  C
  C48      1.0000 0.16030  0.40702  0.03380  Biso   1.000  C
  C49      1.0000 0.25050  0.36516  0.00580  Biso   1.000  C
  C50      1.0000 0.39660  0.31018  0.94120  Biso   1.000  C
  C51      1.0000 0.30990  0.32576  0.05320  Biso   1.000  C
  C52      1.0000 0.27560  0.32538  0.12990  Biso   1.000  C
  C53      1.0000 0.18920  0.36699  0.15880  Biso   1.000  C
  C54      1.0000 0.15190  0.36516  0.24180  Biso   1.000  C
  C55      1.0000 0.19120  0.57410  0.18630  Biso   1.000  C
  C56      1.0000 0.25840  0.58310  0.10930  Biso   1.000  C
  C57      1.0000 0.18350  0.61966  0.06370  Biso   1.000  C
  C58      1.0000 0.23810  0.62707  0.99090  Biso   1.000  C
  C59      1.0000 0.26690  0.64654  0.87290  Biso   1.000  C
  C60      1.0000 0.36050  0.59618  0.96330  Biso   1.000  C
  C61      1.0000 0.44530  0.56244  0.00970  Biso   1.000  C
  C62      1.0000 0.39410  0.55558  0.08280  Biso   1.000  C
  C63      1.0000 0.48940  0.51749  0.12880  Biso   1.000  C
  C64      1.0000 0.54830  0.54626  0.35520  Biso   1.000  C
  C65      1.0000 0.63300  0.59203  0.38900  Biso   1.000  C
  C66      1.0000 0.66030  0.59298  0.46620  Biso   1.000  C
  C67      1.0000 0.75050  0.63484  0.49420  Biso   1.000  C
  C68      1.0000 0.89660  0.68982  0.55880  Biso   1.000  C
  C69      1.0000 0.80990  0.67424  0.44680  Biso   1.000  C
  C70      1.0000 0.77560  0.67462  0.37010  Biso   1.000  C
  C71      1.0000 0.68920  0.63301  0.34120  Biso   1.000  C
  C72      1.0000 0.65190  0.63484  0.25820  Biso   1.000  C
  N1       1.0000 0.18440  0.84037  0.43300  Biso   1.000  N
  N2       1.0000 0.37410  0.89103  0.38830  Biso   1.000  N
  N3       1.0000 0.90320  0.79182  0.98920  Biso   1.000  N
  N4       1.0000 0.80740  0.85310  0.06480  Biso   1.000  N
  N5       1.0000 0.68440  0.15963  0.06700  Biso   1.000  N
  N6       1.0000 0.87410  0.10897  0.11170  Biso   1.000  N
  N7       1.0000 0.40320  0.20818  0.51080  Biso   1.000  N
  N8       1.0000 0.30740  0.14690  0.43520  Biso   1.000  N
  N9       1.0000 0.68440  0.34037  0.56700  Biso   1.000  N
  N10      1.0000 0.87410  0.39103  0.61170  Biso   1.000  N
  N11      1.0000 0.40320  0.29182  0.01080  Biso   1.000  N
  N12      1.0000 0.30740  0.35310  0.93520  Biso   1.000  N
  N13      1.0000 0.18440  0.65963  0.93300  Biso   1.000  N
  N14      1.0000 0.37410  0.60897  0.88830  Biso   1.000  N
  N15      1.0000 0.90320  0.70818  0.48920  Biso   1.000  N
  N16      1.0000 0.80740  0.64690  0.56480  Biso   1.000  N
  O1       1.0000 0.04400  0.91869  0.69348  Biso   1.000  O
  O2       1.0000 0.27880  0.94012  0.73981  Biso   1.000  O
  O3       1.0000 0.42260  0.02137  0.66016  Biso   1.000  O
  O4       1.0000 0.63540  0.97544  0.62831  Biso   1.000  O
  O5       1.0000 0.43780  0.97560  0.88961  Biso   1.000  O
  O6       1.0000 0.58730  0.96929  0.78937  Biso   1.000  O
  O7       1.0000 0.75130  0.88836  0.71421  Biso   1.000  O
  O8       1.0000 0.53910  0.83959  0.73532  Biso   1.000  O
  O9       1.0000 0.54400  0.08131  0.80652  Biso   1.000  O
  O10      1.0000 0.77880  0.05988  0.76019  Biso   1.000  O
  O11      1.0000 0.92260  0.97863  0.83984  Biso   1.000  O
  O12      1.0000 0.13540  0.02456  0.87169  Biso   1.000  O
  O13      1.0000 0.93780  0.02440  0.61039  Biso   1.000  O
  O14      1.0000 0.08730  0.03071  0.71063  Biso   1.000  O
  O15      1.0000 0.25130  0.11164  0.78579  Biso   1.000  O
  O16      1.0000 0.03910  0.16041  0.76468  Biso   1.000  O
  O17      1.0000 0.54400  0.41869  0.30652  Biso   1.000  O
  O18      1.0000 0.77880  0.44012  0.26019  Biso   1.000  O
  O19      1.0000 0.92260  0.52137  0.33984  Biso   1.000  O
  O20      1.0000 0.13540  0.47544  0.37169  Biso   1.000  O
  O21      1.0000 0.93780  0.47560  0.11039  Biso   1.000  O
  O22      1.0000 0.08730  0.46929  0.21063  Biso   1.000  O
  O23      1.0000 0.25130  0.38836  0.28579  Biso   1.000  O
  O24      1.0000 0.03910  0.33959  0.26468  Biso   1.000  O
  O25      1.0000 0.04400  0.58131  0.19348  Biso   1.000  O
  O26      1.0000 0.27880  0.55988  0.23981  Biso   1.000  O
  O27      1.0000 0.42260  0.47863  0.16016  Biso   1.000  O
  O28      1.0000 0.63540  0.52456  0.12831  Biso   1.000  O
  O29      1.0000 0.43780  0.52440  0.38961  Biso   1.000  O
  O30      1.0000 0.58730  0.53071  0.28937  Biso   1.000  O
  O31      1.0000 0.75130  0.61164  0.21421  Biso   1.000  O
  O32      1.0000 0.53910  0.66041  0.23532  Biso   1.000  O
  Tb5      1.0000 0.16462  0.47593  0.78287  Biso   1.000  Tb
  Tb6      1.0000 0.66462  0.52407  0.71713  Biso   1.000  Tb
  Tb7      1.0000 0.66462  0.97593  0.21713  Biso   1.000  Tb
  Tb8      1.0000 0.16462  0.02407  0.28287  Biso   1.000  Tb
  Ag5      1.0000 0.46162  0.77300  0.94960  Biso   1.000  Ag
  Ag6      1.0000 0.96162  0.22700  0.55040  Biso   1.000  Ag
  Ag7      1.0000 0.96162  0.27300  0.05040  Biso   1.000  Ag
  Ag8      1.0000 0.46162  0.72700  0.44960  Biso   1.000  Ag
  H33      1.0000 0.06060  0.59540  0.35690  Biso   1.000  H
  H34      1.0000 0.71150  0.62970  0.10550  Biso   1.000  H
  H35      1.0000 0.40180  0.63890  0.58150  Biso   1.000  H
  H36      1.0000 0.24720  0.66150  0.32560  Biso   1.000  H
  H37      1.0000 0.96590  0.54500  0.49210  Biso   1.000  H
  H38      1.0000 0.87960  0.56700  0.99770  Biso   1.000  H
  H39      1.0000 0.55130  0.70530  0.09920  Biso   1.000  H
  H40      1.0000 0.69020  0.70200  0.83930  Biso   1.000  H
  H41      1.0000 0.56060  0.40460  0.14310  Biso   1.000  H
  H42      1.0000 0.21150  0.37030  0.39450  Biso   1.000  H
  H43      1.0000 0.90180  0.36110  0.91850  Biso   1.000  H
  H44      1.0000 0.74720  0.33850  0.17440  Biso   1.000  H
  H45      1.0000 0.46590  0.45500  0.00790  Biso   1.000  H
  H46      1.0000 0.37960  0.43300  0.50230  Biso   1.000  H
  H47      1.0000 0.05130  0.29470  0.40080  Biso   1.000  H
  H48      1.0000 0.19020  0.29800  0.66070  Biso   1.000  H
  H49      1.0000 0.56060  0.09540  0.64310  Biso   1.000  H
  H50      1.0000 0.21150  0.12970  0.89450  Biso   1.000  H
  H51      1.0000 0.90180  0.13890  0.41850  Biso   1.000  H
  H52      1.0000 0.74720  0.16150  0.67440  Biso   1.000  H
  H53      1.0000 0.46590  0.04500  0.50790  Biso   1.000  H
  H54      1.0000 0.37960  0.06700  0.00230  Biso   1.000  H
  H55      1.0000 0.05130  0.20530  0.90080  Biso   1.000  H
  H56      1.0000 0.19020  0.20200  0.16070  Biso   1.000  H
  H57      1.0000 0.06060  0.90460  0.85690  Biso   1.000  H
  H58      1.0000 0.71150  0.87030  0.60550  Biso   1.000  H
  H59      1.0000 0.40180  0.86110  0.08150  Biso   1.000  H
  H60      1.0000 0.24720  0.83850  0.82560  Biso   1.000  H
  H61      1.0000 0.96590  0.95500  0.99210  Biso   1.000  H
  H62      1.0000 0.87960  0.93300  0.49770  Biso   1.000  H
  H63      1.0000 0.55130  0.79470  0.59920  Biso   1.000  H
  H64      1.0000 0.69020  0.79800  0.33930  Biso   1.000  H
  C73      1.0000 0.30880  0.57410  0.68630  Biso   1.000  C
  C74      1.0000 0.24160  0.58310  0.60930  Biso   1.000  C
  C75      1.0000 0.31650  0.61966  0.56370  Biso   1.000  C
  C76      1.0000 0.26190  0.62707  0.49090  Biso   1.000  C
  C77      1.0000 0.23310  0.64654  0.37290  Biso   1.000  C
  C78      1.0000 0.13950  0.59618  0.46330  Biso   1.000  C
  C79      1.0000 0.05470  0.56244  0.50970  Biso   1.000  C
  C80      1.0000 0.10590  0.55558  0.58280  Biso   1.000  C
  C81      1.0000 0.01060  0.51749  0.62880  Biso   1.000  C
  C82      1.0000 0.95170  0.54626  0.85520  Biso   1.000  C
  C83      1.0000 0.86700  0.59203  0.88900  Biso   1.000  C
  C84      1.0000 0.83970  0.59298  0.96620  Biso   1.000  C
  C85      1.0000 0.74950  0.63484  0.99420  Biso   1.000  C
  C86      1.0000 0.60340  0.68982  0.05880  Biso   1.000  C
  C87      1.0000 0.69010  0.67424  0.94680  Biso   1.000  C
  C88      1.0000 0.72440  0.67462  0.87010  Biso   1.000  C
  C89      1.0000 0.81080  0.63301  0.84120  Biso   1.000  C
  C90      1.0000 0.84810  0.63484  0.75820  Biso   1.000  C
  C91      1.0000 0.80880  0.42590  0.81370  Biso   1.000  C
  C92      1.0000 0.74160  0.41690  0.89070  Biso   1.000  C
  C93      1.0000 0.81650  0.38034  0.93630  Biso   1.000  C
  C94      1.0000 0.76190  0.37293  0.00910  Biso   1.000  C
  C95      1.0000 0.73310  0.35346  0.12710  Biso   1.000  C
  C96      1.0000 0.63950  0.40382  0.03670  Biso   1.000  C
  C97      1.0000 0.55470  0.43756  0.99030  Biso   1.000  C
  C98      1.0000 0.60590  0.44442  0.91720  Biso   1.000  C
  C99      1.0000 0.51060  0.48251  0.87120  Biso   1.000  C
  C100     1.0000 0.45170  0.45374  0.64480  Biso   1.000  C
  C101     1.0000 0.36700  0.40797  0.61100  Biso   1.000  C
  C102     1.0000 0.33970  0.40702  0.53380  Biso   1.000  C
  C103     1.0000 0.24950  0.36516  0.50580  Biso   1.000  C
  C104     1.0000 0.10340  0.31018  0.44120  Biso   1.000  C
  C105     1.0000 0.19010  0.32576  0.55320  Biso   1.000  C
  C106     1.0000 0.22440  0.32538  0.62990  Biso   1.000  C
  C107     1.0000 0.31080  0.36699  0.65880  Biso   1.000  C
  C108     1.0000 0.34810  0.36516  0.74180  Biso   1.000  C
  C109     1.0000 0.80880  0.07410  0.31370  Biso   1.000  C
  C110     1.0000 0.74160  0.08310  0.39070  Biso   1.000  C
  C111     1.0000 0.81650  0.11966  0.43630  Biso   1.000  C
  C112     1.0000 0.76190  0.12707  0.50910  Biso   1.000  C
  C113     1.0000 0.73310  0.14654  0.62710  Biso   1.000  C
  C114     1.0000 0.63950  0.09618  0.53670  Biso   1.000  C
  C115     1.0000 0.55470  0.06244  0.49030  Biso   1.000  C
  C116     1.0000 0.60590  0.05558  0.41720  Biso   1.000  C
  C117     1.0000 0.51060  0.01749  0.37120  Biso   1.000  C
  C118     1.0000 0.45170  0.04626  0.14480  Biso   1.000  C
  C119     1.0000 0.36700  0.09203  0.11100  Biso   1.000  C
  C120     1.0000 0.33970  0.09298  0.03380  Biso   1.000  C
  C121     1.0000 0.24950  0.13484  0.00580  Biso   1.000  C
  C122     1.0000 0.10340  0.18982  0.94120  Biso   1.000  C
  C123     1.0000 0.19010  0.17424  0.05320  Biso   1.000  C
  C124     1.0000 0.22440  0.17462  0.12990  Biso   1.000  C
  C125     1.0000 0.31080  0.13301  0.15880  Biso   1.000  C
  C126     1.0000 0.34810  0.13484  0.24180  Biso   1.000  C
  C127     1.0000 0.30880  0.92590  0.18630  Biso   1.000  C
  C128     1.0000 0.24160  0.91690  0.10930  Biso   1.000  C
  C129     1.0000 0.31650  0.88034  0.06370  Biso   1.000  C
  C130     1.0000 0.26190  0.87293  0.99090  Biso   1.000  C
  C131     1.0000 0.23310  0.85346  0.87290  Biso   1.000  C
  C132     1.0000 0.13950  0.90382  0.96330  Biso   1.000  C
  C133     1.0000 0.05470  0.93756  0.00970  Biso   1.000  C
  C134     1.0000 0.10590  0.94442  0.08280  Biso   1.000  C
  C135     1.0000 0.01060  0.98251  0.12880  Biso   1.000  C
  C136     1.0000 0.95170  0.95374  0.35520  Biso   1.000  C
  C137     1.0000 0.86700  0.90797  0.38900  Biso   1.000  C
  C138     1.0000 0.83970  0.90702  0.46620  Biso   1.000  C
  C139     1.0000 0.74950  0.86516  0.49420  Biso   1.000  C
  C140     1.0000 0.60340  0.81018  0.55880  Biso   1.000  C
  C141     1.0000 0.69010  0.82576  0.44680  Biso   1.000  C
  C142     1.0000 0.72440  0.82538  0.37010  Biso   1.000  C
  C143     1.0000 0.81080  0.86699  0.34120  Biso   1.000  C
  C144     1.0000 0.84810  0.86516  0.25820  Biso   1.000  C
  N17      1.0000 0.31560  0.65963  0.43300  Biso   1.000  N
  N18      1.0000 0.12590  0.60897  0.38830  Biso   1.000  N
  N19      1.0000 0.59680  0.70818  0.98920  Biso   1.000  N
  N20      1.0000 0.69260  0.64690  0.06480  Biso   1.000  N
  N21      1.0000 0.81560  0.34037  0.06700  Biso   1.000  N
  N22      1.0000 0.62590  0.39103  0.11170  Biso   1.000  N
  N23      1.0000 0.09680  0.29182  0.51080  Biso   1.000  N
  N24      1.0000 0.19260  0.35310  0.43520  Biso   1.000  N
  N25      1.0000 0.81560  0.15963  0.56700  Biso   1.000  N
  N26      1.0000 0.62590  0.10897  0.61170  Biso   1.000  N
  N27      1.0000 0.09680  0.20818  0.01080  Biso   1.000  N
  N28      1.0000 0.19260  0.14690  0.93520  Biso   1.000  N
  N29      1.0000 0.31560  0.84037  0.93300  Biso   1.000  N
  N30      1.0000 0.12590  0.89103  0.88830  Biso   1.000  N
  N31      1.0000 0.59680  0.79182  0.48920  Biso   1.000  N
  N32      1.0000 0.69260  0.85310  0.56480  Biso   1.000  N
  O33      1.0000 0.45600  0.58131  0.69348  Biso   1.000  O
  O34      1.0000 0.22120  0.55988  0.73981  Biso   1.000  O
  O35      1.0000 0.07740  0.47863  0.66016  Biso   1.000  O
  O36      1.0000 0.86460  0.52456  0.62831  Biso   1.000  O
  O37      1.0000 0.06220  0.52440  0.88961  Biso   1.000  O
  O38      1.0000 0.91270  0.53071  0.78937  Biso   1.000  O
  O39      1.0000 0.74870  0.61164  0.71421  Biso   1.000  O
  O40      1.0000 0.96090  0.66041  0.73532  Biso   1.000  O
  O41      1.0000 0.95600  0.41869  0.80652  Biso   1.000  O
  O42      1.0000 0.72120  0.44012  0.76019  Biso   1.000  O
  O43      1.0000 0.57740  0.52137  0.83984  Biso   1.000  O
  O44      1.0000 0.36460  0.47544  0.87169  Biso   1.000  O
  O45      1.0000 0.56220  0.47560  0.61039  Biso   1.000  O
  O46      1.0000 0.41270  0.46929  0.71063  Biso   1.000  O
  O47      1.0000 0.24870  0.38836  0.78579  Biso   1.000  O
  O48      1.0000 0.46090  0.33959  0.76468  Biso   1.000  O
  O49      1.0000 0.95600  0.08131  0.30652  Biso   1.000  O
  O50      1.0000 0.72120  0.05988  0.26019  Biso   1.000  O
  O51      1.0000 0.57740  0.97863  0.33984  Biso   1.000  O
  O52      1.0000 0.36460  0.02456  0.37169  Biso   1.000  O
  O53      1.0000 0.56220  0.02440  0.11039  Biso   1.000  O
  O54      1.0000 0.41270  0.03071  0.21063  Biso   1.000  O
  O55      1.0000 0.24870  0.11164  0.28579  Biso   1.000  O
  O56      1.0000 0.46090  0.16041  0.26468  Biso   1.000  O
  O57      1.0000 0.45600  0.91869  0.19348  Biso   1.000  O
  O58      1.0000 0.22120  0.94012  0.23981  Biso   1.000  O
  O59      1.0000 0.07740  0.02137  0.16016  Biso   1.000  O
  O60      1.0000 0.86460  0.97544  0.12831  Biso   1.000  O
  O61      1.0000 0.06220  0.97560  0.38961  Biso   1.000  O
  O62      1.0000 0.91270  0.96929  0.28937  Biso   1.000  O
  O63      1.0000 0.74870  0.88836  0.21421  Biso   1.000  O
  O64      1.0000 0.96090  0.83959  0.23532  Biso   1.000  O
