data_image0
_cell_length_a       8.4884
_cell_length_b       25.37
_cell_length_c       17.806
_cell_angle_alpha    90
_cell_angle_beta     90
_cell_angle_gamma    90

_symmetry_space_group_name_H-M    P 1
_symmetry_int_tables_number       1

loop_
  _symmetry_equiv_pos_as_xyz
  'x, y, z'

loop_
  _atom_site_label
  _atom_site_occupancy
  _atom_site_fract_x
  _atom_site_fract_y
  _atom_site_fract_z
  _atom_site_thermal_displace_type
  _atom_site_B_iso_or_equiv
  _atom_site_type_symbol
  Ho1      1.0000 0.16574  0.02336  0.78249  Biso   1.000  Ho
  Ho2      1.0000 0.66574  0.97664  0.71751  Biso   1.000  Ho
  Ho3      1.0000 0.66574  0.52336  0.21751  Biso   1.000  Ho
  Ho4      1.0000 0.16574  0.47664  0.28249  Biso   1.000  Ho
  Ag1      1.0000 0.46163  0.72731  0.95174  Biso   1.000  Ag
  Ag2      1.0000 0.96163  0.27269  0.54826  Biso   1.000  Ag
  Ag3      1.0000 0.96163  0.22731  0.04826  Biso   1.000  Ag
  Ag4      1.0000 0.46163  0.77269  0.45174  Biso   1.000  Ag
  H1       1.0000 0.05980  0.90370  0.35770  Biso   1.000  H
  H2       1.0000 0.72080  0.86930  0.10590  Biso   1.000  H
  H3       1.0000 0.96470  0.95490  0.49260  Biso   1.000  H
  H4       1.0000 0.24690  0.83790  0.32720  Biso   1.000  H
  H5       1.0000 0.40110  0.86070  0.58240  Biso   1.000  H
  H6       1.0000 0.88280  0.93290  0.99670  Biso   1.000  H
  H7       1.0000 0.55650  0.79490  0.10040  Biso   1.000  H
  H8       1.0000 0.68790  0.79810  0.84050  Biso   1.000  H
  H9       1.0000 0.55980  0.09630  0.14230  Biso   1.000  H
  H10      1.0000 0.22080  0.13070  0.39410  Biso   1.000  H
  H11      1.0000 0.46470  0.04510  0.00740  Biso   1.000  H
  H12      1.0000 0.74690  0.16210  0.17280  Biso   1.000  H
  H13      1.0000 0.90110  0.13930  0.91760  Biso   1.000  H
  H14      1.0000 0.38280  0.06710  0.50330  Biso   1.000  H
  H15      1.0000 0.05650  0.20510  0.39960  Biso   1.000  H
  H16      1.0000 0.18790  0.20190  0.65950  Biso   1.000  H
  H17      1.0000 0.55980  0.40370  0.64230  Biso   1.000  H
  H18      1.0000 0.22080  0.36930  0.89410  Biso   1.000  H
  H19      1.0000 0.46470  0.45490  0.50740  Biso   1.000  H
  H20      1.0000 0.74690  0.33790  0.67280  Biso   1.000  H
  H21      1.0000 0.90110  0.36070  0.41760  Biso   1.000  H
  H22      1.0000 0.38280  0.43290  0.00330  Biso   1.000  H
  H23      1.0000 0.05650  0.29490  0.89960  Biso   1.000  H
  H24      1.0000 0.18790  0.29810  0.15950  Biso   1.000  H
  H25      1.0000 0.05980  0.59630  0.85770  Biso   1.000  H
  H26      1.0000 0.72080  0.63070  0.60590  Biso   1.000  H
  H27      1.0000 0.96470  0.54510  0.99260  Biso   1.000  H
  H28      1.0000 0.24690  0.66210  0.82720  Biso   1.000  H
  H29      1.0000 0.40110  0.63930  0.08240  Biso   1.000  H
  H30      1.0000 0.88280  0.56710  0.49670  Biso   1.000  H
  H31      1.0000 0.55650  0.70510  0.60040  Biso   1.000  H
  H32      1.0000 0.68790  0.70190  0.34050  Biso   1.000  H
  C1       1.0000 0.01020  0.98272  0.62930  Biso   1.000  C
  C2       1.0000 0.10540  0.94435  0.58320  Biso   1.000  C
  C3       1.0000 0.05350  0.93741  0.51030  Biso   1.000  C
  C4       1.0000 0.13830  0.90334  0.46420  Biso   1.000  C
  C5       1.0000 0.23230  0.85281  0.37440  Biso   1.000  C
  C6       1.0000 0.26070  0.87250  0.49210  Biso   1.000  C
  C7       1.0000 0.31570  0.87999  0.56450  Biso   1.000  C
  C8       1.0000 0.24110  0.91690  0.61000  Biso   1.000  C
  C9       1.0000 0.31080  0.92663  0.68590  Biso   1.000  C
  C10      1.0000 0.95200  0.95335  0.85400  Biso   1.000  C
  C11      1.0000 0.86600  0.90770  0.88790  Biso   1.000  C
  C12      1.0000 0.84170  0.90684  0.96560  Biso   1.000  C
  C13      1.0000 0.75310  0.86514  0.99430  Biso   1.000  C
  C14      1.0000 0.60830  0.81011  0.05980  Biso   1.000  C
  C15      1.0000 0.69140  0.82586  0.94760  Biso   1.000  C
  C16      1.0000 0.72340  0.82545  0.87090  Biso   1.000  C
  C17      1.0000 0.80900  0.86670  0.84090  Biso   1.000  C
  C18      1.0000 0.84270  0.86473  0.75780  Biso   1.000  C
  C19      1.0000 0.51020  0.01728  0.87070  Biso   1.000  C
  C20      1.0000 0.60540  0.05565  0.91680  Biso   1.000  C
  C21      1.0000 0.55350  0.06259  0.98970  Biso   1.000  C
  C22      1.0000 0.63830  0.09666  0.03580  Biso   1.000  C
  C23      1.0000 0.73230  0.14719  0.12560  Biso   1.000  C
  C24      1.0000 0.76070  0.12750  0.00790  Biso   1.000  C
  C25      1.0000 0.81570  0.12001  0.93550  Biso   1.000  C
  C26      1.0000 0.74110  0.08310  0.89000  Biso   1.000  C
  C27      1.0000 0.81080  0.07337  0.81410  Biso   1.000  C
  C28      1.0000 0.45200  0.04665  0.64600  Biso   1.000  C
  C29      1.0000 0.36600  0.09230  0.61210  Biso   1.000  C
  C30      1.0000 0.34170  0.09316  0.53440  Biso   1.000  C
  C31      1.0000 0.25310  0.13486  0.50570  Biso   1.000  C
  C32      1.0000 0.10830  0.18989  0.44020  Biso   1.000  C
  C33      1.0000 0.19140  0.17414  0.55240  Biso   1.000  C
  C34      1.0000 0.22340  0.17455  0.62910  Biso   1.000  C
  C35      1.0000 0.30900  0.13330  0.65910  Biso   1.000  C
  C36      1.0000 0.34270  0.13527  0.74220  Biso   1.000  C
  C37      1.0000 0.51020  0.48272  0.37070  Biso   1.000  C
  C38      1.0000 0.60540  0.44435  0.41680  Biso   1.000  C
  C39      1.0000 0.55350  0.43741  0.48970  Biso   1.000  C
  C40      1.0000 0.63830  0.40334  0.53580  Biso   1.000  C
  C41      1.0000 0.73230  0.35281  0.62560  Biso   1.000  C
  C42      1.0000 0.76070  0.37250  0.50790  Biso   1.000  C
  C43      1.0000 0.81570  0.37999  0.43550  Biso   1.000  C
  C44      1.0000 0.74110  0.41690  0.39000  Biso   1.000  C
  C45      1.0000 0.81080  0.42663  0.31410  Biso   1.000  C
  C46      1.0000 0.45200  0.45335  0.14600  Biso   1.000  C
  C47      1.0000 0.36600  0.40770  0.11210  Biso   1.000  C
  C48      1.0000 0.34170  0.40684  0.03440  Biso   1.000  C
  C49      1.0000 0.25310  0.36514  0.00570  Biso   1.000  C
  C50      1.0000 0.10830  0.31011  0.94020  Biso   1.000  C
  C51      1.0000 0.19140  0.32586  0.05240  Biso   1.000  C
  C52      1.0000 0.22340  0.32545  0.12910  Biso   1.000  C
  C53      1.0000 0.30900  0.36670  0.15910  Biso   1.000  C
  C54      1.0000 0.34270  0.36473  0.24220  Biso   1.000  C
  C55      1.0000 0.01020  0.51728  0.12930  Biso   1.000  C
  C56      1.0000 0.10540  0.55565  0.08320  Biso   1.000  C
  C57      1.0000 0.05350  0.56259  0.01030  Biso   1.000  C
  C58      1.0000 0.13830  0.59666  0.96420  Biso   1.000  C
  C59      1.0000 0.23230  0.64719  0.87440  Biso   1.000  C
  C60      1.0000 0.26070  0.62750  0.99210  Biso   1.000  C
  C61      1.0000 0.31570  0.62001  0.06450  Biso   1.000  C
  C62      1.0000 0.24110  0.58310  0.11000  Biso   1.000  C
  C63      1.0000 0.31080  0.57337  0.18590  Biso   1.000  C
  C64      1.0000 0.95200  0.54665  0.35400  Biso   1.000  C
  C65      1.0000 0.86600  0.59230  0.38790  Biso   1.000  C
  C66      1.0000 0.84170  0.59316  0.46560  Biso   1.000  C
  C67      1.0000 0.75310  0.63486  0.49430  Biso   1.000  C
  C68      1.0000 0.60830  0.68989  0.55980  Biso   1.000  C
  C69      1.0000 0.69140  0.67414  0.44760  Biso   1.000  C
  C70      1.0000 0.72340  0.67455  0.37090  Biso   1.000  C
  C71      1.0000 0.80900  0.63330  0.34090  Biso   1.000  C
  C72      1.0000 0.84270  0.63527  0.25780  Biso   1.000  C
  N1       1.0000 0.12510  0.89028  0.38929  Biso   1.000  N
  N2       1.0000 0.31460  0.83955  0.43452  Biso   1.000  N
  N3       1.0000 0.59950  0.79178  0.99055  Biso   1.000  N
  N4       1.0000 0.69920  0.85255  0.06521  Biso   1.000  N
  N5       1.0000 0.62510  0.10972  0.11071  Biso   1.000  N
  N6       1.0000 0.81460  0.16045  0.06548  Biso   1.000  N
  N7       1.0000 0.09950  0.20822  0.50945  Biso   1.000  N
  N8       1.0000 0.19920  0.14745  0.43479  Biso   1.000  N
  N9       1.0000 0.62510  0.39028  0.61071  Biso   1.000  N
  N10      1.0000 0.81460  0.33955  0.56548  Biso   1.000  N
  N11      1.0000 0.09950  0.29178  0.00945  Biso   1.000  N
  N12      1.0000 0.19920  0.35255  0.93479  Biso   1.000  N
  N13      1.0000 0.12510  0.60972  0.88929  Biso   1.000  N
  N14      1.0000 0.31460  0.66045  0.93452  Biso   1.000  N
  N15      1.0000 0.59950  0.70822  0.49055  Biso   1.000  N
  N16      1.0000 0.69920  0.64745  0.56521  Biso   1.000  N
  O1       1.0000 0.07790  0.02106  0.66116  Biso   1.000  O
  O2       1.0000 0.86390  0.97599  0.62882  Biso   1.000  O
  O3       1.0000 0.22440  0.94015  0.74011  Biso   1.000  O
  O4       1.0000 0.45780  0.92025  0.69172  Biso   1.000  O
  O5       1.0000 0.06460  0.97478  0.88761  Biso   1.000  O
  O6       1.0000 0.91190  0.96901  0.78855  Biso   1.000  O
  O7       1.0000 0.74780  0.88979  0.71460  Biso   1.000  O
  O8       1.0000 0.94970  0.83663  0.73435  Biso   1.000  O
  O9       1.0000 0.57790  0.97894  0.83884  Biso   1.000  O
  O10      1.0000 0.36390  0.02401  0.87118  Biso   1.000  O
  O11      1.0000 0.72440  0.05985  0.75989  Biso   1.000  O
  O12      1.0000 0.95780  0.07975  0.80828  Biso   1.000  O
  O13      1.0000 0.56460  0.02522  0.61239  Biso   1.000  O
  O14      1.0000 0.41190  0.03099  0.71145  Biso   1.000  O
  O15      1.0000 0.24780  0.11021  0.78540  Biso   1.000  O
  O16      1.0000 0.44970  0.16337  0.76565  Biso   1.000  O
  O17      1.0000 0.57790  0.52106  0.33884  Biso   1.000  O
  O18      1.0000 0.36390  0.47599  0.37118  Biso   1.000  O
  O19      1.0000 0.72440  0.44015  0.25989  Biso   1.000  O
  O20      1.0000 0.95780  0.42025  0.30828  Biso   1.000  O
  O21      1.0000 0.56460  0.47478  0.11239  Biso   1.000  O
  O22      1.0000 0.41190  0.46901  0.21145  Biso   1.000  O
  O23      1.0000 0.24780  0.38979  0.28540  Biso   1.000  O
  O24      1.0000 0.44970  0.33663  0.26565  Biso   1.000  O
  O25      1.0000 0.07790  0.47894  0.16116  Biso   1.000  O
  O26      1.0000 0.86390  0.52401  0.12882  Biso   1.000  O
  O27      1.0000 0.22440  0.55985  0.24011  Biso   1.000  O
  O28      1.0000 0.45780  0.57975  0.19172  Biso   1.000  O
  O29      1.0000 0.06460  0.52522  0.38761  Biso   1.000  O
  O30      1.0000 0.91190  0.53099  0.28855  Biso   1.000  O
  O31      1.0000 0.74780  0.61021  0.21460  Biso   1.000  O
  O32      1.0000 0.94970  0.66337  0.23435  Biso   1.000  O
  Ho5      1.0000 0.33426  0.47664  0.78249  Biso   1.000  Ho
  Ho6      1.0000 0.83426  0.52336  0.71751  Biso   1.000  Ho
  Ho7      1.0000 0.83426  0.97664  0.21751  Biso   1.000  Ho
  Ho8      1.0000 0.33426  0.02336  0.28249  Biso   1.000  Ho
  Ag5      1.0000 0.03837  0.77269  0.95174  Biso   1.000  Ag
  Ag6      1.0000 0.53837  0.22731  0.54826  Biso   1.000  Ag
  Ag7      1.0000 0.53837  0.27269  0.04826  Biso   1.000  Ag
  Ag8      1.0000 0.03837  0.72731  0.45174  Biso   1.000  Ag
  H33      1.0000 0.44020  0.59630  0.35770  Biso   1.000  H
  H34      1.0000 0.77920  0.63070  0.10590  Biso   1.000  H
  H35      1.0000 0.53530  0.54510  0.49260  Biso   1.000  H
  H36      1.0000 0.25310  0.66210  0.32720  Biso   1.000  H
  H37      1.0000 0.09890  0.63930  0.58240  Biso   1.000  H
  H38      1.0000 0.61720  0.56710  0.99670  Biso   1.000  H
  H39      1.0000 0.94350  0.70510  0.10040  Biso   1.000  H
  H40      1.0000 0.81210  0.70190  0.84050  Biso   1.000  H
  H41      1.0000 0.94020  0.40370  0.14230  Biso   1.000  H
  H42      1.0000 0.27920  0.36930  0.39410  Biso   1.000  H
  H43      1.0000 0.03530  0.45490  0.00740  Biso   1.000  H
  H44      1.0000 0.75310  0.33790  0.17280  Biso   1.000  H
  H45      1.0000 0.59890  0.36070  0.91760  Biso   1.000  H
  H46      1.0000 0.11720  0.43290  0.50330  Biso   1.000  H
  H47      1.0000 0.44350  0.29490  0.39960  Biso   1.000  H
  H48      1.0000 0.31210  0.29810  0.65950  Biso   1.000  H
  H49      1.0000 0.94020  0.09630  0.64230  Biso   1.000  H
  H50      1.0000 0.27920  0.13070  0.89410  Biso   1.000  H
  H51      1.0000 0.03530  0.04510  0.50740  Biso   1.000  H
  H52      1.0000 0.75310  0.16210  0.67280  Biso   1.000  H
  H53      1.0000 0.59890  0.13930  0.41760  Biso   1.000  H
  H54      1.0000 0.11720  0.06710  0.00330  Biso   1.000  H
  H55      1.0000 0.44350  0.20510  0.89960  Biso   1.000  H
  H56      1.0000 0.31210  0.20190  0.15950  Biso   1.000  H
  H57      1.0000 0.44020  0.90370  0.85770  Biso   1.000  H
  H58      1.0000 0.77920  0.86930  0.60590  Biso   1.000  H
  H59      1.0000 0.53530  0.95490  0.99260  Biso   1.000  H
  H60      1.0000 0.25310  0.83790  0.82720  Biso   1.000  H
  H61      1.0000 0.09890  0.86070  0.08240  Biso   1.000  H
  H62      1.0000 0.61720  0.93290  0.49670  Biso   1.000  H
  H63      1.0000 0.94350  0.79490  0.60040  Biso   1.000  H
  H64      1.0000 0.81210  0.79810  0.34050  Biso   1.000  H
  C73      1.0000 0.48980  0.51728  0.62930  Biso   1.000  C
  C74      1.0000 0.39460  0.55565  0.58320  Biso   1.000  C
  C75      1.0000 0.44650  0.56259  0.51030  Biso   1.000  C
  C76      1.0000 0.36170  0.59666  0.46420  Biso   1.000  C
  C77      1.0000 0.26770  0.64719  0.37440  Biso   1.000  C
  C78      1.0000 0.23930  0.62750  0.49210  Biso   1.000  C
  C79      1.0000 0.18430  0.62001  0.56450  Biso   1.000  C
  C80      1.0000 0.25890  0.58310  0.61000  Biso   1.000  C
  C81      1.0000 0.18920  0.57337  0.68590  Biso   1.000  C
  C82      1.0000 0.54800  0.54665  0.85400  Biso   1.000  C
  C83      1.0000 0.63400  0.59230  0.88790  Biso   1.000  C
  C84      1.0000 0.65830  0.59316  0.96560  Biso   1.000  C
  C85      1.0000 0.74690  0.63486  0.99430  Biso   1.000  C
  C86      1.0000 0.89170  0.68989  0.05980  Biso   1.000  C
  C87      1.0000 0.80860  0.67414  0.94760  Biso   1.000  C
  C88      1.0000 0.77660  0.67455  0.87090  Biso   1.000  C
  C89      1.0000 0.69100  0.63330  0.84090  Biso   1.000  C
  C90      1.0000 0.65730  0.63527  0.75780  Biso   1.000  C
  C91      1.0000 0.98980  0.48272  0.87070  Biso   1.000  C
  C92      1.0000 0.89460  0.44435  0.91680  Biso   1.000  C
  C93      1.0000 0.94650  0.43741  0.98970  Biso   1.000  C
  C94      1.0000 0.86170  0.40334  0.03580  Biso   1.000  C
  C95      1.0000 0.76770  0.35281  0.12560  Biso   1.000  C
  C96      1.0000 0.73930  0.37250  0.00790  Biso   1.000  C
  C97      1.0000 0.68430  0.37999  0.93550  Biso   1.000  C
  C98      1.0000 0.75890  0.41690  0.89000  Biso   1.000  C
  C99      1.0000 0.68920  0.42663  0.81410  Biso   1.000  C
  C100     1.0000 0.04800  0.45335  0.64600  Biso   1.000  C
  C101     1.0000 0.13400  0.40770  0.61210  Biso   1.000  C
  C102     1.0000 0.15830  0.40684  0.53440  Biso   1.000  C
  C103     1.0000 0.24690  0.36514  0.50570  Biso   1.000  C
  C104     1.0000 0.39170  0.31011  0.44020  Biso   1.000  C
  C105     1.0000 0.30860  0.32586  0.55240  Biso   1.000  C
  C106     1.0000 0.27660  0.32545  0.62910  Biso   1.000  C
  C107     1.0000 0.19100  0.36670  0.65910  Biso   1.000  C
  C108     1.0000 0.15730  0.36473  0.74220  Biso   1.000  C
  C109     1.0000 0.98980  0.01728  0.37070  Biso   1.000  C
  C110     1.0000 0.89460  0.05565  0.41680  Biso   1.000  C
  C111     1.0000 0.94650  0.06259  0.48970  Biso   1.000  C
  C112     1.0000 0.86170  0.09666  0.53580  Biso   1.000  C
  C113     1.0000 0.76770  0.14719  0.62560  Biso   1.000  C
  C114     1.0000 0.73930  0.12750  0.50790  Biso   1.000  C
  C115     1.0000 0.68430  0.12001  0.43550  Biso   1.000  C
  C116     1.0000 0.75890  0.08310  0.39000  Biso   1.000  C
  C117     1.0000 0.68920  0.07337  0.31410  Biso   1.000  C
  C118     1.0000 0.04800  0.04665  0.14600  Biso   1.000  C
  C119     1.0000 0.13400  0.09230  0.11210  Biso   1.000  C
  C120     1.0000 0.15830  0.09316  0.03440  Biso   1.000  C
  C121     1.0000 0.24690  0.13486  0.00570  Biso   1.000  C
  C122     1.0000 0.39170  0.18989  0.94020  Biso   1.000  C
  C123     1.0000 0.30860  0.17414  0.05240  Biso   1.000  C
  C124     1.0000 0.27660  0.17455  0.12910  Biso   1.000  C
  C125     1.0000 0.19100  0.13330  0.15910  Biso   1.000  C
  C126     1.0000 0.15730  0.13527  0.24220  Biso   1.000  C
  C127     1.0000 0.48980  0.98272  0.12930  Biso   1.000  C
  C128     1.0000 0.39460  0.94435  0.08320  Biso   1.000  C
  C129     1.0000 0.44650  0.93741  0.01030  Biso   1.000  C
  C130     1.0000 0.36170  0.90334  0.96420  Biso   1.000  C
  C131     1.0000 0.26770  0.85281  0.87440  Biso   1.000  C
  C132     1.0000 0.23930  0.87250  0.99210  Biso   1.000  C
  C133     1.0000 0.18430  0.87999  0.06450  Biso   1.000  C
  C134     1.0000 0.25890  0.91690  0.11000  Biso   1.000  C
  C135     1.0000 0.18920  0.92663  0.18590  Biso   1.000  C
  C136     1.0000 0.54800  0.95335  0.35400  Biso   1.000  C
  C137     1.0000 0.63400  0.90770  0.38790  Biso   1.000  C
  C138     1.0000 0.65830  0.90684  0.46560  Biso   1.000  C
  C139     1.0000 0.74690  0.86514  0.49430  Biso   1.000  C
  C140     1.0000 0.89170  0.81011  0.55980  Biso   1.000  C
  C141     1.0000 0.80860  0.82586  0.44760  Biso   1.000  C
  C142     1.0000 0.77660  0.82545  0.37090  Biso   1.000  C
  C143     1.0000 0.69100  0.86670  0.34090  Biso   1.000  C
  C144     1.0000 0.65730  0.86473  0.25780  Biso   1.000  C
  N17      1.0000 0.37490  0.60972  0.38929  Biso   1.000  N
  N18      1.0000 0.18540  0.66045  0.43452  Biso   1.000  N
  N19      1.0000 0.90050  0.70822  0.99055  Biso   1.000  N
  N20      1.0000 0.80080  0.64745  0.06521  Biso   1.000  N
  N21      1.0000 0.87490  0.39028  0.11071  Biso   1.000  N
  N22      1.0000 0.68540  0.33955  0.06548  Biso   1.000  N
  N23      1.0000 0.40050  0.29178  0.50945  Biso   1.000  N
  N24      1.0000 0.30080  0.35255  0.43479  Biso   1.000  N
  N25      1.0000 0.87490  0.10972  0.61071  Biso   1.000  N
  N26      1.0000 0.68540  0.16045  0.56548  Biso   1.000  N
  N27      1.0000 0.40050  0.20822  0.00945  Biso   1.000  N
  N28      1.0000 0.30080  0.14745  0.93479  Biso   1.000  N
  N29      1.0000 0.37490  0.89028  0.88929  Biso   1.000  N
  N30      1.0000 0.18540  0.83955  0.93452  Biso   1.000  N
  N31      1.0000 0.90050  0.79178  0.49055  Biso   1.000  N
  N32      1.0000 0.80080  0.85255  0.56521  Biso   1.000  N
  O33      1.0000 0.42210  0.47894  0.66116  Biso   1.000  O
  O34      1.0000 0.63610  0.52401  0.62882  Biso   1.000  O
  O35      1.0000 0.27560  0.55985  0.74011  Biso   1.000  O
  O36      1.0000 0.04220  0.57975  0.69172  Biso   1.000  O
  O37      1.0000 0.43540  0.52522  0.88761  Biso   1.000  O
  O38      1.0000 0.58810  0.53099  0.78855  Biso   1.000  O
  O39      1.0000 0.75220  0.61021  0.71460  Biso   1.000  O
  O40      1.0000 0.55030  0.66337  0.73435  Biso   1.000  O
  O41      1.0000 0.92210  0.52106  0.83884  Biso   1.000  O
  O42      1.0000 0.13610  0.47599  0.87118  Biso   1.000  O
  O43      1.0000 0.77560  0.44015  0.75989  Biso   1.000  O
  O44      1.0000 0.54220  0.42025  0.80828  Biso   1.000  O
  O45      1.0000 0.93540  0.47478  0.61239  Biso   1.000  O
  O46      1.0000 0.08810  0.46901  0.71145  Biso   1.000  O
  O47      1.0000 0.25220  0.38979  0.78540  Biso   1.000  O
  O48      1.0000 0.05030  0.33663  0.76565  Biso   1.000  O
  O49      1.0000 0.92210  0.97894  0.33884  Biso   1.000  O
  O50      1.0000 0.13610  0.02401  0.37118  Biso   1.000  O
  O51      1.0000 0.77560  0.05985  0.25989  Biso   1.000  O
  O52      1.0000 0.54220  0.07975  0.30828  Biso   1.000  O
  O53      1.0000 0.93540  0.02522  0.11239  Biso   1.000  O
  O54      1.0000 0.08810  0.03099  0.21145  Biso   1.000  O
  O55      1.0000 0.25220  0.11021  0.28540  Biso   1.000  O
  O56      1.0000 0.05030  0.16337  0.26565  Biso   1.000  O
  O57      1.0000 0.42210  0.02106  0.16116  Biso   1.000  O
  O58      1.0000 0.63610  0.97599  0.12882  Biso   1.000  O
  O59      1.0000 0.27560  0.94015  0.24011  Biso   1.000  O
  O60      1.0000 0.04220  0.92025  0.19172  Biso   1.000  O
  O61      1.0000 0.43540  0.97478  0.38761  Biso   1.000  O
  O62      1.0000 0.58810  0.96901  0.28855  Biso   1.000  O
  O63      1.0000 0.75220  0.88979  0.21460  Biso   1.000  O
  O64      1.0000 0.55030  0.83663  0.23435  Biso   1.000  O
