data_image0
_cell_length_a       15.4974
_cell_length_b       15.4974
_cell_length_c       16.723
_cell_angle_alpha    78.8202
_cell_angle_beta     78.8202
_cell_angle_gamma    66.6183

_symmetry_space_group_name_H-M    P 1
_symmetry_int_tables_number       1

loop_
  _symmetry_equiv_pos_as_xyz
  'x, y, z'

loop_
  _atom_site_label
  _atom_site_occupancy
  _atom_site_fract_x
  _atom_site_fract_y
  _atom_site_fract_z
  _atom_site_thermal_displace_type
  _atom_site_B_iso_or_equiv
  _atom_site_type_symbol
  U1       1.0000 0.61614  0.57008  0.55190  Biso   1.000  U
  U2       1.0000 0.62752  0.10270  0.62610  Biso   1.000  U
  U3       1.0000 0.92420  0.87272  0.46879  Biso   1.000  U
  U4       1.0000 0.74442  0.74140  0.76944  Biso   1.000  U
  U5       1.0000 0.42992  0.38386  0.94810  Biso   1.000  U
  U6       1.0000 0.89730  0.37248  0.87390  Biso   1.000  U
  U7       1.0000 0.12728  0.07580  0.03121  Biso   1.000  U
  U8       1.0000 0.25860  0.25558  0.73056  Biso   1.000  U
  U9       1.0000 0.38386  0.42992  0.44810  Biso   1.000  U
  U10      1.0000 0.37248  0.89730  0.37390  Biso   1.000  U
  U11      1.0000 0.07580  0.12728  0.53121  Biso   1.000  U
  U12      1.0000 0.25558  0.25860  0.23056  Biso   1.000  U
  U13      1.0000 0.57008  0.61614  0.05190  Biso   1.000  U
  U14      1.0000 0.10270  0.62752  0.12610  Biso   1.000  U
  U15      1.0000 0.87272  0.92420  0.96879  Biso   1.000  U
  U16      1.0000 0.74140  0.74442  0.26944  Biso   1.000  U
  P1       1.0000 0.46784  0.28492  0.75682  Biso   1.000  P
  P2       1.0000 0.71191  0.86407  0.56484  Biso   1.000  P
  P3       1.0000 0.78771  0.95153  0.77492  Biso   1.000  P
  P4       1.0000 0.55851  0.36135  0.59454  Biso   1.000  P
  P5       1.0000 0.88192  0.03792  0.61701  Biso   1.000  P
  P6       1.0000 0.59869  0.80637  0.46541  Biso   1.000  P
  P7       1.0000 0.71508  0.53216  0.74318  Biso   1.000  P
  P8       1.0000 0.13593  0.28809  0.93516  Biso   1.000  P
  P9       1.0000 0.04847  0.21229  0.72508  Biso   1.000  P
  P10      1.0000 0.63865  0.44149  0.90546  Biso   1.000  P
  P11      1.0000 0.96208  0.11808  0.88299  Biso   1.000  P
  P12      1.0000 0.19363  0.40131  0.03459  Biso   1.000  P
  P13      1.0000 0.53216  0.71508  0.24318  Biso   1.000  P
  P14      1.0000 0.28809  0.13593  0.43516  Biso   1.000  P
  P15      1.0000 0.21229  0.04847  0.22508  Biso   1.000  P
  P16      1.0000 0.44149  0.63865  0.40546  Biso   1.000  P
  P17      1.0000 0.11808  0.96208  0.38299  Biso   1.000  P
  P18      1.0000 0.40131  0.19363  0.53459  Biso   1.000  P
  P19      1.0000 0.28492  0.46784  0.25682  Biso   1.000  P
  P20      1.0000 0.86407  0.71191  0.06484  Biso   1.000  P
  P21      1.0000 0.95153  0.78771  0.27492  Biso   1.000  P
  P22      1.0000 0.36135  0.55851  0.09454  Biso   1.000  P
  P23      1.0000 0.03792  0.88192  0.11701  Biso   1.000  P
  P24      1.0000 0.80637  0.59869  0.96541  Biso   1.000  P
  H1       1.0000 0.57910  0.35330  0.72890  Biso   1.000  H
  H2       1.0000 0.47980  0.42980  0.71170  Biso   1.000  H
  H3       1.0000 0.94030  0.94530  0.73260  Biso   1.000  H
  H4       1.0000 0.87440  0.04700  0.75270  Biso   1.000  H
  H5       1.0000 0.61700  0.94500  0.46550  Biso   1.000  H
  H6       1.0000 0.55630  0.92250  0.54670  Biso   1.000  H
  H7       1.0000 0.64670  0.42090  0.77110  Biso   1.000  H
  H8       1.0000 0.57020  0.52020  0.78830  Biso   1.000  H
  H9       1.0000 0.05470  0.05970  0.76740  Biso   1.000  H
  H10      1.0000 0.95300  0.12560  0.74730  Biso   1.000  H
  H11      1.0000 0.05500  0.38300  0.03450  Biso   1.000  H
  H12      1.0000 0.07750  0.44370  0.95330  Biso   1.000  H
  H13      1.0000 0.42090  0.64670  0.27110  Biso   1.000  H
  H14      1.0000 0.52020  0.57020  0.28830  Biso   1.000  H
  H15      1.0000 0.05970  0.05470  0.26740  Biso   1.000  H
  H16      1.0000 0.12560  0.95300  0.24730  Biso   1.000  H
  H17      1.0000 0.38300  0.05500  0.53450  Biso   1.000  H
  H18      1.0000 0.44370  0.07750  0.45330  Biso   1.000  H
  H19      1.0000 0.35330  0.57910  0.22890  Biso   1.000  H
  H20      1.0000 0.42980  0.47980  0.21170  Biso   1.000  H
  H21      1.0000 0.94530  0.94030  0.23260  Biso   1.000  H
  H22      1.0000 0.04700  0.87440  0.25270  Biso   1.000  H
  H23      1.0000 0.94500  0.61700  0.96550  Biso   1.000  H
  H24      1.0000 0.92250  0.55630  0.04670  Biso   1.000  H
  C1       1.0000 0.52320  0.36580  0.70360  Biso   1.000  C
  C2       1.0000 0.87960  0.99580  0.72440  Biso   1.000  C
  C3       1.0000 0.61360  0.89520  0.50970  Biso   1.000  C
  C4       1.0000 0.63420  0.47680  0.79640  Biso   1.000  C
  C5       1.0000 0.00420  0.12040  0.77560  Biso   1.000  C
  C6       1.0000 0.10480  0.38640  0.99030  Biso   1.000  C
  C7       1.0000 0.47680  0.63420  0.29640  Biso   1.000  C
  C8       1.0000 0.12040  0.00420  0.27560  Biso   1.000  C
  C9       1.0000 0.38640  0.10480  0.49030  Biso   1.000  C
  C10      1.0000 0.36580  0.52320  0.20360  Biso   1.000  C
  C11      1.0000 0.99580  0.87960  0.22440  Biso   1.000  C
  C12      1.0000 0.89520  0.61360  0.00970  Biso   1.000  C
  O1       1.0000 0.81650  0.85010  0.75760  Biso   1.000  O
  O2       1.0000 0.69470  0.01850  0.74420  Biso   1.000  O
  O3       1.0000 0.94650  0.09450  0.59650  Biso   1.000  O
  O4       1.0000 0.69820  0.79960  0.64340  Biso   1.000  O
  O5       1.0000 0.62470  0.41690  0.56700  Biso   1.000  O
  O6       1.0000 0.52960  0.18640  0.73410  Biso   1.000  O
  O7       1.0000 0.61340  0.25780  0.58290  Biso   1.000  O
  O8       1.0000 0.53900  0.99660  0.70100  Biso   1.000  O
  O9       1.0000 0.36830  0.32030  0.73230  Biso   1.000  O
  O10      1.0000 0.80430  0.81410  0.51210  Biso   1.000  O
  O11      1.0000 0.46590  0.28550  0.84970  Biso   1.000  O
  O12      1.0000 0.71990  0.54450  0.47810  Biso   1.000  O
  O13      1.0000 0.78180  0.95600  0.86710  Biso   1.000  O
  O14      1.0000 0.63290  0.82610  0.80820  Biso   1.000  O
  O15      1.0000 0.85740  0.66160  0.72880  Biso   1.000  O
  O16      1.0000 0.77980  0.10340  0.60270  Biso   1.000  O
  O17      1.0000 0.47000  0.40520  0.55100  Biso   1.000  O
  O18      1.0000 0.71190  0.95730  0.58210  Biso   1.000  O
  O19      1.0000 0.68360  0.77020  0.40190  Biso   1.000  O
  O20      1.0000 0.51460  0.59340  0.62830  Biso   1.000  O
  O21      1.0000 0.84810  0.97590  0.41230  Biso   1.000  O
  O22      1.0000 0.59160  0.72760  0.53310  Biso   1.000  O
  O23      1.0000 0.50640  0.85660  0.42690  Biso   1.000  O
  O24      1.0000 0.99950  0.77010  0.52570  Biso   1.000  O
  O25      1.0000 0.67120  0.12160  0.47000  Biso   1.000  O
  O26      1.0000 0.92120  0.95220  0.57020  Biso   1.000  O
  O27      1.0000 0.14990  0.18350  0.74240  Biso   1.000  O
  O28      1.0000 0.98150  0.30530  0.75580  Biso   1.000  O
  O29      1.0000 0.90550  0.05350  0.90350  Biso   1.000  O
  O30      1.0000 0.20040  0.30180  0.85660  Biso   1.000  O
  O31      1.0000 0.58310  0.37530  0.93300  Biso   1.000  O
  O32      1.0000 0.81360  0.47040  0.76590  Biso   1.000  O
  O33      1.0000 0.74220  0.38660  0.91710  Biso   1.000  O
  O34      1.0000 0.00340  0.46100  0.79900  Biso   1.000  O
  O35      1.0000 0.67970  0.63170  0.76770  Biso   1.000  O
  O36      1.0000 0.18590  0.19570  0.98790  Biso   1.000  O
  O37      1.0000 0.71450  0.53410  0.65030  Biso   1.000  O
  O38      1.0000 0.45550  0.28010  0.02190  Biso   1.000  O
  O39      1.0000 0.04400  0.21820  0.63290  Biso   1.000  O
  O40      1.0000 0.17390  0.36710  0.69180  Biso   1.000  O
  O41      1.0000 0.33840  0.14260  0.77120  Biso   1.000  O
  O42      1.0000 0.89660  0.22020  0.89730  Biso   1.000  O
  O43      1.0000 0.59480  0.53000  0.94900  Biso   1.000  O
  O44      1.0000 0.04270  0.28810  0.91790  Biso   1.000  O
  O45      1.0000 0.22980  0.31640  0.09810  Biso   1.000  O
  O46      1.0000 0.40660  0.48540  0.87170  Biso   1.000  O
  O47      1.0000 0.02410  0.15190  0.08770  Biso   1.000  O
  O48      1.0000 0.27240  0.40840  0.96690  Biso   1.000  O
  O49      1.0000 0.14340  0.49360  0.07310  Biso   1.000  O
  O50      1.0000 0.22990  0.00050  0.97430  Biso   1.000  O
  O51      1.0000 0.87840  0.32880  0.03000  Biso   1.000  O
  O52      1.0000 0.04780  0.07880  0.92980  Biso   1.000  O
  O53      1.0000 0.18350  0.14990  0.24240  Biso   1.000  O
  O54      1.0000 0.30530  0.98150  0.25580  Biso   1.000  O
  O55      1.0000 0.05350  0.90550  0.40350  Biso   1.000  O
  O56      1.0000 0.30180  0.20040  0.35660  Biso   1.000  O
  O57      1.0000 0.37530  0.58310  0.43300  Biso   1.000  O
  O58      1.0000 0.47040  0.81360  0.26590  Biso   1.000  O
  O59      1.0000 0.38660  0.74220  0.41710  Biso   1.000  O
  O60      1.0000 0.46100  0.00340  0.29900  Biso   1.000  O
  O61      1.0000 0.63170  0.67970  0.26770  Biso   1.000  O
  O62      1.0000 0.19570  0.18590  0.48790  Biso   1.000  O
  O63      1.0000 0.53410  0.71450  0.15030  Biso   1.000  O
  O64      1.0000 0.28010  0.45550  0.52190  Biso   1.000  O
  O65      1.0000 0.21820  0.04400  0.13290  Biso   1.000  O
  O66      1.0000 0.36710  0.17390  0.19180  Biso   1.000  O
  O67      1.0000 0.14260  0.33840  0.27120  Biso   1.000  O
  O68      1.0000 0.22020  0.89660  0.39730  Biso   1.000  O
  O69      1.0000 0.53000  0.59480  0.44900  Biso   1.000  O
  O70      1.0000 0.28810  0.04270  0.41790  Biso   1.000  O
  O71      1.0000 0.31640  0.22980  0.59810  Biso   1.000  O
  O72      1.0000 0.48540  0.40660  0.37170  Biso   1.000  O
  O73      1.0000 0.15190  0.02410  0.58770  Biso   1.000  O
  O74      1.0000 0.40840  0.27240  0.46690  Biso   1.000  O
  O75      1.0000 0.49360  0.14340  0.57310  Biso   1.000  O
  O76      1.0000 0.00050  0.22990  0.47430  Biso   1.000  O
  O77      1.0000 0.32880  0.87840  0.53000  Biso   1.000  O
  O78      1.0000 0.07880  0.04780  0.42980  Biso   1.000  O
  O79      1.0000 0.85010  0.81650  0.25760  Biso   1.000  O
  O80      1.0000 0.01850  0.69470  0.24420  Biso   1.000  O
  O81      1.0000 0.09450  0.94650  0.09650  Biso   1.000  O
  O82      1.0000 0.79960  0.69820  0.14340  Biso   1.000  O
  O83      1.0000 0.41690  0.62470  0.06700  Biso   1.000  O
  O84      1.0000 0.18640  0.52960  0.23410  Biso   1.000  O
  O85      1.0000 0.25780  0.61340  0.08290  Biso   1.000  O
  O86      1.0000 0.99660  0.53900  0.20100  Biso   1.000  O
  O87      1.0000 0.32030  0.36830  0.23230  Biso   1.000  O
  O88      1.0000 0.81410  0.80430  0.01210  Biso   1.000  O
  O89      1.0000 0.28550  0.46590  0.34970  Biso   1.000  O
  O90      1.0000 0.54450  0.71990  0.97810  Biso   1.000  O
  O91      1.0000 0.95600  0.78180  0.36710  Biso   1.000  O
  O92      1.0000 0.82610  0.63290  0.30820  Biso   1.000  O
  O93      1.0000 0.66160  0.85740  0.22880  Biso   1.000  O
  O94      1.0000 0.10340  0.77980  0.10270  Biso   1.000  O
  O95      1.0000 0.40520  0.47000  0.05100  Biso   1.000  O
  O96      1.0000 0.95730  0.71190  0.08210  Biso   1.000  O
  O97      1.0000 0.77020  0.68360  0.90190  Biso   1.000  O
  O98      1.0000 0.59340  0.51460  0.12830  Biso   1.000  O
  O99      1.0000 0.97590  0.84810  0.91230  Biso   1.000  O
  O100     1.0000 0.72760  0.59160  0.03310  Biso   1.000  O
  O101     1.0000 0.85660  0.50640  0.92690  Biso   1.000  O
  O102     1.0000 0.77010  0.99950  0.02570  Biso   1.000  O
  O103     1.0000 0.12160  0.67120  0.97000  Biso   1.000  O
  O104     1.0000 0.95220  0.92120  0.07020  Biso   1.000  O
