data_image0
_cell_length_a       8.0267
_cell_length_b       19.4307
_cell_length_c       8.9609
_cell_angle_alpha    90
_cell_angle_beta     93.286
_cell_angle_gamma    90

_symmetry_space_group_name_H-M    "P 1"
_symmetry_int_tables_number       1

loop_
  _symmetry_equiv_pos_as_xyz
  'x, y, z'

loop_
  _atom_site_label
  _atom_site_occupancy
  _atom_site_fract_x
  _atom_site_fract_y
  _atom_site_fract_z
  _atom_site_thermal_displace_type
  _atom_site_B_iso_or_equiv
  _atom_site_type_symbol
  N1       1.0000 0.86720  0.07640  0.08060  Biso   1.000  N
  N2       1.0000 0.69340  0.08080  0.07090  Biso   1.000  N
  N3       1.0000 0.79820  0.17480  0.17080  Biso   1.000  N
  N4       1.0000 0.82240  0.24020  0.23250  Biso   1.000  N
  N5       1.0000 0.68850  0.27230  0.22580  Biso   1.000  N
  N6       1.0000 0.71290  0.33700  0.28960  Biso   1.000  N
  N7       1.0000 0.63650  0.42890  0.40450  Biso   1.000  N
  N8       1.0000 0.81070  0.42400  0.42260  Biso   1.000  N
  N9       1.0000 0.14720  0.00330  0.18760  Biso   1.000  N
  N10      1.0000 0.07110  0.00680  0.32500  Biso   1.000  N
  N11      1.0000 0.34220  0.00370  0.36580  Biso   1.000  N
  N12      1.0000 0.50290  0.00080  0.43090  Biso   1.000  N
  C1       1.0000 0.92670  0.13250  0.14310  Biso   1.000  C
  H1       1.0000 0.04150  0.14210  0.16560  Biso   1.000  H
  C2       1.0000 0.65530  0.14010  0.12560  Biso   1.000  C
  H2       1.0000 0.54500  0.15700  0.13310  Biso   1.000  H
  C3       1.0000 0.58180  0.37640  0.32540  Biso   1.000  C
  H3       1.0000 0.46800  0.36730  0.29740  Biso   1.000  H
  C4       1.0000 0.85150  0.36810  0.35520  Biso   1.000  C
  H4       1.0000 0.96210  0.35110  0.35170  Biso   1.000  H
  C5       1.0000 0.30930  0.00160  0.21360  Biso   1.000  C
  H5       1.0000 0.38990  0.99920  0.14020  Biso   1.000  H
  C6       1.0000 0.19020  0.00680  0.42930  Biso   1.000  C
  H6       1.0000 0.17480  0.00870  0.53360  Biso   1.000  H
  N13      1.0000 0.63280  0.57640  0.41940  Biso   1.000  N
  N14      1.0000 0.80660  0.58080  0.42910  Biso   1.000  N
  N15      1.0000 0.70180  0.67480  0.32920  Biso   1.000  N
  N16      1.0000 0.67760  0.74020  0.26750  Biso   1.000  N
  N17      1.0000 0.81150  0.77230  0.27420  Biso   1.000  N
  N18      1.0000 0.78710  0.83700  0.21040  Biso   1.000  N
  N19      1.0000 0.86350  0.92890  0.09550  Biso   1.000  N
  N20      1.0000 0.68930  0.92400  0.07740  Biso   1.000  N
  N21      1.0000 0.35280  0.50330  0.31240  Biso   1.000  N
  N22      1.0000 0.42890  0.50680  0.17500  Biso   1.000  N
  N23      1.0000 0.15780  0.50370  0.13420  Biso   1.000  N
  N24      1.0000 0.99710  0.50080  0.06910  Biso   1.000  N
  C7       1.0000 0.57330  0.63250  0.35690  Biso   1.000  C
  H7       1.0000 0.45850  0.64210  0.33440  Biso   1.000  H
  C8       1.0000 0.84470  0.64010  0.37440  Biso   1.000  C
  H8       1.0000 0.95500  0.65700  0.36690  Biso   1.000  H
  C9       1.0000 0.91820  0.87640  0.17460  Biso   1.000  C
  H9       1.0000 0.03200  0.86730  0.20260  Biso   1.000  H
  C10      1.0000 0.64850  0.86810  0.14480  Biso   1.000  C
  H10      1.0000 0.53790  0.85110  0.14830  Biso   1.000  H
  C11      1.0000 0.19070  0.50160  0.28640  Biso   1.000  C
  H11      1.0000 0.11010  0.49920  0.35980  Biso   1.000  H
  C12      1.0000 0.30980  0.50680  0.07070  Biso   1.000  C
  H12      1.0000 0.32520  0.50870  0.96640  Biso   1.000  H
  N25      1.0000 0.13280  0.92360  0.91940  Biso   1.000  N
  N26      1.0000 0.30660  0.91920  0.92910  Biso   1.000  N
  N27      1.0000 0.20180  0.82520  0.82920  Biso   1.000  N
  N28      1.0000 0.17760  0.75980  0.76750  Biso   1.000  N
  N29      1.0000 0.31150  0.72770  0.77420  Biso   1.000  N
  N30      1.0000 0.28710  0.66300  0.71040  Biso   1.000  N
  N31      1.0000 0.36350  0.57110  0.59550  Biso   1.000  N
  N32      1.0000 0.18930  0.57600  0.57740  Biso   1.000  N
  N33      1.0000 0.85280  0.99670  0.81240  Biso   1.000  N
  N34      1.0000 0.92890  0.99320  0.67500  Biso   1.000  N
  N35      1.0000 0.65780  0.99630  0.63420  Biso   1.000  N
  N36      1.0000 0.49710  0.99920  0.56910  Biso   1.000  N
  C13      1.0000 0.07330  0.86750  0.85690  Biso   1.000  C
  H13      1.0000 0.95850  0.85790  0.83440  Biso   1.000  H
  C14      1.0000 0.34470  0.85990  0.87440  Biso   1.000  C
  H14      1.0000 0.45500  0.84300  0.86690  Biso   1.000  H
  C15      1.0000 0.41820  0.62360  0.67460  Biso   1.000  C
  H15      1.0000 0.53200  0.63270  0.70260  Biso   1.000  H
  C16      1.0000 0.14850  0.63190  0.64480  Biso   1.000  C
  H16      1.0000 0.03790  0.64890  0.64830  Biso   1.000  H
  C17      1.0000 0.69070  0.99840  0.78640  Biso   1.000  C
  H17      1.0000 0.61010  0.00080  0.85980  Biso   1.000  H
  C18      1.0000 0.80980  0.99320  0.57070  Biso   1.000  C
  H18      1.0000 0.82520  0.99130  0.46640  Biso   1.000  H
  N37      1.0000 0.36720  0.42360  0.58060  Biso   1.000  N
  N38      1.0000 0.19340  0.41920  0.57090  Biso   1.000  N
  N39      1.0000 0.29820  0.32520  0.67080  Biso   1.000  N
  N40      1.0000 0.32240  0.25980  0.73250  Biso   1.000  N
  N41      1.0000 0.18850  0.22770  0.72580  Biso   1.000  N
  N42      1.0000 0.21290  0.16300  0.78960  Biso   1.000  N
  N43      1.0000 0.13650  0.07110  0.90450  Biso   1.000  N
  N44      1.0000 0.31070  0.07600  0.92260  Biso   1.000  N
  N45      1.0000 0.64720  0.49670  0.68760  Biso   1.000  N
  N46      1.0000 0.57110  0.49320  0.82500  Biso   1.000  N
  N47      1.0000 0.84220  0.49630  0.86580  Biso   1.000  N
  N48      1.0000 0.00290  0.49920  0.93090  Biso   1.000  N
  C19      1.0000 0.42670  0.36750  0.64310  Biso   1.000  C
  H19      1.0000 0.54150  0.35790  0.66560  Biso   1.000  H
  C20      1.0000 0.15530  0.35990  0.62560  Biso   1.000  C
  H20      1.0000 0.04500  0.34300  0.63310  Biso   1.000  H
  C21      1.0000 0.08180  0.12360  0.82540  Biso   1.000  C
  H21      1.0000 0.96800  0.13270  0.79740  Biso   1.000  H
  C22      1.0000 0.35150  0.13190  0.85520  Biso   1.000  C
  H22      1.0000 0.46210  0.14890  0.85170  Biso   1.000  H
  C23      1.0000 0.80930  0.49840  0.71360  Biso   1.000  C
  H23      1.0000 0.88990  0.50080  0.64020  Biso   1.000  H
  C24      1.0000 0.69020  0.49320  0.92930  Biso   1.000  C
  H24      1.0000 0.67480  0.49130  0.03360  Biso   1.000  H
  Fe1      1.0000 0.00000  0.00000  0.00000  Biso   1.000  Fe
  Fe2      1.0000 0.50000  0.50000  0.50000  Biso   1.000  Fe
