data_image0
_cell_length_a       8.3587
_cell_length_b       15.2253
_cell_length_c       15.2253
_cell_angle_alpha    90
_cell_angle_beta     90
_cell_angle_gamma    90

_symmetry_space_group_name_H-M    P 1
_symmetry_int_tables_number       1

loop_
  _symmetry_equiv_pos_as_xyz
  'x, y, z'

loop_
  _atom_site_label
  _atom_site_occupancy
  _atom_site_fract_x
  _atom_site_fract_y
  _atom_site_fract_z
  _atom_site_thermal_displace_type
  _atom_site_B_iso_or_equiv
  _atom_site_type_symbol
  Mg1      1.0000 0.37003  0.11057  0.99945  Biso   1.000  Mg
  Mg2      1.0000 0.87003  0.88943  0.00055  Biso   1.000  Mg
  Mg3      1.0000 0.62003  0.50055  0.61057  Biso   1.000  Mg
  Mg4      1.0000 0.12003  0.49945  0.38943  Biso   1.000  Mg
  Mg5      1.0000 0.87997  0.38943  0.49945  Biso   1.000  Mg
  Mg6      1.0000 0.37997  0.61057  0.50055  Biso   1.000  Mg
  Mg7      1.0000 0.62997  0.99945  0.11057  Biso   1.000  Mg
  Mg8      1.0000 0.12997  0.00055  0.88943  Biso   1.000  Mg
  Mg9      1.0000 0.00000  0.09891  0.09891  Biso   1.000  Mg
  Mg10     1.0000 0.00000  0.24748  0.24748  Biso   1.000  Mg
  Mg11     1.0000 0.50000  0.90109  0.90109  Biso   1.000  Mg
  Mg12     1.0000 0.50000  0.75252  0.75252  Biso   1.000  Mg
  Mg13     1.0000 0.25000  0.40109  0.59891  Biso   1.000  Mg
  Mg14     1.0000 0.25000  0.25252  0.74748  Biso   1.000  Mg
  Mg15     1.0000 0.75000  0.59891  0.40109  Biso   1.000  Mg
  Mg16     1.0000 0.75000  0.74748  0.25252  Biso   1.000  Mg
  H1       1.0000 0.92020  0.36580  0.14160  Biso   1.000  H
  H2       1.0000 0.87050  0.30190  0.09950  Biso   1.000  H
  H3       1.0000 0.92270  0.96300  0.13270  Biso   1.000  H
  H4       1.0000 0.54160  0.36950  0.18710  Biso   1.000  H
  H5       1.0000 0.42020  0.63420  0.85840  Biso   1.000  H
  H6       1.0000 0.37050  0.69810  0.90050  Biso   1.000  H
  H7       1.0000 0.42270  0.03700  0.86730  Biso   1.000  H
  H8       1.0000 0.04160  0.63050  0.81290  Biso   1.000  H
  H9       1.0000 0.17020  0.35840  0.86580  Biso   1.000  H
  H10      1.0000 0.12050  0.40050  0.80190  Biso   1.000  H
  H11      1.0000 0.17270  0.36730  0.46300  Biso   1.000  H
  H12      1.0000 0.79160  0.31290  0.86950  Biso   1.000  H
  H13      1.0000 0.67020  0.64160  0.13420  Biso   1.000  H
  H14      1.0000 0.62050  0.59950  0.19810  Biso   1.000  H
  H15      1.0000 0.67270  0.63270  0.53700  Biso   1.000  H
  H16      1.0000 0.29160  0.68710  0.13050  Biso   1.000  H
  H17      1.0000 0.32980  0.13420  0.64160  Biso   1.000  H
  H18      1.0000 0.37950  0.19810  0.59950  Biso   1.000  H
  H19      1.0000 0.32730  0.53700  0.63270  Biso   1.000  H
  H20      1.0000 0.70840  0.13050  0.68710  Biso   1.000  H
  H21      1.0000 0.82980  0.86580  0.35840  Biso   1.000  H
  H22      1.0000 0.87950  0.80190  0.40050  Biso   1.000  H
  H23      1.0000 0.82730  0.46300  0.36730  Biso   1.000  H
  H24      1.0000 0.20840  0.86950  0.31290  Biso   1.000  H
  H25      1.0000 0.07980  0.14160  0.36580  Biso   1.000  H
  H26      1.0000 0.12950  0.09950  0.30190  Biso   1.000  H
  H27      1.0000 0.07730  0.13270  0.96300  Biso   1.000  H
  H28      1.0000 0.45840  0.18710  0.36950  Biso   1.000  H
  H29      1.0000 0.57980  0.85840  0.63420  Biso   1.000  H
  H30      1.0000 0.62950  0.90050  0.69810  Biso   1.000  H
  H31      1.0000 0.57730  0.86730  0.03700  Biso   1.000  H
  H32      1.0000 0.95840  0.81290  0.63050  Biso   1.000  H
  C1       1.0000 0.27454  0.24422  0.13532  Biso   1.000  C
  C2       1.0000 0.45947  0.49625  0.33333  Biso   1.000  C
  C3       1.0000 0.38467  0.42523  0.28131  Biso   1.000  C
  C4       1.0000 0.30642  0.31677  0.19755  Biso   1.000  C
  C5       1.0000 0.43658  0.37168  0.21291  Biso   1.000  C
  C6       1.0000 0.77454  0.75578  0.86468  Biso   1.000  C
  C7       1.0000 0.95947  0.50375  0.66667  Biso   1.000  C
  C8       1.0000 0.88467  0.57477  0.71869  Biso   1.000  C
  C9       1.0000 0.80642  0.68323  0.80245  Biso   1.000  C
  C10      1.0000 0.93658  0.62832  0.78709  Biso   1.000  C
  C11      1.0000 0.52454  0.36468  0.74422  Biso   1.000  C
  C12      1.0000 0.70947  0.16667  0.99625  Biso   1.000  C
  C13      1.0000 0.63467  0.21869  0.92523  Biso   1.000  C
  C14      1.0000 0.55642  0.30245  0.81677  Biso   1.000  C
  C15      1.0000 0.68658  0.28709  0.87168  Biso   1.000  C
  C16      1.0000 0.02454  0.63532  0.25578  Biso   1.000  C
  C17      1.0000 0.20947  0.83333  0.00375  Biso   1.000  C
  C18      1.0000 0.13467  0.78131  0.07477  Biso   1.000  C
  C19      1.0000 0.05642  0.69755  0.18323  Biso   1.000  C
  C20      1.0000 0.18658  0.71291  0.12832  Biso   1.000  C
  C21      1.0000 0.97546  0.25578  0.63532  Biso   1.000  C
  C22      1.0000 0.79053  0.00375  0.83333  Biso   1.000  C
  C23      1.0000 0.86533  0.07477  0.78131  Biso   1.000  C
  C24      1.0000 0.94358  0.18323  0.69755  Biso   1.000  C
  C25      1.0000 0.81342  0.12832  0.71291  Biso   1.000  C
  C26      1.0000 0.47546  0.74422  0.36468  Biso   1.000  C
  C27      1.0000 0.29053  0.99625  0.16667  Biso   1.000  C
  C28      1.0000 0.36533  0.92523  0.21869  Biso   1.000  C
  C29      1.0000 0.44358  0.81677  0.30245  Biso   1.000  C
  C30      1.0000 0.31342  0.87168  0.28709  Biso   1.000  C
  C31      1.0000 0.72546  0.13532  0.24422  Biso   1.000  C
  C32      1.0000 0.54053  0.33333  0.49625  Biso   1.000  C
  C33      1.0000 0.61533  0.28131  0.42523  Biso   1.000  C
  C34      1.0000 0.69358  0.19755  0.31677  Biso   1.000  C
  C35      1.0000 0.56342  0.21291  0.37168  Biso   1.000  C
  C36      1.0000 0.22546  0.86468  0.75578  Biso   1.000  C
  C37      1.0000 0.04053  0.66667  0.50375  Biso   1.000  C
  C38      1.0000 0.11533  0.71869  0.57477  Biso   1.000  C
  C39      1.0000 0.19358  0.80245  0.68323  Biso   1.000  C
  C40      1.0000 0.06342  0.78709  0.62832  Biso   1.000  C
  N1       1.0000 0.23254  0.40392  0.30426  Biso   1.000  N
  N2       1.0000 0.18527  0.33763  0.25339  Biso   1.000  N
  N3       1.0000 0.73254  0.59608  0.69574  Biso   1.000  N
  N4       1.0000 0.68527  0.66237  0.74661  Biso   1.000  N
  N5       1.0000 0.48254  0.19574  0.90392  Biso   1.000  N
  N6       1.0000 0.43527  0.24661  0.83763  Biso   1.000  N
  N7       1.0000 0.98254  0.80426  0.09608  Biso   1.000  N
  N8       1.0000 0.93527  0.75339  0.16237  Biso   1.000  N
  N9       1.0000 0.01746  0.09608  0.80426  Biso   1.000  N
  N10      1.0000 0.06473  0.16237  0.75339  Biso   1.000  N
  N11      1.0000 0.51746  0.90392  0.19574  Biso   1.000  N
  N12      1.0000 0.56473  0.83763  0.24661  Biso   1.000  N
  N13      1.0000 0.76746  0.30426  0.40392  Biso   1.000  N
  N14      1.0000 0.81473  0.25339  0.33763  Biso   1.000  N
  N15      1.0000 0.26746  0.69574  0.59608  Biso   1.000  N
  N16      1.0000 0.31473  0.74661  0.66237  Biso   1.000  N
  O1       1.0000 0.37182  0.22542  0.07648  Biso   1.000  O
  O2       1.0000 0.87034  0.98660  0.09693  Biso   1.000  O
  O3       1.0000 0.14083  0.20480  0.14647  Biso   1.000  O
  O4       1.0000 0.37243  0.52576  0.39601  Biso   1.000  O
  O5       1.0000 0.87661  0.32855  0.15310  Biso   1.000  O
  O6       1.0000 0.59776  0.52217  0.31709  Biso   1.000  O
  O7       1.0000 0.87182  0.77458  0.92352  Biso   1.000  O
  O8       1.0000 0.37034  0.01340  0.90307  Biso   1.000  O
  O9       1.0000 0.64083  0.79520  0.85353  Biso   1.000  O
  O10      1.0000 0.87243  0.47424  0.60399  Biso   1.000  O
  O11      1.0000 0.37661  0.67145  0.84690  Biso   1.000  O
  O12      1.0000 0.09776  0.47783  0.68291  Biso   1.000  O
  O13      1.0000 0.62182  0.42352  0.72542  Biso   1.000  O
  O14      1.0000 0.12034  0.40307  0.48660  Biso   1.000  O
  O15      1.0000 0.39083  0.35353  0.70480  Biso   1.000  O
  O16      1.0000 0.62243  0.10399  0.02576  Biso   1.000  O
  O17      1.0000 0.12661  0.34690  0.82855  Biso   1.000  O
  O18      1.0000 0.84776  0.18291  0.02217  Biso   1.000  O
  O19      1.0000 0.12182  0.57648  0.27458  Biso   1.000  O
  O20      1.0000 0.62034  0.59693  0.51340  Biso   1.000  O
  O21      1.0000 0.89083  0.64647  0.29520  Biso   1.000  O
  O22      1.0000 0.12243  0.89601  0.97424  Biso   1.000  O
  O23      1.0000 0.62661  0.65310  0.17145  Biso   1.000  O
  O24      1.0000 0.34776  0.81709  0.97783  Biso   1.000  O
  O25      1.0000 0.87818  0.27458  0.57648  Biso   1.000  O
  O26      1.0000 0.37966  0.51340  0.59693  Biso   1.000  O
  O27      1.0000 0.10917  0.29520  0.64647  Biso   1.000  O
  O28      1.0000 0.87757  0.97424  0.89601  Biso   1.000  O
  O29      1.0000 0.37339  0.17145  0.65310  Biso   1.000  O
  O30      1.0000 0.65224  0.97783  0.81709  Biso   1.000  O
  O31      1.0000 0.37818  0.72542  0.42352  Biso   1.000  O
  O32      1.0000 0.87966  0.48660  0.40307  Biso   1.000  O
  O33      1.0000 0.60917  0.70480  0.35353  Biso   1.000  O
  O34      1.0000 0.37757  0.02576  0.10399  Biso   1.000  O
  O35      1.0000 0.87339  0.82855  0.34690  Biso   1.000  O
  O36      1.0000 0.15224  0.02217  0.18291  Biso   1.000  O
  O37      1.0000 0.62818  0.07648  0.22542  Biso   1.000  O
  O38      1.0000 0.12966  0.09693  0.98660  Biso   1.000  O
  O39      1.0000 0.85917  0.14647  0.20480  Biso   1.000  O
  O40      1.0000 0.62757  0.39601  0.52576  Biso   1.000  O
  O41      1.0000 0.12339  0.15310  0.32855  Biso   1.000  O
  O42      1.0000 0.40224  0.31709  0.52217  Biso   1.000  O
  O43      1.0000 0.12818  0.92352  0.77458  Biso   1.000  O
  O44      1.0000 0.62966  0.90307  0.01340  Biso   1.000  O
  O45      1.0000 0.35917  0.85353  0.79520  Biso   1.000  O
  O46      1.0000 0.12757  0.60399  0.47424  Biso   1.000  O
  O47      1.0000 0.62339  0.84690  0.67145  Biso   1.000  O
  O48      1.0000 0.90224  0.68291  0.47783  Biso   1.000  O
