data_image0
_cell_length_a       32.099
_cell_length_b       12.916
_cell_length_c       21.431
_cell_angle_alpha    90
_cell_angle_beta     126.74
_cell_angle_gamma    90

_symmetry_space_group_name_H-M    "P 1"
_symmetry_int_tables_number       1

loop_
  _symmetry_equiv_pos_as_xyz
  'x, y, z'

loop_
  _atom_site_label
  _atom_site_occupancy
  _atom_site_fract_x
  _atom_site_fract_y
  _atom_site_fract_z
  _atom_site_thermal_displace_type
  _atom_site_B_iso_or_equiv
  _atom_site_type_symbol
  Ag1      1.0000 0.17373  0.01881  0.91546  Biso   1.000  Ag
  Ag2      1.0000 0.27020  0.01445  0.10642  Biso   1.000  Ag
  Ag3      1.0000 0.11035  0.79964  0.10196  Biso   1.000  Ag
  O1       1.0000 0.00490  0.50120  0.79930  Biso   1.000  O
  H1       1.0000 0.03750  0.50120  0.85190  Biso   1.000  H
  H2       1.0000 0.97740  0.50120  0.80660  Biso   1.000  H
  O2       1.0000 0.26856  0.98340  0.99790  Biso   1.000  O
  H3       1.0000 0.27740  0.91290  0.99430  Biso   1.000  H
  H4       1.0000 0.28850  0.03380  0.99130  Biso   1.000  H
  O3       1.0000 0.33500  0.91740  0.21250  Biso   1.000  O
  O4       1.0000 0.27810  0.79180  0.16870  Biso   1.000  O
  O5       1.0000 0.28908  0.56960  0.37500  Biso   1.000  O
  O6       1.0000 0.32480  0.66050  0.48330  Biso   1.000  O
  O7       1.0000 0.44010  0.59670  0.55320  Biso   1.000  O
  O8       1.0000 0.44965  0.76070  0.59200  Biso   1.000  O
  O9       1.0000 0.45050  0.95860  0.35860  Biso   1.000  O
  O10      1.0000 0.44360  0.80950  0.30060  Biso   1.000  O
  N1       1.0000 0.07638  0.73630  0.86840  Biso   1.000  N
  N2       1.0000 0.11760  0.78050  0.00410  Biso   1.000  N
  N3       1.0000 0.14529  0.86810  0.93290  Biso   1.000  N
  N4       1.0000 0.16689  0.68640  0.96880  Biso   1.000  N
  C1       1.0000 0.13610  0.87900  0.99200  Biso   1.000  C
  H5       1.0000 0.16760  0.90080  0.04030  Biso   1.000  H
  H6       1.0000 0.11030  0.93150  0.97560  Biso   1.000  H
  C2       1.0000 0.15790  0.70030  0.02800  Biso   1.000  C
  H7       1.0000 0.14610  0.63590  0.03480  Biso   1.000  H
  H8       1.0000 0.18980  0.71880  0.07710  Biso   1.000  H
  C3       1.0000 0.06890  0.74890  0.92870  Biso   1.000  C
  H9       1.0000 0.05700  0.68490  0.93570  Biso   1.000  H
  H10      1.0000 0.04280  0.80090  0.91230  Biso   1.000  H
  C4       1.0000 0.09570  0.83340  0.85900  Biso   1.000  C
  H11      1.0000 0.06990  0.88590  0.84250  Biso   1.000  H
  H12      1.0000 0.10040  0.82540  0.81900  Biso   1.000  H
  C5       1.0000 0.11710  0.65650  0.89390  Biso   1.000  C
  H13      1.0000 0.12210  0.64670  0.85430  Biso   1.000  H
  H14      1.0000 0.10540  0.59210  0.90090  Biso   1.000  H
  C6       1.0000 0.18420  0.78600  0.95790  Biso   1.000  C
  H15      1.0000 0.21620  0.80630  0.00620  Biso   1.000  H
  H16      1.0000 0.19070  0.77790  0.91990  Biso   1.000  H
  N5       1.0000 0.87932  0.23520  0.78630  Biso   1.000  N
  N6       1.0000 0.92271  0.28750  0.72810  Biso   1.000  N
  N7       1.0000 0.85173  0.16150  0.66230  Biso   1.000  N
  N8       1.0000 0.83356  0.34280  0.66900  Biso   1.000  N
  C7       1.0000 0.85940  0.14220  0.73660  Biso   1.000  C
  H17      1.0000 0.82650  0.12470  0.72540  Biso   1.000  H
  H18      1.0000 0.88260  0.08490  0.76350  Biso   1.000  H
  C8       1.0000 0.92930  0.26700  0.80100  Biso   1.000  C
  H19      1.0000 0.95420  0.21220  0.82830  Biso   1.000  H
  H20      1.0000 0.94280  0.32760  0.83340  Biso   1.000  H
  C9       1.0000 0.84180  0.32110  0.74330  Biso   1.000  C
  H21      1.0000 0.85400  0.38240  0.77490  Biso   1.000  H
  H22      1.0000 0.80920  0.30140  0.73250  Biso   1.000  H
  C10      1.0000 0.88330  0.37090  0.68610  Biso   1.000  C
  H23      1.0000 0.87820  0.38530  0.63800  Biso   1.000  H
  H24      1.0000 0.89600  0.43290  0.71690  Biso   1.000  H
  C11      1.0000 0.81400  0.24800  0.62160  Biso   1.000  C
  H25      1.0000 0.78180  0.22840  0.61200  Biso   1.000  H
  H26      1.0000 0.80750  0.26090  0.57240  Biso   1.000  H
  C12      1.0000 0.90180  0.19330  0.67920  Biso   1.000  C
  H27      1.0000 0.92630  0.13780  0.70560  Biso   1.000  H
  H28      1.0000 0.89690  0.20570  0.63100  Biso   1.000  H
  C13      1.0000 0.31840  0.83840  0.22240  Biso   1.000  C
  C14      1.0000 0.31970  0.63800  0.42270  Biso   1.000  C
  C15      1.0000 0.43250  0.69250  0.54120  Biso   1.000  C
  C16      1.0000 0.43350  0.86770  0.33550  Biso   1.000  C
  C17      1.0000 0.34900  0.79400  0.30330  Biso   1.000  C
  C18      1.0000 0.32430  0.73310  0.32500  Biso   1.000  C
  H29      1.0000 0.28880  0.71300  0.28650  Biso   1.000  H
  C19      1.0000 0.34970  0.70010  0.40150  Biso   1.000  C
  C20      1.0000 0.40180  0.72830  0.45720  Biso   1.000  C
  C21      1.0000 0.42650  0.78680  0.43510  Biso   1.000  C
  H30      1.0000 0.46220  0.80560  0.47360  Biso   1.000  H
  C22      1.0000 0.40150  0.82020  0.35860  Biso   1.000  C
  Ag4      1.0000 0.67373  0.51881  0.91546  Biso   1.000  Ag
  Ag5      1.0000 0.77020  0.51445  0.10642  Biso   1.000  Ag
  Ag6      1.0000 0.61035  0.29964  0.10196  Biso   1.000  Ag
  O11      1.0000 0.50490  0.00120  0.79930  Biso   1.000  O
  H31      1.0000 0.53750  0.00120  0.85190  Biso   1.000  H
  H32      1.0000 0.47740  0.00120  0.80660  Biso   1.000  H
  O12      1.0000 0.76856  0.48340  0.99790  Biso   1.000  O
  H33      1.0000 0.77740  0.41290  0.99430  Biso   1.000  H
  H34      1.0000 0.78850  0.53380  0.99130  Biso   1.000  H
  O13      1.0000 0.83500  0.41740  0.21250  Biso   1.000  O
  O14      1.0000 0.77810  0.29180  0.16870  Biso   1.000  O
  O15      1.0000 0.78908  0.06960  0.37500  Biso   1.000  O
  O16      1.0000 0.82480  0.16050  0.48330  Biso   1.000  O
  O17      1.0000 0.94010  0.09670  0.55320  Biso   1.000  O
  O18      1.0000 0.94965  0.26070  0.59200  Biso   1.000  O
  O19      1.0000 0.95050  0.45860  0.35860  Biso   1.000  O
  O20      1.0000 0.94360  0.30950  0.30060  Biso   1.000  O
  N9       1.0000 0.57638  0.23630  0.86840  Biso   1.000  N
  N10      1.0000 0.61760  0.28050  0.00410  Biso   1.000  N
  N11      1.0000 0.64529  0.36810  0.93290  Biso   1.000  N
  N12      1.0000 0.66689  0.18640  0.96880  Biso   1.000  N
  C23      1.0000 0.63610  0.37900  0.99200  Biso   1.000  C
  H35      1.0000 0.66760  0.40080  0.04030  Biso   1.000  H
  H36      1.0000 0.61030  0.43150  0.97560  Biso   1.000  H
  C24      1.0000 0.65790  0.20030  0.02800  Biso   1.000  C
  H37      1.0000 0.64610  0.13590  0.03480  Biso   1.000  H
  H38      1.0000 0.68980  0.21880  0.07710  Biso   1.000  H
  C25      1.0000 0.56890  0.24890  0.92870  Biso   1.000  C
  H39      1.0000 0.55700  0.18490  0.93570  Biso   1.000  H
  H40      1.0000 0.54280  0.30090  0.91230  Biso   1.000  H
  C26      1.0000 0.59570  0.33340  0.85900  Biso   1.000  C
  H41      1.0000 0.56990  0.38590  0.84250  Biso   1.000  H
  H42      1.0000 0.60040  0.32540  0.81900  Biso   1.000  H
  C27      1.0000 0.61710  0.15650  0.89390  Biso   1.000  C
  H43      1.0000 0.62210  0.14670  0.85430  Biso   1.000  H
  H44      1.0000 0.60540  0.09210  0.90090  Biso   1.000  H
  C28      1.0000 0.68420  0.28600  0.95790  Biso   1.000  C
  H45      1.0000 0.71620  0.30630  0.00620  Biso   1.000  H
  H46      1.0000 0.69070  0.27790  0.91990  Biso   1.000  H
  N13      1.0000 0.37932  0.73520  0.78630  Biso   1.000  N
  N14      1.0000 0.42271  0.78750  0.72810  Biso   1.000  N
  N15      1.0000 0.35173  0.66150  0.66230  Biso   1.000  N
  N16      1.0000 0.33356  0.84280  0.66900  Biso   1.000  N
  C29      1.0000 0.35940  0.64220  0.73660  Biso   1.000  C
  H47      1.0000 0.32650  0.62470  0.72540  Biso   1.000  H
  H48      1.0000 0.38260  0.58490  0.76350  Biso   1.000  H
  C30      1.0000 0.42930  0.76700  0.80100  Biso   1.000  C
  H49      1.0000 0.45420  0.71220  0.82830  Biso   1.000  H
  H50      1.0000 0.44280  0.82760  0.83340  Biso   1.000  H
  C31      1.0000 0.34180  0.82110  0.74330  Biso   1.000  C
  H51      1.0000 0.35400  0.88240  0.77490  Biso   1.000  H
  H52      1.0000 0.30920  0.80140  0.73250  Biso   1.000  H
  C32      1.0000 0.38330  0.87090  0.68610  Biso   1.000  C
  H53      1.0000 0.37820  0.88530  0.63800  Biso   1.000  H
  H54      1.0000 0.39600  0.93290  0.71690  Biso   1.000  H
  C33      1.0000 0.31400  0.74800  0.62160  Biso   1.000  C
  H55      1.0000 0.28180  0.72840  0.61200  Biso   1.000  H
  H56      1.0000 0.30750  0.76090  0.57240  Biso   1.000  H
  C34      1.0000 0.40180  0.69330  0.67920  Biso   1.000  C
  H57      1.0000 0.42630  0.63780  0.70560  Biso   1.000  H
  H58      1.0000 0.39690  0.70570  0.63100  Biso   1.000  H
  C35      1.0000 0.81840  0.33840  0.22240  Biso   1.000  C
  C36      1.0000 0.81970  0.13800  0.42270  Biso   1.000  C
  C37      1.0000 0.93250  0.19250  0.54120  Biso   1.000  C
  C38      1.0000 0.93350  0.36770  0.33550  Biso   1.000  C
  C39      1.0000 0.84900  0.29400  0.30330  Biso   1.000  C
  C40      1.0000 0.82430  0.23310  0.32500  Biso   1.000  C
  H59      1.0000 0.78880  0.21300  0.28650  Biso   1.000  H
  C41      1.0000 0.84970  0.20010  0.40150  Biso   1.000  C
  C42      1.0000 0.90180  0.22830  0.45720  Biso   1.000  C
  C43      1.0000 0.92650  0.28680  0.43510  Biso   1.000  C
  H60      1.0000 0.96220  0.30560  0.47360  Biso   1.000  H
  C44      1.0000 0.90150  0.32020  0.35860  Biso   1.000  C
  Ag7      1.0000 0.82627  0.01881  0.58454  Biso   1.000  Ag
  Ag8      1.0000 0.72980  0.01445  0.39358  Biso   1.000  Ag
  Ag9      1.0000 0.88965  0.79964  0.39804  Biso   1.000  Ag
  O21      1.0000 0.99510  0.50120  0.70070  Biso   1.000  O
  H61      1.0000 0.96250  0.50120  0.64810  Biso   1.000  H
  H62      1.0000 0.02260  0.50120  0.69340  Biso   1.000  H
  O22      1.0000 0.73144  0.98340  0.50210  Biso   1.000  O
  H63      1.0000 0.72260  0.91290  0.50570  Biso   1.000  H
  H64      1.0000 0.71150  0.03380  0.50870  Biso   1.000  H
  O23      1.0000 0.66500  0.91740  0.28750  Biso   1.000  O
  O24      1.0000 0.72190  0.79180  0.33130  Biso   1.000  O
  O25      1.0000 0.71092  0.56960  0.12500  Biso   1.000  O
  O26      1.0000 0.67520  0.66050  0.01670  Biso   1.000  O
  O27      1.0000 0.55990  0.59670  0.94680  Biso   1.000  O
  O28      1.0000 0.55035  0.76070  0.90800  Biso   1.000  O
  O29      1.0000 0.54950  0.95860  0.14140  Biso   1.000  O
  O30      1.0000 0.55640  0.80950  0.19940  Biso   1.000  O
  N17      1.0000 0.92362  0.73630  0.63160  Biso   1.000  N
  N18      1.0000 0.88240  0.78050  0.49590  Biso   1.000  N
  N19      1.0000 0.85471  0.86810  0.56710  Biso   1.000  N
  N20      1.0000 0.83311  0.68640  0.53120  Biso   1.000  N
  C45      1.0000 0.86390  0.87900  0.50800  Biso   1.000  C
  H65      1.0000 0.83240  0.90080  0.45970  Biso   1.000  H
  H66      1.0000 0.88970  0.93150  0.52440  Biso   1.000  H
  C46      1.0000 0.84210  0.70030  0.47200  Biso   1.000  C
  H67      1.0000 0.85390  0.63590  0.46520  Biso   1.000  H
  H68      1.0000 0.81020  0.71880  0.42290  Biso   1.000  H
  C47      1.0000 0.93110  0.74890  0.57130  Biso   1.000  C
  H69      1.0000 0.94300  0.68490  0.56430  Biso   1.000  H
  H70      1.0000 0.95720  0.80090  0.58770  Biso   1.000  H
  C48      1.0000 0.90430  0.83340  0.64100  Biso   1.000  C
  H71      1.0000 0.93010  0.88590  0.65750  Biso   1.000  H
  H72      1.0000 0.89960  0.82540  0.68100  Biso   1.000  H
  C49      1.0000 0.88290  0.65650  0.60610  Biso   1.000  C
  H73      1.0000 0.87790  0.64670  0.64570  Biso   1.000  H
  H74      1.0000 0.89460  0.59210  0.59910  Biso   1.000  H
  C50      1.0000 0.81580  0.78600  0.54210  Biso   1.000  C
  H75      1.0000 0.78380  0.80630  0.49380  Biso   1.000  H
  H76      1.0000 0.80930  0.77790  0.58010  Biso   1.000  H
  N21      1.0000 0.12068  0.23520  0.71370  Biso   1.000  N
  N22      1.0000 0.07729  0.28750  0.77190  Biso   1.000  N
  N23      1.0000 0.14827  0.16150  0.83770  Biso   1.000  N
  N24      1.0000 0.16644  0.34280  0.83100  Biso   1.000  N
  C51      1.0000 0.14060  0.14220  0.76340  Biso   1.000  C
  H77      1.0000 0.17350  0.12470  0.77460  Biso   1.000  H
  H78      1.0000 0.11740  0.08490  0.73650  Biso   1.000  H
  C52      1.0000 0.07070  0.26700  0.69900  Biso   1.000  C
  H79      1.0000 0.04580  0.21220  0.67170  Biso   1.000  H
  H80      1.0000 0.05720  0.32760  0.66660  Biso   1.000  H
  C53      1.0000 0.15820  0.32110  0.75670  Biso   1.000  C
  H81      1.0000 0.14600  0.38240  0.72510  Biso   1.000  H
  H82      1.0000 0.19080  0.30140  0.76750  Biso   1.000  H
  C54      1.0000 0.11670  0.37090  0.81390  Biso   1.000  C
  H83      1.0000 0.12180  0.38530  0.86200  Biso   1.000  H
  H84      1.0000 0.10400  0.43290  0.78310  Biso   1.000  H
  C55      1.0000 0.18600  0.24800  0.87840  Biso   1.000  C
  H85      1.0000 0.21820  0.22840  0.88800  Biso   1.000  H
  H86      1.0000 0.19250  0.26090  0.92760  Biso   1.000  H
  C56      1.0000 0.09820  0.19330  0.82080  Biso   1.000  C
  H87      1.0000 0.07370  0.13780  0.79440  Biso   1.000  H
  H88      1.0000 0.10310  0.20570  0.86900  Biso   1.000  H
  C57      1.0000 0.68160  0.83840  0.27760  Biso   1.000  C
  C58      1.0000 0.68030  0.63800  0.07730  Biso   1.000  C
  C59      1.0000 0.56750  0.69250  0.95880  Biso   1.000  C
  C60      1.0000 0.56650  0.86770  0.16450  Biso   1.000  C
  C61      1.0000 0.65100  0.79400  0.19670  Biso   1.000  C
  C62      1.0000 0.67570  0.73310  0.17500  Biso   1.000  C
  H89      1.0000 0.71120  0.71300  0.21350  Biso   1.000  H
  C63      1.0000 0.65030  0.70010  0.09850  Biso   1.000  C
  C64      1.0000 0.59820  0.72830  0.04280  Biso   1.000  C
  C65      1.0000 0.57350  0.78680  0.06490  Biso   1.000  C
  H90      1.0000 0.53780  0.80560  0.02640  Biso   1.000  H
  C66      1.0000 0.59850  0.82020  0.14140  Biso   1.000  C
  Ag10     1.0000 0.32627  0.51881  0.58454  Biso   1.000  Ag
  Ag11     1.0000 0.22980  0.51445  0.39358  Biso   1.000  Ag
  Ag12     1.0000 0.38965  0.29964  0.39804  Biso   1.000  Ag
  O31      1.0000 0.49510  0.00120  0.70070  Biso   1.000  O
  H91      1.0000 0.46250  0.00120  0.64810  Biso   1.000  H
  H92      1.0000 0.52260  0.00120  0.69340  Biso   1.000  H
  O32      1.0000 0.23144  0.48340  0.50210  Biso   1.000  O
  H93      1.0000 0.22260  0.41290  0.50570  Biso   1.000  H
  H94      1.0000 0.21150  0.53380  0.50870  Biso   1.000  H
  O33      1.0000 0.16500  0.41740  0.28750  Biso   1.000  O
  O34      1.0000 0.22190  0.29180  0.33130  Biso   1.000  O
  O35      1.0000 0.21092  0.06960  0.12500  Biso   1.000  O
  O36      1.0000 0.17520  0.16050  0.01670  Biso   1.000  O
  O37      1.0000 0.05990  0.09670  0.94680  Biso   1.000  O
  O38      1.0000 0.05035  0.26070  0.90800  Biso   1.000  O
  O39      1.0000 0.04950  0.45860  0.14140  Biso   1.000  O
  O40      1.0000 0.05640  0.30950  0.19940  Biso   1.000  O
  N25      1.0000 0.42362  0.23630  0.63160  Biso   1.000  N
  N26      1.0000 0.38240  0.28050  0.49590  Biso   1.000  N
  N27      1.0000 0.35471  0.36810  0.56710  Biso   1.000  N
  N28      1.0000 0.33311  0.18640  0.53120  Biso   1.000  N
  C67      1.0000 0.36390  0.37900  0.50800  Biso   1.000  C
  H95      1.0000 0.33240  0.40080  0.45970  Biso   1.000  H
  H96      1.0000 0.38970  0.43150  0.52440  Biso   1.000  H
  C68      1.0000 0.34210  0.20030  0.47200  Biso   1.000  C
  H97      1.0000 0.35390  0.13590  0.46520  Biso   1.000  H
  H98      1.0000 0.31020  0.21880  0.42290  Biso   1.000  H
  C69      1.0000 0.43110  0.24890  0.57130  Biso   1.000  C
  H99      1.0000 0.44300  0.18490  0.56430  Biso   1.000  H
  H100     1.0000 0.45720  0.30090  0.58770  Biso   1.000  H
  C70      1.0000 0.40430  0.33340  0.64100  Biso   1.000  C
  H101     1.0000 0.43010  0.38590  0.65750  Biso   1.000  H
  H102     1.0000 0.39960  0.32540  0.68100  Biso   1.000  H
  C71      1.0000 0.38290  0.15650  0.60610  Biso   1.000  C
  H103     1.0000 0.37790  0.14670  0.64570  Biso   1.000  H
  H104     1.0000 0.39460  0.09210  0.59910  Biso   1.000  H
  C72      1.0000 0.31580  0.28600  0.54210  Biso   1.000  C
  H105     1.0000 0.28380  0.30630  0.49380  Biso   1.000  H
  H106     1.0000 0.30930  0.27790  0.58010  Biso   1.000  H
  N29      1.0000 0.62068  0.73520  0.71370  Biso   1.000  N
  N30      1.0000 0.57729  0.78750  0.77190  Biso   1.000  N
  N31      1.0000 0.64827  0.66150  0.83770  Biso   1.000  N
  N32      1.0000 0.66644  0.84280  0.83100  Biso   1.000  N
  C73      1.0000 0.64060  0.64220  0.76340  Biso   1.000  C
  H107     1.0000 0.67350  0.62470  0.77460  Biso   1.000  H
  H108     1.0000 0.61740  0.58490  0.73650  Biso   1.000  H
  C74      1.0000 0.57070  0.76700  0.69900  Biso   1.000  C
  H109     1.0000 0.54580  0.71220  0.67170  Biso   1.000  H
  H110     1.0000 0.55720  0.82760  0.66660  Biso   1.000  H
  C75      1.0000 0.65820  0.82110  0.75670  Biso   1.000  C
  H111     1.0000 0.64600  0.88240  0.72510  Biso   1.000  H
  H112     1.0000 0.69080  0.80140  0.76750  Biso   1.000  H
  C76      1.0000 0.61670  0.87090  0.81390  Biso   1.000  C
  H113     1.0000 0.62180  0.88530  0.86200  Biso   1.000  H
  H114     1.0000 0.60400  0.93290  0.78310  Biso   1.000  H
  C77      1.0000 0.68600  0.74800  0.87840  Biso   1.000  C
  H115     1.0000 0.71820  0.72840  0.88800  Biso   1.000  H
  H116     1.0000 0.69250  0.76090  0.92760  Biso   1.000  H
  C78      1.0000 0.59820  0.69330  0.82080  Biso   1.000  C
  H117     1.0000 0.57370  0.63780  0.79440  Biso   1.000  H
  H118     1.0000 0.60310  0.70570  0.86900  Biso   1.000  H
  C79      1.0000 0.18160  0.33840  0.27760  Biso   1.000  C
  C80      1.0000 0.18030  0.13800  0.07730  Biso   1.000  C
  C81      1.0000 0.06750  0.19250  0.95880  Biso   1.000  C
  C82      1.0000 0.06650  0.36770  0.16450  Biso   1.000  C
  C83      1.0000 0.15100  0.29400  0.19670  Biso   1.000  C
  C84      1.0000 0.17570  0.23310  0.17500  Biso   1.000  C
  H119     1.0000 0.21120  0.21300  0.21350  Biso   1.000  H
  C85      1.0000 0.15030  0.20010  0.09850  Biso   1.000  C
  C86      1.0000 0.09820  0.22830  0.04280  Biso   1.000  C
  C87      1.0000 0.07350  0.28680  0.06490  Biso   1.000  C
  H120     1.0000 0.03780  0.30560  0.02640  Biso   1.000  H
  C88      1.0000 0.09850  0.32020  0.14140  Biso   1.000  C
  Ag13     1.0000 0.82627  0.98119  0.08454  Biso   1.000  Ag
  Ag14     1.0000 0.72980  0.98555  0.89358  Biso   1.000  Ag
  Ag15     1.0000 0.88965  0.20036  0.89804  Biso   1.000  Ag
  O41      1.0000 0.99510  0.49880  0.20070  Biso   1.000  O
  H121     1.0000 0.96250  0.49880  0.14810  Biso   1.000  H
  H122     1.0000 0.02260  0.49880  0.19340  Biso   1.000  H
  O42      1.0000 0.73144  0.01660  0.00210  Biso   1.000  O
  H123     1.0000 0.72260  0.08710  0.00570  Biso   1.000  H
  H124     1.0000 0.71150  0.96620  0.00870  Biso   1.000  H
  O43      1.0000 0.66500  0.08260  0.78750  Biso   1.000  O
  O44      1.0000 0.72190  0.20820  0.83130  Biso   1.000  O
  O45      1.0000 0.71092  0.43040  0.62500  Biso   1.000  O
  O46      1.0000 0.67520  0.33950  0.51670  Biso   1.000  O
  O47      1.0000 0.55990  0.40330  0.44680  Biso   1.000  O
  O48      1.0000 0.55035  0.23930  0.40800  Biso   1.000  O
  O49      1.0000 0.54950  0.04140  0.64140  Biso   1.000  O
  O50      1.0000 0.55640  0.19050  0.69940  Biso   1.000  O
  N33      1.0000 0.92362  0.26370  0.13160  Biso   1.000  N
  N34      1.0000 0.88240  0.21950  0.99590  Biso   1.000  N
  N35      1.0000 0.85471  0.13190  0.06710  Biso   1.000  N
  N36      1.0000 0.83311  0.31360  0.03120  Biso   1.000  N
  C89      1.0000 0.86390  0.12100  0.00800  Biso   1.000  C
  H125     1.0000 0.83240  0.09920  0.95970  Biso   1.000  H
  H126     1.0000 0.88970  0.06850  0.02440  Biso   1.000  H
  C90      1.0000 0.84210  0.29970  0.97200  Biso   1.000  C
  H127     1.0000 0.85390  0.36410  0.96520  Biso   1.000  H
  H128     1.0000 0.81020  0.28120  0.92290  Biso   1.000  H
  C91      1.0000 0.93110  0.25110  0.07130  Biso   1.000  C
  H129     1.0000 0.94300  0.31510  0.06430  Biso   1.000  H
  H130     1.0000 0.95720  0.19910  0.08770  Biso   1.000  H
  C92      1.0000 0.90430  0.16660  0.14100  Biso   1.000  C
  H131     1.0000 0.93010  0.11410  0.15750  Biso   1.000  H
  H132     1.0000 0.89960  0.17460  0.18100  Biso   1.000  H
  C93      1.0000 0.88290  0.34350  0.10610  Biso   1.000  C
  H133     1.0000 0.87790  0.35330  0.14570  Biso   1.000  H
  H134     1.0000 0.89460  0.40790  0.09910  Biso   1.000  H
  C94      1.0000 0.81580  0.21400  0.04210  Biso   1.000  C
  H135     1.0000 0.78380  0.19370  0.99380  Biso   1.000  H
  H136     1.0000 0.80930  0.22210  0.08010  Biso   1.000  H
  N37      1.0000 0.12068  0.76480  0.21370  Biso   1.000  N
  N38      1.0000 0.07729  0.71250  0.27190  Biso   1.000  N
  N39      1.0000 0.14827  0.83850  0.33770  Biso   1.000  N
  N40      1.0000 0.16644  0.65720  0.33100  Biso   1.000  N
  C95      1.0000 0.14060  0.85780  0.26340  Biso   1.000  C
  H137     1.0000 0.17350  0.87530  0.27460  Biso   1.000  H
  H138     1.0000 0.11740  0.91510  0.23650  Biso   1.000  H
  C96      1.0000 0.07070  0.73300  0.19900  Biso   1.000  C
  H139     1.0000 0.04580  0.78780  0.17170  Biso   1.000  H
  H140     1.0000 0.05720  0.67240  0.16660  Biso   1.000  H
  C97      1.0000 0.15820  0.67890  0.25670  Biso   1.000  C
  H141     1.0000 0.14600  0.61760  0.22510  Biso   1.000  H
  H142     1.0000 0.19080  0.69860  0.26750  Biso   1.000  H
  C98      1.0000 0.11670  0.62910  0.31390  Biso   1.000  C
  H143     1.0000 0.12180  0.61470  0.36200  Biso   1.000  H
  H144     1.0000 0.10400  0.56710  0.28310  Biso   1.000  H
  C99      1.0000 0.18600  0.75200  0.37840  Biso   1.000  C
  H145     1.0000 0.21820  0.77160  0.38800  Biso   1.000  H
  H146     1.0000 0.19250  0.73910  0.42760  Biso   1.000  H
  C100     1.0000 0.09820  0.80670  0.32080  Biso   1.000  C
  H147     1.0000 0.07370  0.86220  0.29440  Biso   1.000  H
  H148     1.0000 0.10310  0.79430  0.36900  Biso   1.000  H
  C101     1.0000 0.68160  0.16160  0.77760  Biso   1.000  C
  C102     1.0000 0.68030  0.36200  0.57730  Biso   1.000  C
  C103     1.0000 0.56750  0.30750  0.45880  Biso   1.000  C
  C104     1.0000 0.56650  0.13230  0.66450  Biso   1.000  C
  C105     1.0000 0.65100  0.20600  0.69670  Biso   1.000  C
  C106     1.0000 0.67570  0.26690  0.67500  Biso   1.000  C
  H149     1.0000 0.71120  0.28700  0.71350  Biso   1.000  H
  C107     1.0000 0.65030  0.29990  0.59850  Biso   1.000  C
  C108     1.0000 0.59820  0.27170  0.54280  Biso   1.000  C
  C109     1.0000 0.57350  0.21320  0.56490  Biso   1.000  C
  H150     1.0000 0.53780  0.19440  0.52640  Biso   1.000  H
  C110     1.0000 0.59850  0.17980  0.64140  Biso   1.000  C
  Ag16     1.0000 0.32627  0.48119  0.08454  Biso   1.000  Ag
  Ag17     1.0000 0.22980  0.48555  0.89358  Biso   1.000  Ag
  Ag18     1.0000 0.38965  0.70036  0.89804  Biso   1.000  Ag
  O51      1.0000 0.49510  0.99880  0.20070  Biso   1.000  O
  H151     1.0000 0.46250  0.99880  0.14810  Biso   1.000  H
  H152     1.0000 0.52260  0.99880  0.19340  Biso   1.000  H
  O52      1.0000 0.23144  0.51660  0.00210  Biso   1.000  O
  H153     1.0000 0.22260  0.58710  0.00570  Biso   1.000  H
  H154     1.0000 0.21150  0.46620  0.00870  Biso   1.000  H
  O53      1.0000 0.16500  0.58260  0.78750  Biso   1.000  O
  O54      1.0000 0.22190  0.70820  0.83130  Biso   1.000  O
  O55      1.0000 0.21092  0.93040  0.62500  Biso   1.000  O
  O56      1.0000 0.17520  0.83950  0.51670  Biso   1.000  O
  O57      1.0000 0.05990  0.90330  0.44680  Biso   1.000  O
  O58      1.0000 0.05035  0.73930  0.40800  Biso   1.000  O
  O59      1.0000 0.04950  0.54140  0.64140  Biso   1.000  O
  O60      1.0000 0.05640  0.69050  0.69940  Biso   1.000  O
  N41      1.0000 0.42362  0.76370  0.13160  Biso   1.000  N
  N42      1.0000 0.38240  0.71950  0.99590  Biso   1.000  N
  N43      1.0000 0.35471  0.63190  0.06710  Biso   1.000  N
  N44      1.0000 0.33311  0.81360  0.03120  Biso   1.000  N
  C111     1.0000 0.36390  0.62100  0.00800  Biso   1.000  C
  H155     1.0000 0.33240  0.59920  0.95970  Biso   1.000  H
  H156     1.0000 0.38970  0.56850  0.02440  Biso   1.000  H
  C112     1.0000 0.34210  0.79970  0.97200  Biso   1.000  C
  H157     1.0000 0.35390  0.86410  0.96520  Biso   1.000  H
  H158     1.0000 0.31020  0.78120  0.92290  Biso   1.000  H
  C113     1.0000 0.43110  0.75110  0.07130  Biso   1.000  C
  H159     1.0000 0.44300  0.81510  0.06430  Biso   1.000  H
  H160     1.0000 0.45720  0.69910  0.08770  Biso   1.000  H
  C114     1.0000 0.40430  0.66660  0.14100  Biso   1.000  C
  H161     1.0000 0.43010  0.61410  0.15750  Biso   1.000  H
  H162     1.0000 0.39960  0.67460  0.18100  Biso   1.000  H
  C115     1.0000 0.38290  0.84350  0.10610  Biso   1.000  C
  H163     1.0000 0.37790  0.85330  0.14570  Biso   1.000  H
  H164     1.0000 0.39460  0.90790  0.09910  Biso   1.000  H
  C116     1.0000 0.31580  0.71400  0.04210  Biso   1.000  C
  H165     1.0000 0.28380  0.69370  0.99380  Biso   1.000  H
  H166     1.0000 0.30930  0.72210  0.08010  Biso   1.000  H
  N45      1.0000 0.62068  0.26480  0.21370  Biso   1.000  N
  N46      1.0000 0.57729  0.21250  0.27190  Biso   1.000  N
  N47      1.0000 0.64827  0.33850  0.33770  Biso   1.000  N
  N48      1.0000 0.66644  0.15720  0.33100  Biso   1.000  N
  C117     1.0000 0.64060  0.35780  0.26340  Biso   1.000  C
  H167     1.0000 0.67350  0.37530  0.27460  Biso   1.000  H
  H168     1.0000 0.61740  0.41510  0.23650  Biso   1.000  H
  C118     1.0000 0.57070  0.23300  0.19900  Biso   1.000  C
  H169     1.0000 0.54580  0.28780  0.17170  Biso   1.000  H
  H170     1.0000 0.55720  0.17240  0.16660  Biso   1.000  H
  C119     1.0000 0.65820  0.17890  0.25670  Biso   1.000  C
  H171     1.0000 0.64600  0.11760  0.22510  Biso   1.000  H
  H172     1.0000 0.69080  0.19860  0.26750  Biso   1.000  H
  C120     1.0000 0.61670  0.12910  0.31390  Biso   1.000  C
  H173     1.0000 0.62180  0.11470  0.36200  Biso   1.000  H
  H174     1.0000 0.60400  0.06710  0.28310  Biso   1.000  H
  C121     1.0000 0.68600  0.25200  0.37840  Biso   1.000  C
  H175     1.0000 0.71820  0.27160  0.38800  Biso   1.000  H
  H176     1.0000 0.69250  0.23910  0.42760  Biso   1.000  H
  C122     1.0000 0.59820  0.30670  0.32080  Biso   1.000  C
  H177     1.0000 0.57370  0.36220  0.29440  Biso   1.000  H
  H178     1.0000 0.60310  0.29430  0.36900  Biso   1.000  H
  C123     1.0000 0.18160  0.66160  0.77760  Biso   1.000  C
  C124     1.0000 0.18030  0.86200  0.57730  Biso   1.000  C
  C125     1.0000 0.06750  0.80750  0.45880  Biso   1.000  C
  C126     1.0000 0.06650  0.63230  0.66450  Biso   1.000  C
  C127     1.0000 0.15100  0.70600  0.69670  Biso   1.000  C
  C128     1.0000 0.17570  0.76690  0.67500  Biso   1.000  C
  H179     1.0000 0.21120  0.78700  0.71350  Biso   1.000  H
  C129     1.0000 0.15030  0.79990  0.59850  Biso   1.000  C
  C130     1.0000 0.09820  0.77170  0.54280  Biso   1.000  C
  C131     1.0000 0.07350  0.71320  0.56490  Biso   1.000  C
  H180     1.0000 0.03780  0.69440  0.52640  Biso   1.000  H
  C132     1.0000 0.09850  0.67980  0.64140  Biso   1.000  C
  Ag19     1.0000 0.17373  0.98119  0.41546  Biso   1.000  Ag
  Ag20     1.0000 0.27020  0.98555  0.60642  Biso   1.000  Ag
  Ag21     1.0000 0.11035  0.20036  0.60196  Biso   1.000  Ag
  O61      1.0000 0.00490  0.49880  0.29930  Biso   1.000  O
  H181     1.0000 0.03750  0.49880  0.35190  Biso   1.000  H
  H182     1.0000 0.97740  0.49880  0.30660  Biso   1.000  H
  O62      1.0000 0.26856  0.01660  0.49790  Biso   1.000  O
  H183     1.0000 0.27740  0.08710  0.49430  Biso   1.000  H
  H184     1.0000 0.28850  0.96620  0.49130  Biso   1.000  H
  O63      1.0000 0.33500  0.08260  0.71250  Biso   1.000  O
  O64      1.0000 0.27810  0.20820  0.66870  Biso   1.000  O
  O65      1.0000 0.28908  0.43040  0.87500  Biso   1.000  O
  O66      1.0000 0.32480  0.33950  0.98330  Biso   1.000  O
  O67      1.0000 0.44010  0.40330  0.05320  Biso   1.000  O
  O68      1.0000 0.44965  0.23930  0.09200  Biso   1.000  O
  O69      1.0000 0.45050  0.04140  0.85860  Biso   1.000  O
  O70      1.0000 0.44360  0.19050  0.80060  Biso   1.000  O
  N49      1.0000 0.07638  0.26370  0.36840  Biso   1.000  N
  N50      1.0000 0.11760  0.21950  0.50410  Biso   1.000  N
  N51      1.0000 0.14529  0.13190  0.43290  Biso   1.000  N
  N52      1.0000 0.16689  0.31360  0.46880  Biso   1.000  N
  C133     1.0000 0.13610  0.12100  0.49200  Biso   1.000  C
  H185     1.0000 0.16760  0.09920  0.54030  Biso   1.000  H
  H186     1.0000 0.11030  0.06850  0.47560  Biso   1.000  H
  C134     1.0000 0.15790  0.29970  0.52800  Biso   1.000  C
  H187     1.0000 0.14610  0.36410  0.53480  Biso   1.000  H
  H188     1.0000 0.18980  0.28120  0.57710  Biso   1.000  H
  C135     1.0000 0.06890  0.25110  0.42870  Biso   1.000  C
  H189     1.0000 0.05700  0.31510  0.43570  Biso   1.000  H
  H190     1.0000 0.04280  0.19910  0.41230  Biso   1.000  H
  C136     1.0000 0.09570  0.16660  0.35900  Biso   1.000  C
  H191     1.0000 0.06990  0.11410  0.34250  Biso   1.000  H
  H192     1.0000 0.10040  0.17460  0.31900  Biso   1.000  H
  C137     1.0000 0.11710  0.34350  0.39390  Biso   1.000  C
  H193     1.0000 0.12210  0.35330  0.35430  Biso   1.000  H
  H194     1.0000 0.10540  0.40790  0.40090  Biso   1.000  H
  C138     1.0000 0.18420  0.21400  0.45790  Biso   1.000  C
  H195     1.0000 0.21620  0.19370  0.50620  Biso   1.000  H
  H196     1.0000 0.19070  0.22210  0.41990  Biso   1.000  H
  N53      1.0000 0.87932  0.76480  0.28630  Biso   1.000  N
  N54      1.0000 0.92271  0.71250  0.22810  Biso   1.000  N
  N55      1.0000 0.85173  0.83850  0.16230  Biso   1.000  N
  N56      1.0000 0.83356  0.65720  0.16900  Biso   1.000  N
  C139     1.0000 0.85940  0.85780  0.23660  Biso   1.000  C
  H197     1.0000 0.82650  0.87530  0.22540  Biso   1.000  H
  H198     1.0000 0.88260  0.91510  0.26350  Biso   1.000  H
  C140     1.0000 0.92930  0.73300  0.30100  Biso   1.000  C
  H199     1.0000 0.95420  0.78780  0.32830  Biso   1.000  H
  H200     1.0000 0.94280  0.67240  0.33340  Biso   1.000  H
  C141     1.0000 0.84180  0.67890  0.24330  Biso   1.000  C
  H201     1.0000 0.85400  0.61760  0.27490  Biso   1.000  H
  H202     1.0000 0.80920  0.69860  0.23250  Biso   1.000  H
  C142     1.0000 0.88330  0.62910  0.18610  Biso   1.000  C
  H203     1.0000 0.87820  0.61470  0.13800  Biso   1.000  H
  H204     1.0000 0.89600  0.56710  0.21690  Biso   1.000  H
  C143     1.0000 0.81400  0.75200  0.12160  Biso   1.000  C
  H205     1.0000 0.78180  0.77160  0.11200  Biso   1.000  H
  H206     1.0000 0.80750  0.73910  0.07240  Biso   1.000  H
  C144     1.0000 0.90180  0.80670  0.17920  Biso   1.000  C
  H207     1.0000 0.92630  0.86220  0.20560  Biso   1.000  H
  H208     1.0000 0.89690  0.79430  0.13100  Biso   1.000  H
  C145     1.0000 0.31840  0.16160  0.72240  Biso   1.000  C
  C146     1.0000 0.31970  0.36200  0.92270  Biso   1.000  C
  C147     1.0000 0.43250  0.30750  0.04120  Biso   1.000  C
  C148     1.0000 0.43350  0.13230  0.83550  Biso   1.000  C
  C149     1.0000 0.34900  0.20600  0.80330  Biso   1.000  C
  C150     1.0000 0.32430  0.26690  0.82500  Biso   1.000  C
  H209     1.0000 0.28880  0.28700  0.78650  Biso   1.000  H
  C151     1.0000 0.34970  0.29990  0.90150  Biso   1.000  C
  C152     1.0000 0.40180  0.27170  0.95720  Biso   1.000  C
  C153     1.0000 0.42650  0.21320  0.93510  Biso   1.000  C
  H210     1.0000 0.46220  0.19440  0.97360  Biso   1.000  H
  C154     1.0000 0.40150  0.17980  0.85860  Biso   1.000  C
  Ag22     1.0000 0.67373  0.48119  0.41546  Biso   1.000  Ag
  Ag23     1.0000 0.77020  0.48555  0.60642  Biso   1.000  Ag
  Ag24     1.0000 0.61035  0.70036  0.60196  Biso   1.000  Ag
  O71      1.0000 0.50490  0.99880  0.29930  Biso   1.000  O
  H211     1.0000 0.53750  0.99880  0.35190  Biso   1.000  H
  H212     1.0000 0.47740  0.99880  0.30660  Biso   1.000  H
  O72      1.0000 0.76856  0.51660  0.49790  Biso   1.000  O
  H213     1.0000 0.77740  0.58710  0.49430  Biso   1.000  H
  H214     1.0000 0.78850  0.46620  0.49130  Biso   1.000  H
  O73      1.0000 0.83500  0.58260  0.71250  Biso   1.000  O
  O74      1.0000 0.77810  0.70820  0.66870  Biso   1.000  O
  O75      1.0000 0.78908  0.93040  0.87500  Biso   1.000  O
  O76      1.0000 0.82480  0.83950  0.98330  Biso   1.000  O
  O77      1.0000 0.94010  0.90330  0.05320  Biso   1.000  O
  O78      1.0000 0.94965  0.73930  0.09200  Biso   1.000  O
  O79      1.0000 0.95050  0.54140  0.85860  Biso   1.000  O
  O80      1.0000 0.94360  0.69050  0.80060  Biso   1.000  O
  N57      1.0000 0.57638  0.76370  0.36840  Biso   1.000  N
  N58      1.0000 0.61760  0.71950  0.50410  Biso   1.000  N
  N59      1.0000 0.64529  0.63190  0.43290  Biso   1.000  N
  N60      1.0000 0.66689  0.81360  0.46880  Biso   1.000  N
  C155     1.0000 0.63610  0.62100  0.49200  Biso   1.000  C
  H215     1.0000 0.66760  0.59920  0.54030  Biso   1.000  H
  H216     1.0000 0.61030  0.56850  0.47560  Biso   1.000  H
  C156     1.0000 0.65790  0.79970  0.52800  Biso   1.000  C
  H217     1.0000 0.64610  0.86410  0.53480  Biso   1.000  H
  H218     1.0000 0.68980  0.78120  0.57710  Biso   1.000  H
  C157     1.0000 0.56890  0.75110  0.42870  Biso   1.000  C
  H219     1.0000 0.55700  0.81510  0.43570  Biso   1.000  H
  H220     1.0000 0.54280  0.69910  0.41230  Biso   1.000  H
  C158     1.0000 0.59570  0.66660  0.35900  Biso   1.000  C
  H221     1.0000 0.56990  0.61410  0.34250  Biso   1.000  H
  H222     1.0000 0.60040  0.67460  0.31900  Biso   1.000  H
  C159     1.0000 0.61710  0.84350  0.39390  Biso   1.000  C
  H223     1.0000 0.62210  0.85330  0.35430  Biso   1.000  H
  H224     1.0000 0.60540  0.90790  0.40090  Biso   1.000  H
  C160     1.0000 0.68420  0.71400  0.45790  Biso   1.000  C
  H225     1.0000 0.71620  0.69370  0.50620  Biso   1.000  H
  H226     1.0000 0.69070  0.72210  0.41990  Biso   1.000  H
  N61      1.0000 0.37932  0.26480  0.28630  Biso   1.000  N
  N62      1.0000 0.42271  0.21250  0.22810  Biso   1.000  N
  N63      1.0000 0.35173  0.33850  0.16230  Biso   1.000  N
  N64      1.0000 0.33356  0.15720  0.16900  Biso   1.000  N
  C161     1.0000 0.35940  0.35780  0.23660  Biso   1.000  C
  H227     1.0000 0.32650  0.37530  0.22540  Biso   1.000  H
  H228     1.0000 0.38260  0.41510  0.26350  Biso   1.000  H
  C162     1.0000 0.42930  0.23300  0.30100  Biso   1.000  C
  H229     1.0000 0.45420  0.28780  0.32830  Biso   1.000  H
  H230     1.0000 0.44280  0.17240  0.33340  Biso   1.000  H
  C163     1.0000 0.34180  0.17890  0.24330  Biso   1.000  C
  H231     1.0000 0.35400  0.11760  0.27490  Biso   1.000  H
  H232     1.0000 0.30920  0.19860  0.23250  Biso   1.000  H
  C164     1.0000 0.38330  0.12910  0.18610  Biso   1.000  C
  H233     1.0000 0.37820  0.11470  0.13800  Biso   1.000  H
  H234     1.0000 0.39600  0.06710  0.21690  Biso   1.000  H
  C165     1.0000 0.31400  0.25200  0.12160  Biso   1.000  C
  H235     1.0000 0.28180  0.27160  0.11200  Biso   1.000  H
  H236     1.0000 0.30750  0.23910  0.07240  Biso   1.000  H
  C166     1.0000 0.40180  0.30670  0.17920  Biso   1.000  C
  H237     1.0000 0.42630  0.36220  0.20560  Biso   1.000  H
  H238     1.0000 0.39690  0.29430  0.13100  Biso   1.000  H
  C167     1.0000 0.81840  0.66160  0.72240  Biso   1.000  C
  C168     1.0000 0.81970  0.86200  0.92270  Biso   1.000  C
  C169     1.0000 0.93250  0.80750  0.04120  Biso   1.000  C
  C170     1.0000 0.93350  0.63230  0.83550  Biso   1.000  C
  C171     1.0000 0.84900  0.70600  0.80330  Biso   1.000  C
  C172     1.0000 0.82430  0.76690  0.82500  Biso   1.000  C
  H239     1.0000 0.78880  0.78700  0.78650  Biso   1.000  H
  C173     1.0000 0.84970  0.79990  0.90150  Biso   1.000  C
  C174     1.0000 0.90180  0.77170  0.95720  Biso   1.000  C
  C175     1.0000 0.92650  0.71320  0.93510  Biso   1.000  C
  H240     1.0000 0.96220  0.69440  0.97360  Biso   1.000  H
  C176     1.0000 0.90150  0.67980  0.85860  Biso   1.000  C
  Ag25     1.0000 0.00000  0.67989  0.75000  Biso   1.000  Ag
  Ag26     1.0000 0.00000  0.32220  0.75000  Biso   1.000  Ag
  Ag27     1.0000 0.50000  0.17989  0.75000  Biso   1.000  Ag
  Ag28     1.0000 0.50000  0.82220  0.75000  Biso   1.000  Ag
  Ag29     1.0000 0.00000  0.32011  0.25000  Biso   1.000  Ag
  Ag30     1.0000 0.00000  0.67780  0.25000  Biso   1.000  Ag
  Ag31     1.0000 0.50000  0.82011  0.25000  Biso   1.000  Ag
  Ag32     1.0000 0.50000  0.17780  0.25000  Biso   1.000  Ag
