data_image0
_cell_length_a       13.3082
_cell_length_b       15.6219
_cell_length_c       16.4727
_cell_angle_alpha    90
_cell_angle_beta     90
_cell_angle_gamma    90

_symmetry_space_group_name_H-M    "P 1"
_symmetry_int_tables_number       1

loop_
  _symmetry_equiv_pos_as_xyz
  'x, y, z'

loop_
  _atom_site_label
  _atom_site_occupancy
  _atom_site_fract_x
  _atom_site_fract_y
  _atom_site_fract_z
  _atom_site_thermal_displace_type
  _atom_site_B_iso_or_equiv
  _atom_site_type_symbol
  C1       1.0000 0.01370  0.76810  0.85550  Biso   1.000  C
  C2       1.0000 0.93210  0.69760  0.84920  Biso   1.000  C
  C3       1.0000 0.76590  0.87110  0.02770  Biso   1.000  C
  C4       1.0000 0.66750  0.86960  0.97760  Biso   1.000  C
  C5       1.0000 0.85490  0.95910  0.70820  Biso   1.000  C
  C6       1.0000 0.84160  0.02640  0.77660  Biso   1.000  C
  O1       1.0000 0.10314  0.74132  0.85631  Biso   1.000  O
  O2       1.0000 0.96558  0.62226  0.84465  Biso   1.000  O
  O3       1.0000 0.98767  0.84468  0.85804  Biso   1.000  O
  O4       1.0000 0.84295  0.72124  0.84788  Biso   1.000  O
  O5       1.0000 0.84667  0.86882  0.98980  Biso   1.000  O
  O6       1.0000 0.75494  0.87937  0.10298  Biso   1.000  O
  O7       1.0000 0.67280  0.85912  0.90303  Biso   1.000  O
  O8       1.0000 0.58785  0.87954  0.01791  Biso   1.000  O
  O9       1.0000 0.83960  0.88296  0.72581  Biso   1.000  O
  O10      1.0000 0.88093  0.98830  0.63977  Biso   1.000  O
  O11      1.0000 0.82170  0.00137  0.84530  Biso   1.000  O
  O12      1.0000 0.85485  0.10360  0.75371  Biso   1.000  O
  Cr1      1.0000 0.11215  0.61551  0.86353  Biso   1.000  Cr
  Mn1      1.0000 0.82470  0.86006  0.85701  Biso   1.000  Mn
  C7       1.0000 0.48630  0.23190  0.35550  Biso   1.000  C
  C8       1.0000 0.56790  0.30240  0.34920  Biso   1.000  C
  C9       1.0000 0.73410  0.12890  0.52770  Biso   1.000  C
  C10      1.0000 0.83250  0.13040  0.47760  Biso   1.000  C
  C11      1.0000 0.64510  0.04090  0.20820  Biso   1.000  C
  C12      1.0000 0.65840  0.97360  0.27660  Biso   1.000  C
  O13      1.0000 0.39686  0.25868  0.35631  Biso   1.000  O
  O14      1.0000 0.53442  0.37774  0.34465  Biso   1.000  O
  O15      1.0000 0.51233  0.15532  0.35804  Biso   1.000  O
  O16      1.0000 0.65705  0.27876  0.34788  Biso   1.000  O
  O17      1.0000 0.65333  0.13118  0.48980  Biso   1.000  O
  O18      1.0000 0.74506  0.12063  0.60298  Biso   1.000  O
  O19      1.0000 0.82720  0.14088  0.40303  Biso   1.000  O
  O20      1.0000 0.91215  0.12046  0.51791  Biso   1.000  O
  O21      1.0000 0.66040  0.11704  0.22581  Biso   1.000  O
  O22      1.0000 0.61907  0.01170  0.13977  Biso   1.000  O
  O23      1.0000 0.67830  0.99863  0.34530  Biso   1.000  O
  O24      1.0000 0.64515  0.89640  0.25371  Biso   1.000  O
  Cr2      1.0000 0.38785  0.38449  0.36353  Biso   1.000  Cr
  Mn2      1.0000 0.67530  0.13994  0.35701  Biso   1.000  Mn
  C13      1.0000 0.98630  0.26810  0.64450  Biso   1.000  C
  C14      1.0000 0.06790  0.19760  0.65080  Biso   1.000  C
  C15      1.0000 0.23410  0.37110  0.47230  Biso   1.000  C
  C16      1.0000 0.33250  0.36960  0.52240  Biso   1.000  C
  C17      1.0000 0.14510  0.45910  0.79180  Biso   1.000  C
  C18      1.0000 0.15840  0.52640  0.72340  Biso   1.000  C
  O25      1.0000 0.89686  0.24132  0.64369  Biso   1.000  O
  O26      1.0000 0.03442  0.12226  0.65535  Biso   1.000  O
  O27      1.0000 0.01233  0.34468  0.64196  Biso   1.000  O
  O28      1.0000 0.15705  0.22124  0.65212  Biso   1.000  O
  O29      1.0000 0.15333  0.36882  0.51020  Biso   1.000  O
  O30      1.0000 0.24506  0.37937  0.39702  Biso   1.000  O
  O31      1.0000 0.32720  0.35912  0.59697  Biso   1.000  O
  O32      1.0000 0.41215  0.37954  0.48209  Biso   1.000  O
  O33      1.0000 0.16040  0.38296  0.77419  Biso   1.000  O
  O34      1.0000 0.11907  0.48830  0.86023  Biso   1.000  O
  O35      1.0000 0.17830  0.50137  0.65470  Biso   1.000  O
  O36      1.0000 0.14515  0.60360  0.74629  Biso   1.000  O
  Cr3      1.0000 0.88785  0.11551  0.63647  Biso   1.000  Cr
  Mn3      1.0000 0.17530  0.36006  0.64299  Biso   1.000  Mn
  C19      1.0000 0.51370  0.73190  0.14450  Biso   1.000  C
  C20      1.0000 0.43210  0.80240  0.15080  Biso   1.000  C
  C21      1.0000 0.26590  0.62890  0.97230  Biso   1.000  C
  C22      1.0000 0.16750  0.63040  0.02240  Biso   1.000  C
  C23      1.0000 0.35490  0.54090  0.29180  Biso   1.000  C
  C24      1.0000 0.34160  0.47360  0.22340  Biso   1.000  C
  O37      1.0000 0.60314  0.75868  0.14369  Biso   1.000  O
  O38      1.0000 0.46558  0.87774  0.15535  Biso   1.000  O
  O39      1.0000 0.48767  0.65532  0.14196  Biso   1.000  O
  O40      1.0000 0.34295  0.77876  0.15212  Biso   1.000  O
  O41      1.0000 0.34667  0.63118  0.01020  Biso   1.000  O
  O42      1.0000 0.25494  0.62063  0.89702  Biso   1.000  O
  O43      1.0000 0.17280  0.64088  0.09697  Biso   1.000  O
  O44      1.0000 0.08785  0.62046  0.98209  Biso   1.000  O
  O45      1.0000 0.33960  0.61704  0.27419  Biso   1.000  O
  O46      1.0000 0.38093  0.51170  0.36023  Biso   1.000  O
  O47      1.0000 0.32170  0.49863  0.15470  Biso   1.000  O
  O48      1.0000 0.35485  0.39640  0.24629  Biso   1.000  O
  Cr4      1.0000 0.61215  0.88449  0.13647  Biso   1.000  Cr
  Mn4      1.0000 0.32470  0.63994  0.14299  Biso   1.000  Mn
  C25      1.0000 0.03560  0.82420  0.37870  Biso   1.000  C
  C26      1.0000 0.00810  0.80960  0.29900  Biso   1.000  C
  H1       1.0000 0.01520  0.75390  0.27670  Biso   1.000  H
  C27      1.0000 0.97030  0.87500  0.25100  Biso   1.000  C
  H2       1.0000 0.95100  0.86340  0.19650  Biso   1.000  H
  C28      1.0000 0.96060  0.95650  0.28150  Biso   1.000  C
  C29      1.0000 0.98830  0.97340  0.35830  Biso   1.000  C
  H3       1.0000 0.98230  0.03020  0.37840  Biso   1.000  H
  C30      1.0000 0.02600  0.90880  0.40970  Biso   1.000  C
  C31      1.0000 0.05670  0.93150  0.49110  Biso   1.000  C
  H4       1.0000 0.05070  0.98990  0.50640  Biso   1.000  H
  C32      1.0000 0.11710  0.91280  0.62540  Biso   1.000  C
  H5       1.0000 0.07280  0.96150  0.63950  Biso   1.000  H
  H6       1.0000 0.18770  0.93280  0.62640  Biso   1.000  H
  C33      1.0000 0.10280  0.84180  0.68380  Biso   1.000  C
  H7       1.0000 0.03020  0.83100  0.69210  Biso   1.000  H
  H8       1.0000 0.13300  0.85690  0.73680  Biso   1.000  H
  C34      1.0000 0.26350  0.76450  0.65570  Biso   1.000  C
  H9       1.0000 0.28810  0.70660  0.67020  Biso   1.000  H
  H10      1.0000 0.28540  0.80480  0.69850  Biso   1.000  H
  C35      1.0000 0.30770  0.79160  0.57390  Biso   1.000  C
  H11      1.0000 0.30120  0.85420  0.56640  Biso   1.000  H
  H12      1.0000 0.37970  0.77600  0.57070  Biso   1.000  H
  C36      1.0000 0.28130  0.65350  0.50180  Biso   1.000  C
  H13      1.0000 0.29940  0.62920  0.55530  Biso   1.000  H
  H14      1.0000 0.34060  0.64970  0.46560  Biso   1.000  H
  C37      1.0000 0.19340  0.60500  0.46540  Biso   1.000  C
  H15      1.0000 0.18270  0.62200  0.40820  Biso   1.000  H
  H16      1.0000 0.20560  0.54250  0.46750  Biso   1.000  H
  C38      1.0000 0.03900  0.57260  0.53290  Biso   1.000  C
  H17      1.0000 0.04880  0.51600  0.51350  Biso   1.000  H
  C39      1.0000 0.95120  0.58830  0.57900  Biso   1.000  C
  C40      1.0000 0.88940  0.51870  0.60370  Biso   1.000  C
  H18      1.0000 0.90560  0.46170  0.58830  Biso   1.000  H
  C41      1.0000 0.80380  0.53570  0.65120  Biso   1.000  C
  C42      1.0000 0.78140  0.61470  0.67480  Biso   1.000  C
  H19      1.0000 0.72410  0.62380  0.70820  Biso   1.000  H
  C43      1.0000 0.83810  0.68210  0.65250  Biso   1.000  C
  H20      1.0000 0.82000  0.73780  0.67040  Biso   1.000  H
  C44      1.0000 0.92300  0.67200  0.60370  Biso   1.000  C
  N1       1.0000 0.09140  0.87913  0.54467  Biso   1.000  N
  N2       1.0000 0.15200  0.76390  0.65060  Biso   1.000  N
  H21      1.0000 0.12880  0.71710  0.68010  Biso   1.000  H
  N3       1.0000 0.24860  0.74470  0.51077  Biso   1.000  N
  H22      1.0000 0.26000  0.77180  0.46140  Biso   1.000  H
  N4       1.0000 0.10610  0.62790  0.51520  Biso   1.000  N
  O49      1.0000 0.06900  0.75946  0.42138  Biso   1.000  O
  O50      1.0000 0.96983  0.74185  0.57879  Biso   1.000  O
  Cl1      1.0000 0.91495  0.03757  0.21919  Biso   1.000  Cl
  Cl2      1.0000 0.72803  0.44740  0.67456  Biso   1.000  Cl
  Fe1      1.0000 0.09951  0.75243  0.53407  Biso   1.000  Fe
  C45      1.0000 0.46440  0.17580  0.87870  Biso   1.000  C
  C46      1.0000 0.49190  0.19040  0.79900  Biso   1.000  C
  H23      1.0000 0.48480  0.24610  0.77670  Biso   1.000  H
  C47      1.0000 0.52970  0.12500  0.75100  Biso   1.000  C
  H24      1.0000 0.54900  0.13660  0.69650  Biso   1.000  H
  C48      1.0000 0.53940  0.04350  0.78150  Biso   1.000  C
  C49      1.0000 0.51170  0.02660  0.85830  Biso   1.000  C
  H25      1.0000 0.51770  0.96980  0.87840  Biso   1.000  H
  C50      1.0000 0.47400  0.09120  0.90970  Biso   1.000  C
  C51      1.0000 0.44330  0.06850  0.99110  Biso   1.000  C
  H26      1.0000 0.44930  0.01010  0.00640  Biso   1.000  H
  C52      1.0000 0.38290  0.08720  0.12540  Biso   1.000  C
  H27      1.0000 0.42720  0.03850  0.13950  Biso   1.000  H
  H28      1.0000 0.31230  0.06720  0.12640  Biso   1.000  H
  C53      1.0000 0.39720  0.15820  0.18380  Biso   1.000  C
  H29      1.0000 0.46980  0.16900  0.19210  Biso   1.000  H
  H30      1.0000 0.36700  0.14310  0.23680  Biso   1.000  H
  C54      1.0000 0.23650  0.23550  0.15570  Biso   1.000  C
  H31      1.0000 0.21190  0.29340  0.17020  Biso   1.000  H
  H32      1.0000 0.21460  0.19520  0.19850  Biso   1.000  H
  C55      1.0000 0.19230  0.20840  0.07390  Biso   1.000  C
  H33      1.0000 0.19880  0.14580  0.06640  Biso   1.000  H
  H34      1.0000 0.12030  0.22400  0.07070  Biso   1.000  H
  C56      1.0000 0.21870  0.34650  0.00180  Biso   1.000  C
  H35      1.0000 0.20060  0.37080  0.05530  Biso   1.000  H
  H36      1.0000 0.15940  0.35030  0.96560  Biso   1.000  H
  C57      1.0000 0.30660  0.39500  0.96540  Biso   1.000  C
  H37      1.0000 0.31730  0.37800  0.90820  Biso   1.000  H
  H38      1.0000 0.29440  0.45750  0.96750  Biso   1.000  H
  C58      1.0000 0.46100  0.42740  0.03290  Biso   1.000  C
  H39      1.0000 0.45120  0.48400  0.01350  Biso   1.000  H
  C59      1.0000 0.54880  0.41170  0.07900  Biso   1.000  C
  C60      1.0000 0.61060  0.48130  0.10370  Biso   1.000  C
  H40      1.0000 0.59440  0.53830  0.08830  Biso   1.000  H
  C61      1.0000 0.69620  0.46430  0.15120  Biso   1.000  C
  C62      1.0000 0.71860  0.38530  0.17480  Biso   1.000  C
  H41      1.0000 0.77590  0.37620  0.20820  Biso   1.000  H
  C63      1.0000 0.66190  0.31790  0.15250  Biso   1.000  C
  H42      1.0000 0.68000  0.26220  0.17040  Biso   1.000  H
  C64      1.0000 0.57700  0.32800  0.10370  Biso   1.000  C
  N5       1.0000 0.40860  0.12087  0.04467  Biso   1.000  N
  N6       1.0000 0.34800  0.23610  0.15060  Biso   1.000  N
  H43      1.0000 0.37120  0.28290  0.18010  Biso   1.000  H
  N7       1.0000 0.25140  0.25530  0.01077  Biso   1.000  N
  H44      1.0000 0.24000  0.22820  0.96140  Biso   1.000  H
  N8       1.0000 0.39390  0.37210  0.01520  Biso   1.000  N
  O51      1.0000 0.43100  0.24054  0.92138  Biso   1.000  O
  O52      1.0000 0.53017  0.25815  0.07879  Biso   1.000  O
  Cl3      1.0000 0.58505  0.96243  0.71919  Biso   1.000  Cl
  Cl4      1.0000 0.77197  0.55260  0.17456  Biso   1.000  Cl
  Fe2      1.0000 0.40049  0.24757  0.03407  Biso   1.000  Fe
  C65      1.0000 0.96440  0.32420  0.12130  Biso   1.000  C
  C66      1.0000 0.99190  0.30960  0.20100  Biso   1.000  C
  H45      1.0000 0.98480  0.25390  0.22330  Biso   1.000  H
  C67      1.0000 0.02970  0.37500  0.24900  Biso   1.000  C
  H46      1.0000 0.04900  0.36340  0.30350  Biso   1.000  H
  C68      1.0000 0.03940  0.45650  0.21850  Biso   1.000  C
  C69      1.0000 0.01170  0.47340  0.14170  Biso   1.000  C
  H47      1.0000 0.01770  0.53020  0.12160  Biso   1.000  H
  C70      1.0000 0.97400  0.40880  0.09030  Biso   1.000  C
  C71      1.0000 0.94330  0.43150  0.00890  Biso   1.000  C
  H48      1.0000 0.94930  0.48990  0.99360  Biso   1.000  H
  C72      1.0000 0.88290  0.41280  0.87460  Biso   1.000  C
  H49      1.0000 0.92720  0.46150  0.86050  Biso   1.000  H
  H50      1.0000 0.81230  0.43280  0.87360  Biso   1.000  H
  C73      1.0000 0.89720  0.34180  0.81620  Biso   1.000  C
  H51      1.0000 0.96980  0.33100  0.80790  Biso   1.000  H
  H52      1.0000 0.86700  0.35690  0.76320  Biso   1.000  H
  C74      1.0000 0.73650  0.26450  0.84430  Biso   1.000  C
  H53      1.0000 0.71190  0.20660  0.82980  Biso   1.000  H
  H54      1.0000 0.71460  0.30480  0.80150  Biso   1.000  H
  C75      1.0000 0.69230  0.29160  0.92610  Biso   1.000  C
  H55      1.0000 0.69880  0.35420  0.93360  Biso   1.000  H
  H56      1.0000 0.62030  0.27600  0.92930  Biso   1.000  H
  C76      1.0000 0.71870  0.15350  0.99820  Biso   1.000  C
  H57      1.0000 0.70060  0.12920  0.94470  Biso   1.000  H
  H58      1.0000 0.65940  0.14970  0.03440  Biso   1.000  H
  C77      1.0000 0.80660  0.10500  0.03460  Biso   1.000  C
  H59      1.0000 0.81730  0.12200  0.09180  Biso   1.000  H
  H60      1.0000 0.79440  0.04250  0.03250  Biso   1.000  H
  C78      1.0000 0.96100  0.07260  0.96710  Biso   1.000  C
  H61      1.0000 0.95120  0.01600  0.98650  Biso   1.000  H
  C79      1.0000 0.04880  0.08830  0.92100  Biso   1.000  C
  C80      1.0000 0.11060  0.01870  0.89630  Biso   1.000  C
  H62      1.0000 0.09440  0.96170  0.91170  Biso   1.000  H
  C81      1.0000 0.19620  0.03570  0.84880  Biso   1.000  C
  C82      1.0000 0.21860  0.11470  0.82520  Biso   1.000  C
  H63      1.0000 0.27590  0.12380  0.79180  Biso   1.000  H
  C83      1.0000 0.16190  0.18210  0.84750  Biso   1.000  C
  H64      1.0000 0.18000  0.23780  0.82960  Biso   1.000  H
  C84      1.0000 0.07700  0.17200  0.89630  Biso   1.000  C
  N9       1.0000 0.90860  0.37913  0.95533  Biso   1.000  N
  N10      1.0000 0.84800  0.26390  0.84940  Biso   1.000  N
  H65      1.0000 0.87120  0.21710  0.81990  Biso   1.000  H
  N11      1.0000 0.75140  0.24470  0.98923  Biso   1.000  N
  H66      1.0000 0.74000  0.27180  0.03860  Biso   1.000  H
  N12      1.0000 0.89390  0.12790  0.98480  Biso   1.000  N
  O53      1.0000 0.93100  0.25946  0.07862  Biso   1.000  O
  O54      1.0000 0.03017  0.24185  0.92121  Biso   1.000  O
  Cl5      1.0000 0.08505  0.53757  0.28081  Biso   1.000  Cl
  Cl6      1.0000 0.27197  0.94740  0.82544  Biso   1.000  Cl
  Fe3      1.0000 0.90049  0.25243  0.96593  Biso   1.000  Fe
  C85      1.0000 0.53560  0.67580  0.62130  Biso   1.000  C
  C86      1.0000 0.50810  0.69040  0.70100  Biso   1.000  C
  H67      1.0000 0.51520  0.74610  0.72330  Biso   1.000  H
  C87      1.0000 0.47030  0.62500  0.74900  Biso   1.000  C
  H68      1.0000 0.45100  0.63660  0.80350  Biso   1.000  H
  C88      1.0000 0.46060  0.54350  0.71850  Biso   1.000  C
  C89      1.0000 0.48830  0.52660  0.64170  Biso   1.000  C
  H69      1.0000 0.48230  0.46980  0.62160  Biso   1.000  H
  C90      1.0000 0.52600  0.59120  0.59030  Biso   1.000  C
  C91      1.0000 0.55670  0.56850  0.50890  Biso   1.000  C
  H70      1.0000 0.55070  0.51010  0.49360  Biso   1.000  H
  C92      1.0000 0.61710  0.58720  0.37460  Biso   1.000  C
  H71      1.0000 0.57280  0.53850  0.36050  Biso   1.000  H
  H72      1.0000 0.68770  0.56720  0.37360  Biso   1.000  H
  C93      1.0000 0.60280  0.65820  0.31620  Biso   1.000  C
  H73      1.0000 0.53020  0.66900  0.30790  Biso   1.000  H
  H74      1.0000 0.63300  0.64310  0.26320  Biso   1.000  H
  C94      1.0000 0.76350  0.73550  0.34430  Biso   1.000  C
  H75      1.0000 0.78810  0.79340  0.32980  Biso   1.000  H
  H76      1.0000 0.78540  0.69520  0.30150  Biso   1.000  H
  C95      1.0000 0.80770  0.70840  0.42610  Biso   1.000  C
  H77      1.0000 0.80120  0.64580  0.43360  Biso   1.000  H
  H78      1.0000 0.87970  0.72400  0.42930  Biso   1.000  H
  C96      1.0000 0.78130  0.84650  0.49820  Biso   1.000  C
  H79      1.0000 0.79940  0.87080  0.44470  Biso   1.000  H
  H80      1.0000 0.84060  0.85030  0.53440  Biso   1.000  H
  C97      1.0000 0.69340  0.89500  0.53460  Biso   1.000  C
  H81      1.0000 0.68270  0.87800  0.59180  Biso   1.000  H
  H82      1.0000 0.70560  0.95750  0.53250  Biso   1.000  H
  C98      1.0000 0.53900  0.92740  0.46710  Biso   1.000  C
  H83      1.0000 0.54880  0.98400  0.48650  Biso   1.000  H
  C99      1.0000 0.45120  0.91170  0.42100  Biso   1.000  C
  C100     1.0000 0.38940  0.98130  0.39630  Biso   1.000  C
  H84      1.0000 0.40560  0.03830  0.41170  Biso   1.000  H
  C101     1.0000 0.30380  0.96430  0.34880  Biso   1.000  C
  C102     1.0000 0.28140  0.88530  0.32520  Biso   1.000  C
  H85      1.0000 0.22410  0.87620  0.29180  Biso   1.000  H
  C103     1.0000 0.33810  0.81790  0.34750  Biso   1.000  C
  H86      1.0000 0.32000  0.76220  0.32960  Biso   1.000  H
  C104     1.0000 0.42300  0.82800  0.39630  Biso   1.000  C
  N13      1.0000 0.59140  0.62087  0.45533  Biso   1.000  N
  N14      1.0000 0.65200  0.73610  0.34940  Biso   1.000  N
  H87      1.0000 0.62880  0.78290  0.31990  Biso   1.000  H
  N15      1.0000 0.74860  0.75530  0.48923  Biso   1.000  N
  H88      1.0000 0.76000  0.72820  0.53860  Biso   1.000  H
  N16      1.0000 0.60610  0.87210  0.48480  Biso   1.000  N
  O55      1.0000 0.56900  0.74054  0.57862  Biso   1.000  O
  O56      1.0000 0.46983  0.75815  0.42121  Biso   1.000  O
  Cl7      1.0000 0.41495  0.46243  0.78081  Biso   1.000  Cl
  Cl8      1.0000 0.22803  0.05260  0.32544  Biso   1.000  Cl
  Fe4      1.0000 0.59951  0.74757  0.46593  Biso   1.000  Fe
