data_image0
_cell_length_a       15.904
_cell_length_b       20.0425
_cell_length_c       21.5043
_cell_angle_alpha    80.1146
_cell_angle_beta     68.2976
_cell_angle_gamma    66.6244

_symmetry_space_group_name_H-M    P 1
_symmetry_int_tables_number       1

loop_
  _symmetry_equiv_pos_as_xyz
  'x, y, z'

loop_
  _atom_site_label
  _atom_site_occupancy
  _atom_site_fract_x
  _atom_site_fract_y
  _atom_site_fract_z
  _atom_site_thermal_displace_type
  _atom_site_B_iso_or_equiv
  _atom_site_type_symbol
  Mn1      1.0000 0.85038  0.15365  0.87215  Biso   1.000  Mn
  Mn2      1.0000 0.88823  0.30992  0.91290  Biso   1.000  Mn
  Mn3      1.0000 0.87618  0.34635  0.62785  Biso   1.000  Mn
  Mn4      1.0000 0.11105  0.19008  0.58710  Biso   1.000  Mn
  Mn5      1.0000 0.14962  0.84635  0.12785  Biso   1.000  Mn
  Mn6      1.0000 0.11177  0.69008  0.08710  Biso   1.000  Mn
  Mn7      1.0000 0.12382  0.65365  0.37215  Biso   1.000  Mn
  Mn8      1.0000 0.88895  0.80992  0.41290  Biso   1.000  Mn
  Mn9      1.0000 0.00070  0.25000  0.75000  Biso   1.000  Mn
  Mn10     1.0000 0.99930  0.75000  0.25000  Biso   1.000  Mn
  H1       1.0000 0.01590  0.37380  0.96320  Biso   1.000  H
  H2       1.0000 0.03420  0.54320  0.83260  Biso   1.000  H
  H3       1.0000 0.98600  0.38760  0.08380  Biso   1.000  H
  H4       1.0000 0.02530  0.10940  0.53560  Biso   1.000  H
  H5       1.0000 0.91240  0.97350  0.67150  Biso   1.000  H
  H6       1.0000 0.92490  0.90990  0.58650  Biso   1.000  H
  H7       1.0000 0.57750  0.14550  0.12670  Biso   1.000  H
  H8       1.0000 0.61100  0.32020  0.17100  Biso   1.000  H
  H9       1.0000 0.50810  0.37880  0.28180  Biso   1.000  H
  H10      1.0000 0.39120  0.38080  0.38560  Biso   1.000  H
  H11      1.0000 0.36370  0.20220  0.34260  Biso   1.000  H
  H12      1.0000 0.46420  0.14530  0.23130  Biso   1.000  H
  H13      1.0000 0.79670  0.36770  0.05910  Biso   1.000  H
  H14      1.0000 0.69670  0.55470  0.00770  Biso   1.000  H
  H15      1.0000 0.74270  0.57610  0.05250  Biso   1.000  H
  H16      1.0000 0.81200  0.53150  0.98570  Biso   1.000  H
  H17      1.0000 0.74020  0.42550  0.15470  Biso   1.000  H
  H18      1.0000 0.75240  0.50210  0.14870  Biso   1.000  H
  H19      1.0000 0.65180  0.49940  0.15160  Biso   1.000  H
  H20      1.0000 0.82160  0.00620  0.95560  Biso   1.000  H
  H21      1.0000 0.75540  0.93020  0.02900  Biso   1.000  H
  H22      1.0000 0.65870  0.98560  0.07820  Biso   1.000  H
  H23      1.0000 0.65110  0.93500  0.03200  Biso   1.000  H
  H24      1.0000 0.56710  0.07410  0.95150  Biso   1.000  H
  H25      1.0000 0.54040  0.06700  0.03120  Biso   1.000  H
  H26      1.0000 0.58770  0.12500  0.98940  Biso   1.000  H
  H27      1.0000 0.08250  0.07330  0.85090  Biso   1.000  H
  H28      1.0000 0.01800  0.92950  0.93570  Biso   1.000  H
  H29      1.0000 0.12810  0.87390  0.91870  Biso   1.000  H
  H30      1.0000 0.08010  0.92610  0.98090  Biso   1.000  H
  H31      1.0000 0.23110  0.00710  0.84810  Biso   1.000  H
  H32      1.0000 0.24260  0.94820  0.90780  Biso   1.000  H
  H33      1.0000 0.25410  0.92390  0.83710  Biso   1.000  H
  H34      1.0000 0.64290  0.23370  0.94110  Biso   1.000  H
  H35      1.0000 0.61940  0.30890  0.78670  Biso   1.000  H
  H36      1.0000 0.50330  0.33580  0.81400  Biso   1.000  H
  H37      1.0000 0.55590  0.38620  0.82100  Biso   1.000  H
  H38      1.0000 0.48760  0.28620  0.98740  Biso   1.000  H
  H39      1.0000 0.45650  0.36950  0.96230  Biso   1.000  H
  H40      1.0000 0.42040  0.31550  0.94130  Biso   1.000  H
  H41      1.0000 0.35290  0.12620  0.53680  Biso   1.000  H
  H42      1.0000 0.41000  0.95680  0.66740  Biso   1.000  H
  H43      1.0000 0.45740  0.11240  0.41620  Biso   1.000  H
  H44      1.0000 0.67030  0.39060  0.96440  Biso   1.000  H
  H45      1.0000 0.55740  0.52650  0.82850  Biso   1.000  H
  H46      1.0000 0.42130  0.59010  0.91350  Biso   1.000  H
  H47      1.0000 0.84970  0.35450  0.37330  Biso   1.000  H
  H48      1.0000 0.10220  0.17980  0.32900  Biso   1.000  H
  H49      1.0000 0.16870  0.12120  0.21820  Biso   1.000  H
  H50      1.0000 0.15760  0.11920  0.11440  Biso   1.000  H
  H51      1.0000 0.90850  0.29780  0.15740  Biso   1.000  H
  H52      1.0000 0.84080  0.35470  0.26870  Biso   1.000  H
  H53      1.0000 0.22350  0.13230  0.44090  Biso   1.000  H
  H54      1.0000 0.25910  0.94530  0.49230  Biso   1.000  H
  H55      1.0000 0.37130  0.92390  0.44750  Biso   1.000  H
  H56      1.0000 0.32920  0.96850  0.51430  Biso   1.000  H
  H57      1.0000 0.32040  0.07450  0.34530  Biso   1.000  H
  H58      1.0000 0.40320  0.99790  0.35130  Biso   1.000  H
  H59      1.0000 0.30280  0.00060  0.34840  Biso   1.000  H
  H60      1.0000 0.78340  0.49380  0.54440  Biso   1.000  H
  H61      1.0000 0.71460  0.56980  0.47100  Biso   1.000  H
  H62      1.0000 0.72250  0.51440  0.42180  Biso   1.000  H
  H63      1.0000 0.61810  0.56500  0.46800  Biso   1.000  H
  H64      1.0000 0.59270  0.42590  0.54850  Biso   1.000  H
  H65      1.0000 0.63860  0.43300  0.46880  Biso   1.000  H
  H66      1.0000 0.70210  0.37500  0.51060  Biso   1.000  H
  H67      1.0000 0.00670  0.42670  0.64910  Biso   1.000  H
  H68      1.0000 0.88320  0.57050  0.56430  Biso   1.000  H
  H69      1.0000 0.92070  0.62610  0.58130  Biso   1.000  H
  H70      1.0000 0.98710  0.57390  0.51910  Biso   1.000  H
  H71      1.0000 0.08630  0.49290  0.65190  Biso   1.000  H
  H72      1.0000 0.09860  0.55180  0.59220  Biso   1.000  H
  H73      1.0000 0.01510  0.57610  0.66290  Biso   1.000  H
  H74      1.0000 0.81770  0.26630  0.55890  Biso   1.000  H
  H75      1.0000 0.71500  0.19110  0.71330  Biso   1.000  H
  H76      1.0000 0.65310  0.16420  0.68600  Biso   1.000  H
  H77      1.0000 0.76310  0.11380  0.67900  Biso   1.000  H
  H78      1.0000 0.76120  0.21380  0.51260  Biso   1.000  H
  H79      1.0000 0.78830  0.13050  0.53770  Biso   1.000  H
  H80      1.0000 0.67720  0.18450  0.55870  Biso   1.000  H
  H81      1.0000 0.98410  0.62620  0.03680  Biso   1.000  H
  H82      1.0000 0.96580  0.45680  0.16740  Biso   1.000  H
  H83      1.0000 0.01400  0.61240  0.91620  Biso   1.000  H
  H84      1.0000 0.97470  0.89060  0.46440  Biso   1.000  H
  H85      1.0000 0.08760  0.02650  0.32850  Biso   1.000  H
  H86      1.0000 0.07510  0.09010  0.41350  Biso   1.000  H
  H87      1.0000 0.42250  0.85450  0.87330  Biso   1.000  H
  H88      1.0000 0.38900  0.67980  0.82900  Biso   1.000  H
  H89      1.0000 0.49190  0.62120  0.71820  Biso   1.000  H
  H90      1.0000 0.60880  0.61920  0.61440  Biso   1.000  H
  H91      1.0000 0.63630  0.79780  0.65740  Biso   1.000  H
  H92      1.0000 0.53580  0.85470  0.76870  Biso   1.000  H
  H93      1.0000 0.20330  0.63230  0.94090  Biso   1.000  H
  H94      1.0000 0.30330  0.44530  0.99230  Biso   1.000  H
  H95      1.0000 0.25730  0.42390  0.94750  Biso   1.000  H
  H96      1.0000 0.18800  0.46850  0.01430  Biso   1.000  H
  H97      1.0000 0.25980  0.57450  0.84530  Biso   1.000  H
  H98      1.0000 0.24760  0.49790  0.85130  Biso   1.000  H
  H99      1.0000 0.34820  0.50060  0.84840  Biso   1.000  H
  H100     1.0000 0.17840  0.99380  0.04440  Biso   1.000  H
  H101     1.0000 0.24460  0.06980  0.97100  Biso   1.000  H
  H102     1.0000 0.34130  0.01440  0.92180  Biso   1.000  H
  H103     1.0000 0.34890  0.06500  0.96800  Biso   1.000  H
  H104     1.0000 0.43290  0.92590  0.04850  Biso   1.000  H
  H105     1.0000 0.45960  0.93300  0.96880  Biso   1.000  H
  H106     1.0000 0.41230  0.87500  0.01060  Biso   1.000  H
  H107     1.0000 0.91750  0.92670  0.14910  Biso   1.000  H
  H108     1.0000 0.98200  0.07050  0.06430  Biso   1.000  H
  H109     1.0000 0.87190  0.12610  0.08130  Biso   1.000  H
  H110     1.0000 0.91990  0.07390  0.01910  Biso   1.000  H
  H111     1.0000 0.76890  0.99290  0.15190  Biso   1.000  H
  H112     1.0000 0.75740  0.05180  0.09220  Biso   1.000  H
  H113     1.0000 0.74590  0.07610  0.16290  Biso   1.000  H
  H114     1.0000 0.35710  0.76630  0.05890  Biso   1.000  H
  H115     1.0000 0.38060  0.69110  0.21330  Biso   1.000  H
  H116     1.0000 0.49670  0.66420  0.18600  Biso   1.000  H
  H117     1.0000 0.44410  0.61380  0.17900  Biso   1.000  H
  H118     1.0000 0.51240  0.71380  0.01260  Biso   1.000  H
  H119     1.0000 0.54350  0.63050  0.03770  Biso   1.000  H
  H120     1.0000 0.57960  0.68450  0.05870  Biso   1.000  H
  H121     1.0000 0.64710  0.87380  0.46320  Biso   1.000  H
  H122     1.0000 0.59000  0.04320  0.33260  Biso   1.000  H
  H123     1.0000 0.54260  0.88760  0.58380  Biso   1.000  H
  H124     1.0000 0.32970  0.60940  0.03560  Biso   1.000  H
  H125     1.0000 0.44260  0.47350  0.17150  Biso   1.000  H
  H126     1.0000 0.57870  0.40990  0.08650  Biso   1.000  H
  H127     1.0000 0.15030  0.64550  0.62670  Biso   1.000  H
  H128     1.0000 0.89780  0.82020  0.67100  Biso   1.000  H
  H129     1.0000 0.83130  0.87880  0.78180  Biso   1.000  H
  H130     1.0000 0.84240  0.88080  0.88560  Biso   1.000  H
  H131     1.0000 0.09150  0.70220  0.84260  Biso   1.000  H
  H132     1.0000 0.15920  0.64530  0.73130  Biso   1.000  H
  H133     1.0000 0.77650  0.86770  0.55910  Biso   1.000  H
  H134     1.0000 0.74090  0.05470  0.50770  Biso   1.000  H
  H135     1.0000 0.62870  0.07610  0.55250  Biso   1.000  H
  H136     1.0000 0.67080  0.03150  0.48570  Biso   1.000  H
  H137     1.0000 0.67960  0.92550  0.65470  Biso   1.000  H
  H138     1.0000 0.59680  0.00210  0.64870  Biso   1.000  H
  H139     1.0000 0.69720  0.99940  0.65160  Biso   1.000  H
  H140     1.0000 0.21660  0.50620  0.45560  Biso   1.000  H
  H141     1.0000 0.28540  0.43020  0.52900  Biso   1.000  H
  H142     1.0000 0.27750  0.48560  0.57820  Biso   1.000  H
  H143     1.0000 0.38190  0.43500  0.53200  Biso   1.000  H
  H144     1.0000 0.40730  0.57410  0.45150  Biso   1.000  H
  H145     1.0000 0.36140  0.56700  0.53120  Biso   1.000  H
  H146     1.0000 0.29790  0.62500  0.48940  Biso   1.000  H
  H147     1.0000 0.99330  0.57330  0.35090  Biso   1.000  H
  H148     1.0000 0.11680  0.42950  0.43570  Biso   1.000  H
  H149     1.0000 0.07930  0.37390  0.41870  Biso   1.000  H
  H150     1.0000 0.01290  0.42610  0.48090  Biso   1.000  H
  H151     1.0000 0.91370  0.50710  0.34810  Biso   1.000  H
  H152     1.0000 0.90140  0.44820  0.40780  Biso   1.000  H
  H153     1.0000 0.98490  0.42390  0.33710  Biso   1.000  H
  H154     1.0000 0.18230  0.73370  0.44110  Biso   1.000  H
  H155     1.0000 0.28500  0.80890  0.28670  Biso   1.000  H
  H156     1.0000 0.34690  0.83580  0.31400  Biso   1.000  H
  H157     1.0000 0.23690  0.88620  0.32100  Biso   1.000  H
  H158     1.0000 0.23880  0.78620  0.48740  Biso   1.000  H
  H159     1.0000 0.21170  0.86950  0.46230  Biso   1.000  H
  H160     1.0000 0.32280  0.81550  0.44130  Biso   1.000  H
  C1       1.0000 0.03828  0.40980  0.83544  Biso   1.000  C
  C2       1.0000 0.00126  0.46377  0.00651  Biso   1.000  C
  C3       1.0000 0.01425  0.42244  0.95426  Biso   1.000  C
  C4       1.0000 0.02451  0.45255  0.89043  Biso   1.000  C
  C5       1.0000 0.02509  0.52347  0.87695  Biso   1.000  C
  C6       1.0000 0.98711  0.43534  0.07344  Biso   1.000  C
  C7       1.0000 0.96059  0.08756  0.66578  Biso   1.000  C
  C8       1.0000 0.00618  0.06854  0.54544  Biso   1.000  C
  C9       1.0000 0.97024  0.04703  0.61081  Biso   1.000  C
  C10      1.0000 0.93873  0.98740  0.62614  Biso   1.000  C
  C11      1.0000 0.94607  0.94989  0.57577  Biso   1.000  C
  C12      1.0000 0.01501  0.03005  0.49257  Biso   1.000  C
  C13      1.0000 0.68040  0.23091  0.07269  Biso   1.000  C
  C14      1.0000 0.56099  0.18073  0.15789  Biso   1.000  C
  C15      1.0000 0.60748  0.23285  0.13939  Biso   1.000  C
  C16      1.0000 0.58104  0.28505  0.18347  Biso   1.000  C
  C17      1.0000 0.50952  0.28773  0.24763  Biso   1.000  C
  C18      1.0000 0.47973  0.34267  0.29387  Biso   1.000  C
  C19      1.0000 0.41058  0.34384  0.35540  Biso   1.000  C
  C20      1.0000 0.36764  0.29017  0.37455  Biso   1.000  C
  C21      1.0000 0.39400  0.23709  0.33031  Biso   1.000  C
  C22      1.0000 0.46638  0.23462  0.26662  Biso   1.000  C
  C23      1.0000 0.49350  0.18087  0.21953  Biso   1.000  C
  C24      1.0000 0.29412  0.29019  0.44117  Biso   1.000  C
  C25      1.0000 0.79262  0.41083  0.03213  Biso   1.000  C
  C26      1.0000 0.75179  0.53892  0.02390  Biso   1.000  C
  C27      1.0000 0.72262  0.47496  0.13540  Biso   1.000  C
  C28      1.0000 0.76296  0.03428  0.94660  Biso   1.000  C
  C29      1.0000 0.68830  0.96280  0.03460  Biso   1.000  C
  C30      1.0000 0.58680  0.07640  0.98900  Biso   1.000  C
  C31      1.0000 0.05486  0.03938  0.87770  Biso   1.000  C
  C32      1.0000 0.08290  0.92230  0.93530  Biso   1.000  C
  C33      1.0000 0.21930  0.96300  0.86940  Biso   1.000  C
  C34      1.0000 0.64460  0.25370  0.89750  Biso   1.000  C
  C35      1.0000 0.56010  0.33600  0.82180  Biso   1.000  C
  C36      1.0000 0.47420  0.31950  0.95030  Biso   1.000  C
  C37      1.0000 0.28352  0.09020  0.66456  Biso   1.000  C
  C38      1.0000 0.47154  0.03623  0.49349  Biso   1.000  C
  C39      1.0000 0.39095  0.07756  0.54574  Biso   1.000  C
  C40      1.0000 0.36749  0.04745  0.60957  Biso   1.000  C
  C41      1.0000 0.42551  0.97653  0.62305  Biso   1.000  C
  C42      1.0000 0.49589  0.06466  0.42656  Biso   1.000  C
  C43      1.0000 0.71393  0.41244  0.83422  Biso   1.000  C
  C44      1.0000 0.62016  0.43146  0.95456  Biso   1.000  C
  C45      1.0000 0.62808  0.45297  0.88919  Biso   1.000  C
  C46      1.0000 0.55227  0.51260  0.87386  Biso   1.000  C
  C47      1.0000 0.47173  0.55011  0.92423  Biso   1.000  C
  C48      1.0000 0.53763  0.46995  0.00743  Biso   1.000  C
  C49      1.0000 0.98400  0.26909  0.42731  Biso   1.000  C
  C50      1.0000 0.89961  0.31927  0.34211  Biso   1.000  C
  C51      1.0000 0.97972  0.26715  0.36061  Biso   1.000  C
  C52      1.0000 0.04956  0.21495  0.31653  Biso   1.000  C
  C53      1.0000 0.04488  0.21227  0.25237  Biso   1.000  C
  C54      1.0000 0.11627  0.15733  0.20613  Biso   1.000  C
  C55      1.0000 0.10982  0.15616  0.14460  Biso   1.000  C
  C56      1.0000 0.03236  0.20983  0.12545  Biso   1.000  C
  C57      1.0000 0.96140  0.26291  0.16969  Biso   1.000  C
  C58      1.0000 0.96762  0.26538  0.23338  Biso   1.000  C
  C59      1.0000 0.89390  0.31913  0.28047  Biso   1.000  C
  C60      1.0000 0.02548  0.20981  0.05883  Biso   1.000  C
  C61      1.0000 0.23558  0.08917  0.46787  Biso   1.000  C
  C62      1.0000 0.31461  0.96108  0.47610  Biso   1.000  C
  C63      1.0000 0.33298  0.02504  0.36460  Biso   1.000  C
  C64      1.0000 0.74384  0.46572  0.55340  Biso   1.000  C
  C65      1.0000 0.68570  0.53720  0.46540  Biso   1.000  C
  C66      1.0000 0.65220  0.42360  0.51100  Biso   1.000  C
  C67      1.0000 0.97194  0.46062  0.62230  Biso   1.000  C
  C68      1.0000 0.94050  0.57770  0.56470  Biso   1.000  C
  C69      1.0000 0.05170  0.53700  0.63060  Biso   1.000  C
  C70      1.0000 0.79580  0.24630  0.60250  Biso   1.000  C
  C71      1.0000 0.71790  0.16400  0.67820  Biso   1.000  C
  C72      1.0000 0.74400  0.18050  0.54970  Biso   1.000  C
  C73      1.0000 0.96172  0.59020  0.16456  Biso   1.000  C
  C74      1.0000 0.99874  0.53623  0.99349  Biso   1.000  C
  C75      1.0000 0.98575  0.57756  0.04574  Biso   1.000  C
  C76      1.0000 0.97549  0.54745  0.10957  Biso   1.000  C
  C77      1.0000 0.97491  0.47653  0.12305  Biso   1.000  C
  C78      1.0000 0.01289  0.56466  0.92656  Biso   1.000  C
  C79      1.0000 0.03941  0.91244  0.33422  Biso   1.000  C
  C80      1.0000 0.99382  0.93146  0.45456  Biso   1.000  C
  C81      1.0000 0.02976  0.95297  0.38919  Biso   1.000  C
  C82      1.0000 0.06127  0.01260  0.37386  Biso   1.000  C
  C83      1.0000 0.05393  0.05011  0.42423  Biso   1.000  C
  C84      1.0000 0.98499  0.96995  0.50743  Biso   1.000  C
  C85      1.0000 0.31960  0.76909  0.92731  Biso   1.000  C
  C86      1.0000 0.43901  0.81927  0.84211  Biso   1.000  C
  C87      1.0000 0.39252  0.76715  0.86061  Biso   1.000  C
  C88      1.0000 0.41896  0.71495  0.81653  Biso   1.000  C
  C89      1.0000 0.49048  0.71227  0.75237  Biso   1.000  C
  C90      1.0000 0.52027  0.65733  0.70613  Biso   1.000  C
  C91      1.0000 0.58942  0.65616  0.64460  Biso   1.000  C
  C92      1.0000 0.63236  0.70983  0.62545  Biso   1.000  C
  C93      1.0000 0.60600  0.76291  0.66969  Biso   1.000  C
  C94      1.0000 0.53362  0.76538  0.73338  Biso   1.000  C
  C95      1.0000 0.50650  0.81913  0.78047  Biso   1.000  C
  C96      1.0000 0.70588  0.70981  0.55883  Biso   1.000  C
  C97      1.0000 0.20738  0.58917  0.96787  Biso   1.000  C
  C98      1.0000 0.24821  0.46108  0.97610  Biso   1.000  C
  C99      1.0000 0.27738  0.52504  0.86460  Biso   1.000  C
  C100     1.0000 0.23704  0.96572  0.05340  Biso   1.000  C
  C101     1.0000 0.31170  0.03720  0.96540  Biso   1.000  C
  C102     1.0000 0.41320  0.92360  0.01100  Biso   1.000  C
  C103     1.0000 0.94514  0.96062  0.12230  Biso   1.000  C
  C104     1.0000 0.91710  0.07770  0.06470  Biso   1.000  C
  C105     1.0000 0.78070  0.03700  0.13060  Biso   1.000  C
  C106     1.0000 0.35540  0.74630  0.10250  Biso   1.000  C
  C107     1.0000 0.43990  0.66400  0.17820  Biso   1.000  C
  C108     1.0000 0.52580  0.68050  0.04970  Biso   1.000  C
  C109     1.0000 0.71648  0.90980  0.33544  Biso   1.000  C
  C110     1.0000 0.52846  0.96377  0.50651  Biso   1.000  C
  C111     1.0000 0.60905  0.92244  0.45426  Biso   1.000  C
  C112     1.0000 0.63251  0.95255  0.39043  Biso   1.000  C
  C113     1.0000 0.57449  0.02347  0.37695  Biso   1.000  C
  C114     1.0000 0.50411  0.93534  0.57344  Biso   1.000  C
  C115     1.0000 0.28607  0.58756  0.16578  Biso   1.000  C
  C116     1.0000 0.37984  0.56854  0.04544  Biso   1.000  C
  C117     1.0000 0.37192  0.54703  0.11081  Biso   1.000  C
  C118     1.0000 0.44773  0.48740  0.12614  Biso   1.000  C
  C119     1.0000 0.52827  0.44989  0.07577  Biso   1.000  C
  C120     1.0000 0.46237  0.53005  0.99257  Biso   1.000  C
  C121     1.0000 0.01600  0.73091  0.57269  Biso   1.000  C
  C122     1.0000 0.10039  0.68073  0.65789  Biso   1.000  C
  C123     1.0000 0.02028  0.73285  0.63939  Biso   1.000  C
  C124     1.0000 0.95044  0.78505  0.68347  Biso   1.000  C
  C125     1.0000 0.95512  0.78773  0.74763  Biso   1.000  C
  C126     1.0000 0.88373  0.84267  0.79387  Biso   1.000  C
  C127     1.0000 0.89018  0.84384  0.85540  Biso   1.000  C
  C128     1.0000 0.96764  0.79017  0.87455  Biso   1.000  C
  C129     1.0000 0.03860  0.73709  0.83031  Biso   1.000  C
  C130     1.0000 0.03238  0.73462  0.76662  Biso   1.000  C
  C131     1.0000 0.10610  0.68087  0.71953  Biso   1.000  C
  C132     1.0000 0.97452  0.79019  0.94117  Biso   1.000  C
  C133     1.0000 0.76442  0.91083  0.53213  Biso   1.000  C
  C134     1.0000 0.68539  0.03892  0.52390  Biso   1.000  C
  C135     1.0000 0.66702  0.97496  0.63540  Biso   1.000  C
  C136     1.0000 0.25616  0.53428  0.44660  Biso   1.000  C
  C137     1.0000 0.31430  0.46280  0.53460  Biso   1.000  C
  C138     1.0000 0.34780  0.57640  0.48900  Biso   1.000  C
  C139     1.0000 0.02806  0.53938  0.37770  Biso   1.000  C
  C140     1.0000 0.05950  0.42230  0.43530  Biso   1.000  C
  C141     1.0000 0.94830  0.46300  0.36940  Biso   1.000  C
  C142     1.0000 0.20420  0.75370  0.39750  Biso   1.000  C
  C143     1.0000 0.28210  0.83600  0.32180  Biso   1.000  C
  C144     1.0000 0.25600  0.81950  0.45030  Biso   1.000  C
  N1       1.0000 0.00505  0.35641  0.84205  Biso   1.000  N
  N2       1.0000 0.03881  0.33294  0.77870  Biso   1.000  N
  N3       1.0000 0.08952  0.37106  0.73714  Biso   1.000  N
  N4       1.0000 0.09065  0.41990  0.77160  Biso   1.000  N
  N5       1.0000 0.99821  0.13887  0.65861  Biso   1.000  N
  N6       1.0000 0.96668  0.16298  0.72076  Biso   1.000  N
  N7       1.0000 0.91339  0.12733  0.76281  Biso   1.000  N
  N8       1.0000 0.90846  0.07905  0.72941  Biso   1.000  N
  N9       1.0000 0.71368  0.17907  0.02817  Biso   1.000  N
  N10      1.0000 0.77736  0.19897  0.97525  Biso   1.000  N
  N11      1.0000 0.78091  0.25929  0.98765  Biso   1.000  N
  N12      1.0000 0.72115  0.28083  0.04913  Biso   1.000  N
  N13      1.0000 0.26901  0.23350  0.46594  Biso   1.000  N
  N14      1.0000 0.20221  0.25531  0.52591  Biso   1.000  N
  N15      1.0000 0.18567  0.32277  0.53555  Biso   1.000  N
  N16      1.0000 0.24616  0.34580  0.48268  Biso   1.000  N
  N17      1.0000 0.75768  0.47197  0.06187  Biso   1.000  N
  N18      1.0000 0.68760  0.01990  0.98090  Biso   1.000  N
  N19      1.0000 0.11590  0.97700  0.89220  Biso   1.000  N
  N20      1.0000 0.56300  0.30040  0.88900  Biso   1.000  N
  N21      1.0000 0.20351  0.14359  0.65795  Biso   1.000  N
  N22      1.0000 0.15045  0.16706  0.72130  Biso   1.000  N
  N23      1.0000 0.19772  0.12894  0.76286  Biso   1.000  N
  N24      1.0000 0.28215  0.08010  0.72840  Biso   1.000  N
  N25      1.0000 0.79569  0.36113  0.84139  Biso   1.000  N
  N26      1.0000 0.85042  0.33702  0.77924  Biso   1.000  N
  N27      1.0000 0.80353  0.37267  0.73719  Biso   1.000  N
  N28      1.0000 0.71692  0.42095  0.77059  Biso   1.000  N
  N29      1.0000 0.92092  0.32093  0.47183  Biso   1.000  N
  N30      1.0000 0.95158  0.30103  0.52475  Biso   1.000  N
  N31      1.0000 0.02785  0.24071  0.51235  Biso   1.000  N
  N32      1.0000 0.05111  0.21917  0.45087  Biso   1.000  N
  N33      1.0000 0.96845  0.26650  0.03406  Biso   1.000  N
  N34      1.0000 0.98343  0.24469  0.97409  Biso   1.000  N
  N35      1.0000 0.04399  0.17723  0.96445  Biso   1.000  N
  N36      1.0000 0.07464  0.15420  0.01732  Biso   1.000  N
  N37      1.0000 0.29152  0.02803  0.43813  Biso   1.000  N
  N38      1.0000 0.68840  0.48010  0.51910  Biso   1.000  N
  N39      1.0000 0.98510  0.52300  0.60780  Biso   1.000  N
  N40      1.0000 0.75240  0.19960  0.61100  Biso   1.000  N
  N41      1.0000 0.99495  0.64359  0.15795  Biso   1.000  N
  N42      1.0000 0.96119  0.66706  0.22130  Biso   1.000  N
  N43      1.0000 0.91048  0.62894  0.26286  Biso   1.000  N
  N44      1.0000 0.90935  0.58010  0.22840  Biso   1.000  N
  N45      1.0000 0.00179  0.86113  0.34139  Biso   1.000  N
  N46      1.0000 0.03332  0.83702  0.27924  Biso   1.000  N
  N47      1.0000 0.08661  0.87267  0.23719  Biso   1.000  N
  N48      1.0000 0.09154  0.92095  0.27059  Biso   1.000  N
  N49      1.0000 0.28632  0.82093  0.97183  Biso   1.000  N
  N50      1.0000 0.22264  0.80103  0.02475  Biso   1.000  N
  N51      1.0000 0.21909  0.74071  0.01235  Biso   1.000  N
  N52      1.0000 0.27885  0.71917  0.95087  Biso   1.000  N
  N53      1.0000 0.73099  0.76650  0.53406  Biso   1.000  N
  N54      1.0000 0.79779  0.74469  0.47409  Biso   1.000  N
  N55      1.0000 0.81433  0.67723  0.46445  Biso   1.000  N
  N56      1.0000 0.75384  0.65420  0.51732  Biso   1.000  N
  N57      1.0000 0.24232  0.52803  0.93813  Biso   1.000  N
  N58      1.0000 0.31240  0.98010  0.01910  Biso   1.000  N
  N59      1.0000 0.88410  0.02300  0.10780  Biso   1.000  N
  N60      1.0000 0.43700  0.69960  0.11100  Biso   1.000  N
  N61      1.0000 0.79649  0.85641  0.34205  Biso   1.000  N
  N62      1.0000 0.84955  0.83294  0.27870  Biso   1.000  N
  N63      1.0000 0.80228  0.87106  0.23714  Biso   1.000  N
  N64      1.0000 0.71785  0.91990  0.27160  Biso   1.000  N
  N65      1.0000 0.20431  0.63887  0.15861  Biso   1.000  N
  N66      1.0000 0.14958  0.66298  0.22076  Biso   1.000  N
  N67      1.0000 0.19647  0.62733  0.26281  Biso   1.000  N
  N68      1.0000 0.28308  0.57905  0.22941  Biso   1.000  N
  N69      1.0000 0.07908  0.67907  0.52817  Biso   1.000  N
  N70      1.0000 0.04842  0.69897  0.47525  Biso   1.000  N
  N71      1.0000 0.97215  0.75929  0.48765  Biso   1.000  N
  N72      1.0000 0.94889  0.78083  0.54913  Biso   1.000  N
  N73      1.0000 0.03155  0.73350  0.96594  Biso   1.000  N
  N74      1.0000 0.01657  0.75531  0.02591  Biso   1.000  N
  N75      1.0000 0.95601  0.82277  0.03555  Biso   1.000  N
  N76      1.0000 0.92536  0.84580  0.98268  Biso   1.000  N
  N77      1.0000 0.70848  0.97197  0.56187  Biso   1.000  N
  N78      1.0000 0.31160  0.51990  0.48090  Biso   1.000  N
  N79      1.0000 0.01490  0.47700  0.39220  Biso   1.000  N
  N80      1.0000 0.24760  0.80040  0.38900  Biso   1.000  N
  O1       1.0000 0.94621  0.21550  0.85272  Biso   1.000  O
  O2       1.0000 0.82128  0.40548  0.97014  Biso   1.000  O
  O3       1.0000 0.76533  0.08456  0.90038  Biso   1.000  O
  O4       1.0000 0.96332  0.05911  0.89557  Biso   1.000  O
  O5       1.0000 0.72099  0.23511  0.85239  Biso   1.000  O
  O6       1.0000 0.01443  0.28450  0.64728  Biso   1.000  O
  O7       1.0000 0.19690  0.09452  0.52986  Biso   1.000  O
  O8       1.0000 0.75027  0.41544  0.59962  Biso   1.000  O
  O9       1.0000 0.91800  0.44089  0.60443  Biso   1.000  O
  O10      1.0000 0.80849  0.26489  0.64761  Biso   1.000  O
  O11      1.0000 0.05379  0.78450  0.14728  Biso   1.000  O
  O12      1.0000 0.17872  0.59452  0.02986  Biso   1.000  O
  O13      1.0000 0.23467  0.91544  0.09962  Biso   1.000  O
  O14      1.0000 0.03668  0.94089  0.10443  Biso   1.000  O
  O15      1.0000 0.27901  0.76489  0.14761  Biso   1.000  O
  O16      1.0000 0.98557  0.71550  0.35272  Biso   1.000  O
  O17      1.0000 0.80310  0.90548  0.47014  Biso   1.000  O
  O18      1.0000 0.24973  0.58456  0.40038  Biso   1.000  O
  O19      1.0000 0.08200  0.55911  0.39557  Biso   1.000  O
  O20      1.0000 0.19151  0.73511  0.35239  Biso   1.000  O
