data_image0
_cell_length_a       20.1469
_cell_length_b       20.5147
_cell_length_c       10.0242
_cell_angle_alpha    90
_cell_angle_beta     90
_cell_angle_gamma    90

_symmetry_space_group_name_H-M    "P 1"
_symmetry_int_tables_number       1

loop_
  _symmetry_equiv_pos_as_xyz
  'x, y, z'

loop_
  _atom_site_label
  _atom_site_occupancy
  _atom_site_fract_x
  _atom_site_fract_y
  _atom_site_fract_z
  _atom_site_thermal_displace_type
  _atom_site_B_iso_or_equiv
  _atom_site_type_symbol
  Al1      1.0000 0.19830  0.32890  0.38010  Biso   1.000  Al
  Al2      1.0000 0.93060  0.43440  0.40590  Biso   1.000  Al
  P1       1.0000 0.17620  0.32120  0.06780  Biso   1.000  P
  P2       1.0000 0.08670  0.44220  0.40860  Biso   1.000  P
  O1       1.0000 0.21430  0.33450  0.19270  Biso   1.000  O
  O2       1.0000 0.16380  0.24930  0.05520  Biso   1.000  O
  O3       1.0000 0.01900  0.41660  0.44230  Biso   1.000  O
  O4       1.0000 0.10890  0.35560  0.06600  Biso   1.000  O
  O5       1.0000 0.13850  0.39170  0.43650  Biso   1.000  O
  O6       1.0000 0.10390  0.50080  0.49050  Biso   1.000  O
  O7       1.0000 0.09060  0.46310  0.26280  Biso   1.000  O
  O8       1.0000 0.21860  0.34330  0.94920  Biso   1.000  O
  Al3      1.0000 0.69830  0.82890  0.38010  Biso   1.000  Al
  Al4      1.0000 0.43060  0.93440  0.40590  Biso   1.000  Al
  P3       1.0000 0.67620  0.82120  0.06780  Biso   1.000  P
  P4       1.0000 0.58670  0.94220  0.40860  Biso   1.000  P
  O9       1.0000 0.71430  0.83450  0.19270  Biso   1.000  O
  O10      1.0000 0.66380  0.74930  0.05520  Biso   1.000  O
  O11      1.0000 0.51900  0.91660  0.44230  Biso   1.000  O
  O12      1.0000 0.60890  0.85560  0.06600  Biso   1.000  O
  O13      1.0000 0.63850  0.89170  0.43650  Biso   1.000  O
  O14      1.0000 0.60390  0.00080  0.49050  Biso   1.000  O
  O15      1.0000 0.59060  0.96310  0.26280  Biso   1.000  O
  O16      1.0000 0.71860  0.84330  0.94920  Biso   1.000  O
  Al5      1.0000 0.30170  0.67110  0.38010  Biso   1.000  Al
  Al6      1.0000 0.56940  0.56560  0.40590  Biso   1.000  Al
  P5       1.0000 0.32380  0.67880  0.06780  Biso   1.000  P
  P6       1.0000 0.41330  0.55780  0.40860  Biso   1.000  P
  O17      1.0000 0.28570  0.66550  0.19270  Biso   1.000  O
  O18      1.0000 0.33620  0.75070  0.05520  Biso   1.000  O
  O19      1.0000 0.48100  0.58340  0.44230  Biso   1.000  O
  O20      1.0000 0.39110  0.64440  0.06600  Biso   1.000  O
  O21      1.0000 0.36150  0.60830  0.43650  Biso   1.000  O
  O22      1.0000 0.39610  0.49920  0.49050  Biso   1.000  O
  O23      1.0000 0.40940  0.53690  0.26280  Biso   1.000  O
  O24      1.0000 0.28140  0.65670  0.94920  Biso   1.000  O
  Al7      1.0000 0.80170  0.17110  0.38010  Biso   1.000  Al
  Al8      1.0000 0.06940  0.06560  0.40590  Biso   1.000  Al
  P7       1.0000 0.82380  0.17880  0.06780  Biso   1.000  P
  P8       1.0000 0.91330  0.05780  0.40860  Biso   1.000  P
  O25      1.0000 0.78570  0.16550  0.19270  Biso   1.000  O
  O26      1.0000 0.83620  0.25070  0.05520  Biso   1.000  O
  O27      1.0000 0.98100  0.08340  0.44230  Biso   1.000  O
  O28      1.0000 0.89110  0.14440  0.06600  Biso   1.000  O
  O29      1.0000 0.86150  0.10830  0.43650  Biso   1.000  O
  O30      1.0000 0.89610  0.99920  0.49050  Biso   1.000  O
  O31      1.0000 0.90940  0.03690  0.26280  Biso   1.000  O
  O32      1.0000 0.78140  0.15670  0.94920  Biso   1.000  O
  Al9      1.0000 0.80170  0.32890  0.11990  Biso   1.000  Al
  Al10     1.0000 0.06940  0.43440  0.09410  Biso   1.000  Al
  P9       1.0000 0.82380  0.32120  0.43220  Biso   1.000  P
  P10      1.0000 0.91330  0.44220  0.09140  Biso   1.000  P
  O33      1.0000 0.78570  0.33450  0.30730  Biso   1.000  O
  O34      1.0000 0.83620  0.24930  0.44480  Biso   1.000  O
  O35      1.0000 0.98100  0.41660  0.05770  Biso   1.000  O
  O36      1.0000 0.89110  0.35560  0.43400  Biso   1.000  O
  O37      1.0000 0.86150  0.39170  0.06350  Biso   1.000  O
  O38      1.0000 0.89610  0.50080  0.00950  Biso   1.000  O
  O39      1.0000 0.90940  0.46310  0.23720  Biso   1.000  O
  O40      1.0000 0.78140  0.34330  0.55080  Biso   1.000  O
  Al11     1.0000 0.30170  0.82890  0.11990  Biso   1.000  Al
  Al12     1.0000 0.56940  0.93440  0.09410  Biso   1.000  Al
  P11      1.0000 0.32380  0.82120  0.43220  Biso   1.000  P
  P12      1.0000 0.41330  0.94220  0.09140  Biso   1.000  P
  O41      1.0000 0.28570  0.83450  0.30730  Biso   1.000  O
  O42      1.0000 0.33620  0.74930  0.44480  Biso   1.000  O
  O43      1.0000 0.48100  0.91660  0.05770  Biso   1.000  O
  O44      1.0000 0.39110  0.85560  0.43400  Biso   1.000  O
  O45      1.0000 0.36150  0.89170  0.06350  Biso   1.000  O
  O46      1.0000 0.39610  0.00080  0.00950  Biso   1.000  O
  O47      1.0000 0.40940  0.96310  0.23720  Biso   1.000  O
  O48      1.0000 0.28140  0.84330  0.55080  Biso   1.000  O
  Al13     1.0000 0.69830  0.67110  0.11990  Biso   1.000  Al
  Al14     1.0000 0.43060  0.56560  0.09410  Biso   1.000  Al
  P13      1.0000 0.67620  0.67880  0.43220  Biso   1.000  P
  P14      1.0000 0.58670  0.55780  0.09140  Biso   1.000  P
  O49      1.0000 0.71430  0.66550  0.30730  Biso   1.000  O
  O50      1.0000 0.66380  0.75070  0.44480  Biso   1.000  O
  O51      1.0000 0.51900  0.58340  0.05770  Biso   1.000  O
  O52      1.0000 0.60890  0.64440  0.43400  Biso   1.000  O
  O53      1.0000 0.63850  0.60830  0.06350  Biso   1.000  O
  O54      1.0000 0.60390  0.49920  0.00950  Biso   1.000  O
  O55      1.0000 0.59060  0.53690  0.23720  Biso   1.000  O
  O56      1.0000 0.71860  0.65670  0.55080  Biso   1.000  O
  Al15     1.0000 0.19830  0.17110  0.11990  Biso   1.000  Al
  Al16     1.0000 0.93060  0.06560  0.09410  Biso   1.000  Al
  P15      1.0000 0.17620  0.17880  0.43220  Biso   1.000  P
  P16      1.0000 0.08670  0.05780  0.09140  Biso   1.000  P
  O57      1.0000 0.21430  0.16550  0.30730  Biso   1.000  O
  O58      1.0000 0.16380  0.25070  0.44480  Biso   1.000  O
  O59      1.0000 0.01900  0.08340  0.05770  Biso   1.000  O
  O60      1.0000 0.10890  0.14440  0.43400  Biso   1.000  O
  O61      1.0000 0.13850  0.10830  0.06350  Biso   1.000  O
  O62      1.0000 0.10390  0.99920  0.00950  Biso   1.000  O
  O63      1.0000 0.09060  0.03690  0.23720  Biso   1.000  O
  O64      1.0000 0.21860  0.15670  0.55080  Biso   1.000  O
  Al17     1.0000 0.80170  0.67110  0.61990  Biso   1.000  Al
  Al18     1.0000 0.06940  0.56560  0.59410  Biso   1.000  Al
  P17      1.0000 0.82380  0.67880  0.93220  Biso   1.000  P
  P18      1.0000 0.91330  0.55780  0.59140  Biso   1.000  P
  O65      1.0000 0.78570  0.66550  0.80730  Biso   1.000  O
  O66      1.0000 0.83620  0.75070  0.94480  Biso   1.000  O
  O67      1.0000 0.98100  0.58340  0.55770  Biso   1.000  O
  O68      1.0000 0.89110  0.64440  0.93400  Biso   1.000  O
  O69      1.0000 0.86150  0.60830  0.56350  Biso   1.000  O
  O70      1.0000 0.89610  0.49920  0.50950  Biso   1.000  O
  O71      1.0000 0.90940  0.53690  0.73720  Biso   1.000  O
  O72      1.0000 0.78140  0.65670  0.05080  Biso   1.000  O
  Al19     1.0000 0.30170  0.17110  0.61990  Biso   1.000  Al
  Al20     1.0000 0.56940  0.06560  0.59410  Biso   1.000  Al
  P19      1.0000 0.32380  0.17880  0.93220  Biso   1.000  P
  P20      1.0000 0.41330  0.05780  0.59140  Biso   1.000  P
  O73      1.0000 0.28570  0.16550  0.80730  Biso   1.000  O
  O74      1.0000 0.33620  0.25070  0.94480  Biso   1.000  O
  O75      1.0000 0.48100  0.08340  0.55770  Biso   1.000  O
  O76      1.0000 0.39110  0.14440  0.93400  Biso   1.000  O
  O77      1.0000 0.36150  0.10830  0.56350  Biso   1.000  O
  O78      1.0000 0.39610  0.99920  0.50950  Biso   1.000  O
  O79      1.0000 0.40940  0.03690  0.73720  Biso   1.000  O
  O80      1.0000 0.28140  0.15670  0.05080  Biso   1.000  O
  Al21     1.0000 0.69830  0.32890  0.61990  Biso   1.000  Al
  Al22     1.0000 0.43060  0.43440  0.59410  Biso   1.000  Al
  P21      1.0000 0.67620  0.32120  0.93220  Biso   1.000  P
  P22      1.0000 0.58670  0.44220  0.59140  Biso   1.000  P
  O81      1.0000 0.71430  0.33450  0.80730  Biso   1.000  O
  O82      1.0000 0.66380  0.24930  0.94480  Biso   1.000  O
  O83      1.0000 0.51900  0.41660  0.55770  Biso   1.000  O
  O84      1.0000 0.60890  0.35560  0.93400  Biso   1.000  O
  O85      1.0000 0.63850  0.39170  0.56350  Biso   1.000  O
  O86      1.0000 0.60390  0.50080  0.50950  Biso   1.000  O
  O87      1.0000 0.59060  0.46310  0.73720  Biso   1.000  O
  O88      1.0000 0.71860  0.34330  0.05080  Biso   1.000  O
  Al23     1.0000 0.19830  0.82890  0.61990  Biso   1.000  Al
  Al24     1.0000 0.93060  0.93440  0.59410  Biso   1.000  Al
  P23      1.0000 0.17620  0.82120  0.93220  Biso   1.000  P
  P24      1.0000 0.08670  0.94220  0.59140  Biso   1.000  P
  O89      1.0000 0.21430  0.83450  0.80730  Biso   1.000  O
  O90      1.0000 0.16380  0.74930  0.94480  Biso   1.000  O
  O91      1.0000 0.01900  0.91660  0.55770  Biso   1.000  O
  O92      1.0000 0.10890  0.85560  0.93400  Biso   1.000  O
  O93      1.0000 0.13850  0.89170  0.56350  Biso   1.000  O
  O94      1.0000 0.10390  0.00080  0.50950  Biso   1.000  O
  O95      1.0000 0.09060  0.96310  0.73720  Biso   1.000  O
  O96      1.0000 0.21860  0.84330  0.05080  Biso   1.000  O
  Al25     1.0000 0.19830  0.67110  0.88010  Biso   1.000  Al
  Al26     1.0000 0.93060  0.56560  0.90590  Biso   1.000  Al
  P25      1.0000 0.17620  0.67880  0.56780  Biso   1.000  P
  P26      1.0000 0.08670  0.55780  0.90860  Biso   1.000  P
  O97      1.0000 0.21430  0.66550  0.69270  Biso   1.000  O
  O98      1.0000 0.16380  0.75070  0.55520  Biso   1.000  O
  O99      1.0000 0.01900  0.58340  0.94230  Biso   1.000  O
  O100     1.0000 0.10890  0.64440  0.56600  Biso   1.000  O
  O101     1.0000 0.13850  0.60830  0.93650  Biso   1.000  O
  O102     1.0000 0.10390  0.49920  0.99050  Biso   1.000  O
  O103     1.0000 0.09060  0.53690  0.76280  Biso   1.000  O
  O104     1.0000 0.21860  0.65670  0.44920  Biso   1.000  O
  Al27     1.0000 0.69830  0.17110  0.88010  Biso   1.000  Al
  Al28     1.0000 0.43060  0.06560  0.90590  Biso   1.000  Al
  P27      1.0000 0.67620  0.17880  0.56780  Biso   1.000  P
  P28      1.0000 0.58670  0.05780  0.90860  Biso   1.000  P
  O105     1.0000 0.71430  0.16550  0.69270  Biso   1.000  O
  O106     1.0000 0.66380  0.25070  0.55520  Biso   1.000  O
  O107     1.0000 0.51900  0.08340  0.94230  Biso   1.000  O
  O108     1.0000 0.60890  0.14440  0.56600  Biso   1.000  O
  O109     1.0000 0.63850  0.10830  0.93650  Biso   1.000  O
  O110     1.0000 0.60390  0.99920  0.99050  Biso   1.000  O
  O111     1.0000 0.59060  0.03690  0.76280  Biso   1.000  O
  O112     1.0000 0.71860  0.15670  0.44920  Biso   1.000  O
  Al29     1.0000 0.30170  0.32890  0.88010  Biso   1.000  Al
  Al30     1.0000 0.56940  0.43440  0.90590  Biso   1.000  Al
  P29      1.0000 0.32380  0.32120  0.56780  Biso   1.000  P
  P30      1.0000 0.41330  0.44220  0.90860  Biso   1.000  P
  O113     1.0000 0.28570  0.33450  0.69270  Biso   1.000  O
  O114     1.0000 0.33620  0.24930  0.55520  Biso   1.000  O
  O115     1.0000 0.48100  0.41660  0.94230  Biso   1.000  O
  O116     1.0000 0.39110  0.35560  0.56600  Biso   1.000  O
  O117     1.0000 0.36150  0.39170  0.93650  Biso   1.000  O
  O118     1.0000 0.39610  0.50080  0.99050  Biso   1.000  O
  O119     1.0000 0.40940  0.46310  0.76280  Biso   1.000  O
  O120     1.0000 0.28140  0.34330  0.44920  Biso   1.000  O
  Al31     1.0000 0.80170  0.82890  0.88010  Biso   1.000  Al
  Al32     1.0000 0.06940  0.93440  0.90590  Biso   1.000  Al
  P31      1.0000 0.82380  0.82120  0.56780  Biso   1.000  P
  P32      1.0000 0.91330  0.94220  0.90860  Biso   1.000  P
  O121     1.0000 0.78570  0.83450  0.69270  Biso   1.000  O
  O122     1.0000 0.83620  0.74930  0.55520  Biso   1.000  O
  O123     1.0000 0.98100  0.91660  0.94230  Biso   1.000  O
  O124     1.0000 0.89110  0.85560  0.56600  Biso   1.000  O
  O125     1.0000 0.86150  0.89170  0.93650  Biso   1.000  O
  O126     1.0000 0.89610  0.00080  0.99050  Biso   1.000  O
  O127     1.0000 0.90940  0.96310  0.76280  Biso   1.000  O
  O128     1.0000 0.78140  0.84330  0.44920  Biso   1.000  O
