data_image0
_cell_length_a       10.2203
_cell_length_b       14.145
_cell_length_c       14.601
_cell_angle_alpha    90
_cell_angle_beta     90
_cell_angle_gamma    90

_symmetry_space_group_name_H-M    "P 1"
_symmetry_int_tables_number       1

loop_
  _symmetry_equiv_pos_as_xyz
  'x, y, z'

loop_
  _atom_site_label
  _atom_site_occupancy
  _atom_site_fract_x
  _atom_site_fract_y
  _atom_site_fract_z
  _atom_site_thermal_displace_type
  _atom_site_B_iso_or_equiv
  _atom_site_type_symbol
  O1       1.0000 0.98670  0.10140  0.40540  Biso   1.000  O
  O2       1.0000 0.92120  0.97810  0.29690  Biso   1.000  O
  O3       1.0000 0.98670  0.60140  0.90540  Biso   1.000  O
  O4       1.0000 0.92120  0.47810  0.79690  Biso   1.000  O
  O5       1.0000 0.48670  0.10140  0.90540  Biso   1.000  O
  O6       1.0000 0.42120  0.97810  0.79690  Biso   1.000  O
  O7       1.0000 0.48670  0.60140  0.40540  Biso   1.000  O
  O8       1.0000 0.42120  0.47810  0.29690  Biso   1.000  O
  O9       1.0000 0.76330  0.64860  0.40540  Biso   1.000  O
  O10      1.0000 0.82880  0.77190  0.29690  Biso   1.000  O
  O11      1.0000 0.76330  0.14860  0.90540  Biso   1.000  O
  O12      1.0000 0.82880  0.27190  0.79690  Biso   1.000  O
  O13      1.0000 0.26330  0.64860  0.90540  Biso   1.000  O
  O14      1.0000 0.32880  0.77190  0.79690  Biso   1.000  O
  O15      1.0000 0.26330  0.14860  0.40540  Biso   1.000  O
  O16      1.0000 0.32880  0.27190  0.29690  Biso   1.000  O
  O17      1.0000 0.76330  0.10140  0.34460  Biso   1.000  O
  O18      1.0000 0.82880  0.97810  0.45310  Biso   1.000  O
  O19      1.0000 0.76330  0.60140  0.84460  Biso   1.000  O
  O20      1.0000 0.82880  0.47810  0.95310  Biso   1.000  O
  O21      1.0000 0.26330  0.10140  0.84460  Biso   1.000  O
  O22      1.0000 0.32880  0.97810  0.95310  Biso   1.000  O
  O23      1.0000 0.26330  0.60140  0.34460  Biso   1.000  O
  O24      1.0000 0.32880  0.47810  0.45310  Biso   1.000  O
  O25      1.0000 0.98670  0.64860  0.34460  Biso   1.000  O
  O26      1.0000 0.92120  0.77190  0.45310  Biso   1.000  O
  O27      1.0000 0.98670  0.14860  0.84460  Biso   1.000  O
  O28      1.0000 0.92120  0.27190  0.95310  Biso   1.000  O
  O29      1.0000 0.48670  0.64860  0.84460  Biso   1.000  O
  O30      1.0000 0.42120  0.77190  0.95310  Biso   1.000  O
  O31      1.0000 0.48670  0.14860  0.34460  Biso   1.000  O
  O32      1.0000 0.42120  0.27190  0.45310  Biso   1.000  O
  O33      1.0000 0.01330  0.89860  0.59460  Biso   1.000  O
  O34      1.0000 0.07880  0.02190  0.70310  Biso   1.000  O
  O35      1.0000 0.01330  0.39860  0.09460  Biso   1.000  O
  O36      1.0000 0.07880  0.52190  0.20310  Biso   1.000  O
  O37      1.0000 0.51330  0.89860  0.09460  Biso   1.000  O
  O38      1.0000 0.57880  0.02190  0.20310  Biso   1.000  O
  O39      1.0000 0.51330  0.39860  0.59460  Biso   1.000  O
  O40      1.0000 0.57880  0.52190  0.70310  Biso   1.000  O
  O41      1.0000 0.23670  0.35140  0.59460  Biso   1.000  O
  O42      1.0000 0.17120  0.22810  0.70310  Biso   1.000  O
  O43      1.0000 0.23670  0.85140  0.09460  Biso   1.000  O
  O44      1.0000 0.17120  0.72810  0.20310  Biso   1.000  O
  O45      1.0000 0.73670  0.35140  0.09460  Biso   1.000  O
  O46      1.0000 0.67120  0.22810  0.20310  Biso   1.000  O
  O47      1.0000 0.73670  0.85140  0.59460  Biso   1.000  O
  O48      1.0000 0.67120  0.72810  0.70310  Biso   1.000  O
  O49      1.0000 0.23670  0.89860  0.65540  Biso   1.000  O
  O50      1.0000 0.17120  0.02190  0.54690  Biso   1.000  O
  O51      1.0000 0.23670  0.39860  0.15540  Biso   1.000  O
  O52      1.0000 0.17120  0.52190  0.04690  Biso   1.000  O
  O53      1.0000 0.73670  0.89860  0.15540  Biso   1.000  O
  O54      1.0000 0.67120  0.02190  0.04690  Biso   1.000  O
  O55      1.0000 0.73670  0.39860  0.65540  Biso   1.000  O
  O56      1.0000 0.67120  0.52190  0.54690  Biso   1.000  O
  O57      1.0000 0.01330  0.35140  0.65540  Biso   1.000  O
  O58      1.0000 0.07880  0.22810  0.54690  Biso   1.000  O
  O59      1.0000 0.01330  0.85140  0.15540  Biso   1.000  O
  O60      1.0000 0.07880  0.72810  0.04690  Biso   1.000  O
  O61      1.0000 0.51330  0.35140  0.15540  Biso   1.000  O
  O62      1.0000 0.57880  0.22810  0.04690  Biso   1.000  O
  O63      1.0000 0.51330  0.85140  0.65540  Biso   1.000  O
  O64      1.0000 0.57880  0.72810  0.54690  Biso   1.000  O
  Al1      1.0000 0.12500  0.12500  0.47950  Biso   1.000  Al
  Al2      1.0000 0.12500  0.62500  0.97950  Biso   1.000  Al
  Al3      1.0000 0.62500  0.62500  0.47950  Biso   1.000  Al
  Al4      1.0000 0.62500  0.12500  0.97950  Biso   1.000  Al
  Al5      1.0000 0.62500  0.12500  0.27050  Biso   1.000  Al
  Al6      1.0000 0.62500  0.62500  0.77050  Biso   1.000  Al
  Al7      1.0000 0.12500  0.62500  0.27050  Biso   1.000  Al
  Al8      1.0000 0.12500  0.12500  0.77050  Biso   1.000  Al
  Al9      1.0000 0.87500  0.87500  0.52050  Biso   1.000  Al
  Al10     1.0000 0.87500  0.37500  0.02050  Biso   1.000  Al
  Al11     1.0000 0.37500  0.37500  0.52050  Biso   1.000  Al
  Al12     1.0000 0.37500  0.87500  0.02050  Biso   1.000  Al
  Al13     1.0000 0.37500  0.87500  0.72950  Biso   1.000  Al
  Al14     1.0000 0.37500  0.37500  0.22950  Biso   1.000  Al
  Al15     1.0000 0.87500  0.37500  0.72950  Biso   1.000  Al
  Al16     1.0000 0.87500  0.87500  0.22950  Biso   1.000  Al
  P1       1.0000 0.87500  0.03900  0.37500  Biso   1.000  P
  P2       1.0000 0.87500  0.53900  0.87500  Biso   1.000  P
  P3       1.0000 0.37500  0.03900  0.87500  Biso   1.000  P
  P4       1.0000 0.37500  0.53900  0.37500  Biso   1.000  P
  P5       1.0000 0.87500  0.71100  0.37500  Biso   1.000  P
  P6       1.0000 0.87500  0.21100  0.87500  Biso   1.000  P
  P7       1.0000 0.37500  0.71100  0.87500  Biso   1.000  P
  P8       1.0000 0.37500  0.21100  0.37500  Biso   1.000  P
  P9       1.0000 0.12500  0.96100  0.62500  Biso   1.000  P
  P10      1.0000 0.12500  0.46100  0.12500  Biso   1.000  P
  P11      1.0000 0.62500  0.96100  0.12500  Biso   1.000  P
  P12      1.0000 0.62500  0.46100  0.62500  Biso   1.000  P
  P13      1.0000 0.12500  0.28900  0.62500  Biso   1.000  P
  P14      1.0000 0.12500  0.78900  0.12500  Biso   1.000  P
  P15      1.0000 0.62500  0.28900  0.12500  Biso   1.000  P
  P16      1.0000 0.62500  0.78900  0.62500  Biso   1.000  P
