data_image0
_cell_length_a       10.2233
_cell_length_b       14.6052
_cell_length_c       14.3041
_cell_angle_alpha    90
_cell_angle_beta     90.162
_cell_angle_gamma    90

_symmetry_space_group_name_H-M    "P 1"
_symmetry_int_tables_number       1

loop_
  _symmetry_equiv_pos_as_xyz
  'x, y, z'

loop_
  _atom_site_label
  _atom_site_occupancy
  _atom_site_fract_x
  _atom_site_fract_y
  _atom_site_fract_z
  _atom_site_thermal_displace_type
  _atom_site_B_iso_or_equiv
  _atom_site_type_symbol
  Al1      1.0000 0.35820  0.38610  0.01630  Biso   1.000  Al
  Al2      1.0000 0.63380  0.23070  0.87110  Biso   1.000  Al
  P1       1.0000 0.33260  0.23520  0.85740  Biso   1.000  P
  P2       1.0000 0.66950  0.39770  0.01300  Biso   1.000  P
  O1       1.0000 0.53340  0.39120  0.05210  Biso   1.000  O
  O2       1.0000 0.67800  0.34520  0.92190  Biso   1.000  O
  O3       1.0000 0.46210  0.19140  0.88640  Biso   1.000  O
  O4       1.0000 0.32590  0.25180  0.75380  Biso   1.000  O
  O5       1.0000 0.31690  0.32860  0.90390  Biso   1.000  O
  O6       1.0000 0.70860  0.49630  0.99210  Biso   1.000  O
  O7       1.0000 0.22150  0.17270  0.88300  Biso   1.000  O
  O8       1.0000 0.76530  0.36170  0.08380  Biso   1.000  O
  Al3      1.0000 0.85820  0.88610  0.01630  Biso   1.000  Al
  Al4      1.0000 0.13380  0.73070  0.87110  Biso   1.000  Al
  P3       1.0000 0.83260  0.73520  0.85740  Biso   1.000  P
  P4       1.0000 0.16950  0.89770  0.01300  Biso   1.000  P
  O9       1.0000 0.03340  0.89120  0.05210  Biso   1.000  O
  O10      1.0000 0.17800  0.84520  0.92190  Biso   1.000  O
  O11      1.0000 0.96210  0.69140  0.88640  Biso   1.000  O
  O12      1.0000 0.82590  0.75180  0.75380  Biso   1.000  O
  O13      1.0000 0.81690  0.82860  0.90390  Biso   1.000  O
  O14      1.0000 0.20860  0.99630  0.99210  Biso   1.000  O
  O15      1.0000 0.72150  0.67270  0.88300  Biso   1.000  O
  O16      1.0000 0.26530  0.86170  0.08380  Biso   1.000  O
  Al5      1.0000 0.64180  0.38610  0.48370  Biso   1.000  Al
  Al6      1.0000 0.36620  0.23070  0.62890  Biso   1.000  Al
  P5       1.0000 0.66740  0.23520  0.64260  Biso   1.000  P
  P6       1.0000 0.33050  0.39770  0.48700  Biso   1.000  P
  O17      1.0000 0.46660  0.39120  0.44790  Biso   1.000  O
  O18      1.0000 0.32200  0.34520  0.57810  Biso   1.000  O
  O19      1.0000 0.53790  0.19140  0.61360  Biso   1.000  O
  O20      1.0000 0.67410  0.25180  0.74620  Biso   1.000  O
  O21      1.0000 0.68310  0.32860  0.59610  Biso   1.000  O
  O22      1.0000 0.29140  0.49630  0.50790  Biso   1.000  O
  O23      1.0000 0.77850  0.17270  0.61700  Biso   1.000  O
  O24      1.0000 0.23470  0.36170  0.41620  Biso   1.000  O
  Al7      1.0000 0.14180  0.88610  0.48370  Biso   1.000  Al
  Al8      1.0000 0.86620  0.73070  0.62890  Biso   1.000  Al
  P7       1.0000 0.16740  0.73520  0.64260  Biso   1.000  P
  P8       1.0000 0.83050  0.89770  0.48700  Biso   1.000  P
  O25      1.0000 0.96660  0.89120  0.44790  Biso   1.000  O
  O26      1.0000 0.82200  0.84520  0.57810  Biso   1.000  O
  O27      1.0000 0.03790  0.69140  0.61360  Biso   1.000  O
  O28      1.0000 0.17410  0.75180  0.74620  Biso   1.000  O
  O29      1.0000 0.18310  0.82860  0.59610  Biso   1.000  O
  O30      1.0000 0.79140  0.99630  0.50790  Biso   1.000  O
  O31      1.0000 0.27850  0.67270  0.61700  Biso   1.000  O
  O32      1.0000 0.73470  0.86170  0.41620  Biso   1.000  O
  Al9      1.0000 0.64180  0.61390  0.98370  Biso   1.000  Al
  Al10     1.0000 0.36620  0.76930  0.12890  Biso   1.000  Al
  P9       1.0000 0.66740  0.76480  0.14260  Biso   1.000  P
  P10      1.0000 0.33050  0.60230  0.98700  Biso   1.000  P
  O33      1.0000 0.46660  0.60880  0.94790  Biso   1.000  O
  O34      1.0000 0.32200  0.65480  0.07810  Biso   1.000  O
  O35      1.0000 0.53790  0.80860  0.11360  Biso   1.000  O
  O36      1.0000 0.67410  0.74820  0.24620  Biso   1.000  O
  O37      1.0000 0.68310  0.67140  0.09610  Biso   1.000  O
  O38      1.0000 0.29140  0.50370  0.00790  Biso   1.000  O
  O39      1.0000 0.77850  0.82730  0.11700  Biso   1.000  O
  O40      1.0000 0.23470  0.63830  0.91620  Biso   1.000  O
  Al11     1.0000 0.14180  0.11390  0.98370  Biso   1.000  Al
  Al12     1.0000 0.86620  0.26930  0.12890  Biso   1.000  Al
  P11      1.0000 0.16740  0.26480  0.14260  Biso   1.000  P
  P12      1.0000 0.83050  0.10230  0.98700  Biso   1.000  P
  O41      1.0000 0.96660  0.10880  0.94790  Biso   1.000  O
  O42      1.0000 0.82200  0.15480  0.07810  Biso   1.000  O
  O43      1.0000 0.03790  0.30860  0.11360  Biso   1.000  O
  O44      1.0000 0.17410  0.24820  0.24620  Biso   1.000  O
  O45      1.0000 0.18310  0.17140  0.09610  Biso   1.000  O
  O46      1.0000 0.79140  0.00370  0.00790  Biso   1.000  O
  O47      1.0000 0.27850  0.32730  0.11700  Biso   1.000  O
  O48      1.0000 0.73470  0.13830  0.91620  Biso   1.000  O
  Al13     1.0000 0.35820  0.61390  0.51630  Biso   1.000  Al
  Al14     1.0000 0.63380  0.76930  0.37110  Biso   1.000  Al
  P13      1.0000 0.33260  0.76480  0.35740  Biso   1.000  P
  P14      1.0000 0.66950  0.60230  0.51300  Biso   1.000  P
  O49      1.0000 0.53340  0.60880  0.55210  Biso   1.000  O
  O50      1.0000 0.67800  0.65480  0.42190  Biso   1.000  O
  O51      1.0000 0.46210  0.80860  0.38640  Biso   1.000  O
  O52      1.0000 0.32590  0.74820  0.25380  Biso   1.000  O
  O53      1.0000 0.31690  0.67140  0.40390  Biso   1.000  O
  O54      1.0000 0.70860  0.50370  0.49210  Biso   1.000  O
  O55      1.0000 0.22150  0.82730  0.38300  Biso   1.000  O
  O56      1.0000 0.76530  0.63830  0.58380  Biso   1.000  O
  Al15     1.0000 0.85820  0.11390  0.51630  Biso   1.000  Al
  Al16     1.0000 0.13380  0.26930  0.37110  Biso   1.000  Al
  P15      1.0000 0.83260  0.26480  0.35740  Biso   1.000  P
  P16      1.0000 0.16950  0.10230  0.51300  Biso   1.000  P
  O57      1.0000 0.03340  0.10880  0.55210  Biso   1.000  O
  O58      1.0000 0.17800  0.15480  0.42190  Biso   1.000  O
  O59      1.0000 0.96210  0.30860  0.38640  Biso   1.000  O
  O60      1.0000 0.82590  0.24820  0.25380  Biso   1.000  O
  O61      1.0000 0.81690  0.17140  0.40390  Biso   1.000  O
  O62      1.0000 0.20860  0.00370  0.49210  Biso   1.000  O
  O63      1.0000 0.72150  0.32730  0.38300  Biso   1.000  O
  O64      1.0000 0.26530  0.13830  0.58380  Biso   1.000  O
