data_image0
_cell_length_a       10.24
_cell_length_b       10.24
_cell_length_c       9.6523
_cell_angle_alpha    90
_cell_angle_beta     90
_cell_angle_gamma    90

_symmetry_space_group_name_H-M    "P 1"
_symmetry_int_tables_number       1

loop_
  _symmetry_equiv_pos_as_xyz
  'x, y, z'

loop_
  _atom_site_label
  _atom_site_occupancy
  _atom_site_fract_x
  _atom_site_fract_y
  _atom_site_fract_z
  _atom_site_thermal_displace_type
  _atom_site_B_iso_or_equiv
  _atom_site_type_symbol
  O1       1.0000 0.69650  0.48180  0.78190  Biso   1.000  O
  O2       1.0000 0.19650  0.98180  0.28190  Biso   1.000  O
  O3       1.0000 0.30350  0.51820  0.78190  Biso   1.000  O
  O4       1.0000 0.80350  0.01820  0.28190  Biso   1.000  O
  O5       1.0000 0.48180  0.30350  0.21810  Biso   1.000  O
  O6       1.0000 0.98180  0.80350  0.71810  Biso   1.000  O
  O7       1.0000 0.51820  0.69650  0.21810  Biso   1.000  O
  O8       1.0000 0.01820  0.19650  0.71810  Biso   1.000  O
  O9       1.0000 0.30350  0.48180  0.21810  Biso   1.000  O
  O10      1.0000 0.80350  0.98180  0.71810  Biso   1.000  O
  O11      1.0000 0.69650  0.51820  0.21810  Biso   1.000  O
  O12      1.0000 0.19650  0.01820  0.71810  Biso   1.000  O
  O13      1.0000 0.51820  0.30350  0.78190  Biso   1.000  O
  O14      1.0000 0.01820  0.80350  0.28190  Biso   1.000  O
  O15      1.0000 0.48180  0.69650  0.78190  Biso   1.000  O
  O16      1.0000 0.98180  0.19650  0.28190  Biso   1.000  O
  Al1      1.0000 0.63320  0.36680  0.13160  Biso   1.000  Al
  P1       1.0000 0.66470  0.33530  0.80910  Biso   1.000  P
  O17      1.0000 0.69990  0.30010  0.95550  Biso   1.000  O
  O18      1.0000 0.74130  0.25870  0.70460  Biso   1.000  O
  Al2      1.0000 0.13320  0.86680  0.63160  Biso   1.000  Al
  P2       1.0000 0.16470  0.83530  0.30910  Biso   1.000  P
  O19      1.0000 0.19990  0.80010  0.45550  Biso   1.000  O
  O20      1.0000 0.24130  0.75870  0.20460  Biso   1.000  O
  Al3      1.0000 0.36680  0.63320  0.13160  Biso   1.000  Al
  P3       1.0000 0.33530  0.66470  0.80910  Biso   1.000  P
  O21      1.0000 0.30010  0.69990  0.95550  Biso   1.000  O
  O22      1.0000 0.25870  0.74130  0.70460  Biso   1.000  O
  Al4      1.0000 0.86680  0.13320  0.63160  Biso   1.000  Al
  P4       1.0000 0.83530  0.16470  0.30910  Biso   1.000  P
  O23      1.0000 0.80010  0.19990  0.45550  Biso   1.000  O
  O24      1.0000 0.75870  0.24130  0.20460  Biso   1.000  O
  Al5      1.0000 0.36680  0.36680  0.86840  Biso   1.000  Al
  P5       1.0000 0.33530  0.33530  0.19090  Biso   1.000  P
  O25      1.0000 0.30010  0.30010  0.04450  Biso   1.000  O
  O26      1.0000 0.25870  0.25870  0.29540  Biso   1.000  O
  Al6      1.0000 0.86680  0.86680  0.36840  Biso   1.000  Al
  P6       1.0000 0.83530  0.83530  0.69090  Biso   1.000  P
  O27      1.0000 0.80010  0.80010  0.54450  Biso   1.000  O
  O28      1.0000 0.75870  0.75870  0.79540  Biso   1.000  O
  Al7      1.0000 0.63320  0.63320  0.86840  Biso   1.000  Al
  P7       1.0000 0.66470  0.66470  0.19090  Biso   1.000  P
  O29      1.0000 0.69990  0.69990  0.04450  Biso   1.000  O
  O30      1.0000 0.74130  0.74130  0.29540  Biso   1.000  O
  Al8      1.0000 0.13320  0.13320  0.36840  Biso   1.000  Al
  P8       1.0000 0.16470  0.16470  0.69090  Biso   1.000  P
  O31      1.0000 0.19990  0.19990  0.54450  Biso   1.000  O
  O32      1.0000 0.24130  0.24130  0.79540  Biso   1.000  O
