data_image0
_cell_length_a       8.9091
_cell_length_b       14.9748
_cell_length_c       14.7891
_cell_angle_alpha    90
_cell_angle_beta     90
_cell_angle_gamma    90

_symmetry_space_group_name_H-M    "P 1"
_symmetry_int_tables_number       1

loop_
  _symmetry_equiv_pos_as_xyz
  'x, y, z'

loop_
  _atom_site_label
  _atom_site_occupancy
  _atom_site_fract_x
  _atom_site_fract_y
  _atom_site_fract_z
  _atom_site_thermal_displace_type
  _atom_site_B_iso_or_equiv
  _atom_site_type_symbol
  Co1      1.0000 0.15560  0.84470  0.38210  Biso   1.000  Co
  P1       1.0000 0.82680  0.13400  0.10210  Biso   1.000  P
  O1       1.0000 0.75650  0.22640  0.12070  Biso   1.000  O
  O2       1.0000 0.04550  0.35090  0.16310  Biso   1.000  O
  O3       1.0000 0.73030  0.06380  0.13530  Biso   1.000  O
  O4       1.0000 0.85140  0.11520  0.00470  Biso   1.000  O
  O5       1.0000 0.97670  0.13920  0.12880  Biso   1.000  O
  O6       1.0000 0.31750  0.90510  0.31460  Biso   1.000  O
  O7       1.0000 0.19300  0.02960  0.20200  Biso   1.000  O
  Co2      1.0000 0.84440  0.15530  0.88210  Biso   1.000  Co
  P2       1.0000 0.17320  0.86600  0.60210  Biso   1.000  P
  O8       1.0000 0.24350  0.77360  0.62070  Biso   1.000  O
  O9       1.0000 0.95450  0.64910  0.66310  Biso   1.000  O
  O10      1.0000 0.26970  0.93620  0.63530  Biso   1.000  O
  O11      1.0000 0.14860  0.88480  0.50470  Biso   1.000  O
  O12      1.0000 0.02330  0.86080  0.62880  Biso   1.000  O
  O13      1.0000 0.68250  0.09490  0.81460  Biso   1.000  O
  O14      1.0000 0.80700  0.97040  0.70200  Biso   1.000  O
  Co3      1.0000 0.84440  0.34470  0.11790  Biso   1.000  Co
  P3       1.0000 0.17320  0.63400  0.39790  Biso   1.000  P
  O15      1.0000 0.24350  0.72640  0.37930  Biso   1.000  O
  O16      1.0000 0.95450  0.85090  0.33690  Biso   1.000  O
  O17      1.0000 0.26970  0.56380  0.36470  Biso   1.000  O
  O18      1.0000 0.14860  0.61520  0.49530  Biso   1.000  O
  O19      1.0000 0.02330  0.63920  0.37120  Biso   1.000  O
  O20      1.0000 0.68250  0.40510  0.18540  Biso   1.000  O
  O21      1.0000 0.80700  0.52960  0.29800  Biso   1.000  O
  Co4      1.0000 0.15560  0.65530  0.61790  Biso   1.000  Co
  P4       1.0000 0.82680  0.36600  0.89790  Biso   1.000  P
  O22      1.0000 0.75650  0.27360  0.87930  Biso   1.000  O
  O23      1.0000 0.04550  0.14910  0.83690  Biso   1.000  O
  O24      1.0000 0.73030  0.43620  0.86470  Biso   1.000  O
  O25      1.0000 0.85140  0.38480  0.99530  Biso   1.000  O
  O26      1.0000 0.97670  0.36080  0.87120  Biso   1.000  O
  O27      1.0000 0.31750  0.59490  0.68540  Biso   1.000  O
  O28      1.0000 0.19300  0.47040  0.79800  Biso   1.000  O
  Co5      1.0000 0.84440  0.15530  0.61790  Biso   1.000  Co
  P5       1.0000 0.17320  0.86600  0.89790  Biso   1.000  P
  O29      1.0000 0.24350  0.77360  0.87930  Biso   1.000  O
  O30      1.0000 0.95450  0.64910  0.83690  Biso   1.000  O
  O31      1.0000 0.26970  0.93620  0.86470  Biso   1.000  O
  O32      1.0000 0.14860  0.88480  0.99530  Biso   1.000  O
  O33      1.0000 0.02330  0.86080  0.87120  Biso   1.000  O
  O34      1.0000 0.68250  0.09490  0.68540  Biso   1.000  O
  O35      1.0000 0.80700  0.97040  0.79800  Biso   1.000  O
  Co6      1.0000 0.15560  0.84470  0.11790  Biso   1.000  Co
  P6       1.0000 0.82680  0.13400  0.39790  Biso   1.000  P
  O36      1.0000 0.75650  0.22640  0.37930  Biso   1.000  O
  O37      1.0000 0.04550  0.35090  0.33690  Biso   1.000  O
  O38      1.0000 0.73030  0.06380  0.36470  Biso   1.000  O
  O39      1.0000 0.85140  0.11520  0.49530  Biso   1.000  O
  O40      1.0000 0.97670  0.13920  0.37120  Biso   1.000  O
  O41      1.0000 0.31750  0.90510  0.18540  Biso   1.000  O
  O42      1.0000 0.19300  0.02960  0.29800  Biso   1.000  O
  Co7      1.0000 0.15560  0.65530  0.88210  Biso   1.000  Co
  P7       1.0000 0.82680  0.36600  0.60210  Biso   1.000  P
  O43      1.0000 0.75650  0.27360  0.62070  Biso   1.000  O
  O44      1.0000 0.04550  0.14910  0.66310  Biso   1.000  O
  O45      1.0000 0.73030  0.43620  0.63530  Biso   1.000  O
  O46      1.0000 0.85140  0.38480  0.50470  Biso   1.000  O
  O47      1.0000 0.97670  0.36080  0.62880  Biso   1.000  O
  O48      1.0000 0.31750  0.59490  0.81460  Biso   1.000  O
  O49      1.0000 0.19300  0.47040  0.70200  Biso   1.000  O
  Co8      1.0000 0.84440  0.34470  0.38210  Biso   1.000  Co
  P8       1.0000 0.17320  0.63400  0.10210  Biso   1.000  P
  O50      1.0000 0.24350  0.72640  0.12070  Biso   1.000  O
  O51      1.0000 0.95450  0.85090  0.16310  Biso   1.000  O
  O52      1.0000 0.26970  0.56380  0.13530  Biso   1.000  O
  O53      1.0000 0.14860  0.61520  0.00470  Biso   1.000  O
  O54      1.0000 0.02330  0.63920  0.12880  Biso   1.000  O
  O55      1.0000 0.68250  0.40510  0.31460  Biso   1.000  O
  O56      1.0000 0.80700  0.52960  0.20200  Biso   1.000  O
  Co9      1.0000 0.66950  0.00670  0.25000  Biso   1.000  Co
  Ga1      1.0000 0.07750  0.13020  0.25000  Biso   1.000  Ga
  P9       1.0000 0.31130  0.97590  0.25000  Biso   1.000  P
  P10      1.0000 0.13630  0.33060  0.25000  Biso   1.000  P
  O57      1.0000 0.18520  0.23260  0.25000  Biso   1.000  O
  O58      1.0000 0.28510  0.37980  0.25000  Biso   1.000  O
  O59      1.0000 0.45430  0.03000  0.25000  Biso   1.000  O
  Co10     1.0000 0.33050  0.99330  0.75000  Biso   1.000  Co
  Ga2      1.0000 0.92250  0.86980  0.75000  Biso   1.000  Ga
  P11      1.0000 0.68870  0.02410  0.75000  Biso   1.000  P
  P12      1.0000 0.86370  0.66940  0.75000  Biso   1.000  P
  O60      1.0000 0.81480  0.76740  0.75000  Biso   1.000  O
  O61      1.0000 0.71490  0.62020  0.75000  Biso   1.000  O
  O62      1.0000 0.54570  0.97000  0.75000  Biso   1.000  O
  Co11     1.0000 0.33050  0.50670  0.25000  Biso   1.000  Co
  Ga3      1.0000 0.92250  0.63020  0.25000  Biso   1.000  Ga
  P13      1.0000 0.68870  0.47590  0.25000  Biso   1.000  P
  P14      1.0000 0.86370  0.83060  0.25000  Biso   1.000  P
  O63      1.0000 0.81480  0.73260  0.25000  Biso   1.000  O
  O64      1.0000 0.71490  0.87980  0.25000  Biso   1.000  O
  O65      1.0000 0.54570  0.53000  0.25000  Biso   1.000  O
  Co12     1.0000 0.66950  0.49330  0.75000  Biso   1.000  Co
  Ga4      1.0000 0.07750  0.36980  0.75000  Biso   1.000  Ga
  P15      1.0000 0.31130  0.52410  0.75000  Biso   1.000  P
  P16      1.0000 0.13630  0.16940  0.75000  Biso   1.000  P
  O66      1.0000 0.18520  0.26740  0.75000  Biso   1.000  O
  O67      1.0000 0.28510  0.12020  0.75000  Biso   1.000  O
  O68      1.0000 0.45430  0.47000  0.75000  Biso   1.000  O
