data_image0
_cell_length_a       11.0845
_cell_length_b       11.0845
_cell_length_c       11.0845
_cell_angle_alpha    90
_cell_angle_beta     90
_cell_angle_gamma    90

_symmetry_space_group_name_H-M    P 1
_symmetry_int_tables_number       1

loop_
  _symmetry_equiv_pos_as_xyz
  'x, y, z'

loop_
  _atom_site_label
  _atom_site_occupancy
  _atom_site_fract_x
  _atom_site_fract_y
  _atom_site_fract_z
  _atom_site_thermal_displace_type
  _atom_site_B_iso_or_equiv
  _atom_site_type_symbol
  Na1      1.0000 0.15210  0.34790  0.65210  Biso   1.000  Na
  Na2      1.0000 0.34790  0.65210  0.15210  Biso   1.000  Na
  Na3      1.0000 0.84790  0.84790  0.84790  Biso   1.000  Na
  Na4      1.0000 0.65210  0.15210  0.34790  Biso   1.000  Na
  H1       1.0000 0.42880  0.34380  0.02430  Biso   1.000  H
  H2       1.0000 0.35090  0.25140  0.95090  Biso   1.000  H
  H3       1.0000 0.44470  0.33350  0.88420  Biso   1.000  H
  H4       1.0000 0.07120  0.65620  0.52430  Biso   1.000  H
  H5       1.0000 0.14910  0.74860  0.45090  Biso   1.000  H
  H6       1.0000 0.05530  0.66650  0.38420  Biso   1.000  H
  H7       1.0000 0.57120  0.84380  0.47570  Biso   1.000  H
  H8       1.0000 0.64910  0.75140  0.54910  Biso   1.000  H
  H9       1.0000 0.55530  0.83350  0.61580  Biso   1.000  H
  H10      1.0000 0.92880  0.15620  0.97570  Biso   1.000  H
  H11      1.0000 0.85090  0.24860  0.04910  Biso   1.000  H
  H12      1.0000 0.94470  0.16650  0.11580  Biso   1.000  H
  H13      1.0000 0.02430  0.42880  0.34380  Biso   1.000  H
  H14      1.0000 0.95090  0.35090  0.25140  Biso   1.000  H
  H15      1.0000 0.88420  0.44470  0.33350  Biso   1.000  H
  H16      1.0000 0.52430  0.07120  0.65620  Biso   1.000  H
  H17      1.0000 0.45090  0.14910  0.74860  Biso   1.000  H
  H18      1.0000 0.38420  0.05530  0.66650  Biso   1.000  H
  H19      1.0000 0.47570  0.57120  0.84380  Biso   1.000  H
  H20      1.0000 0.54910  0.64910  0.75140  Biso   1.000  H
  H21      1.0000 0.61580  0.55530  0.83350  Biso   1.000  H
  H22      1.0000 0.97570  0.92880  0.15620  Biso   1.000  H
  H23      1.0000 0.04910  0.85090  0.24860  Biso   1.000  H
  H24      1.0000 0.11580  0.94470  0.16650  Biso   1.000  H
  H25      1.0000 0.34380  0.02430  0.42880  Biso   1.000  H
  H26      1.0000 0.25140  0.95090  0.35090  Biso   1.000  H
  H27      1.0000 0.33350  0.88420  0.44470  Biso   1.000  H
  H28      1.0000 0.65620  0.52430  0.07120  Biso   1.000  H
  H29      1.0000 0.74860  0.45090  0.14910  Biso   1.000  H
  H30      1.0000 0.66650  0.38420  0.05530  Biso   1.000  H
  H31      1.0000 0.84380  0.47570  0.57120  Biso   1.000  H
  H32      1.0000 0.75140  0.54910  0.64910  Biso   1.000  H
  H33      1.0000 0.83350  0.61580  0.55530  Biso   1.000  H
  H34      1.0000 0.15620  0.97570  0.92880  Biso   1.000  H
  H35      1.0000 0.24860  0.04910  0.85090  Biso   1.000  H
  H36      1.0000 0.16650  0.11580  0.94470  Biso   1.000  H
  C1       1.0000 0.29190  0.42480  0.93150  Biso   1.000  C
  C2       1.0000 0.38780  0.32970  0.94930  Biso   1.000  C
  C3       1.0000 0.20810  0.57520  0.43150  Biso   1.000  C
  C4       1.0000 0.11220  0.67030  0.44930  Biso   1.000  C
  C5       1.0000 0.70810  0.92480  0.56850  Biso   1.000  C
  C6       1.0000 0.61220  0.82970  0.55070  Biso   1.000  C
  C7       1.0000 0.79190  0.07520  0.06850  Biso   1.000  C
  C8       1.0000 0.88780  0.17030  0.05070  Biso   1.000  C
  C9       1.0000 0.93150  0.29190  0.42480  Biso   1.000  C
  C10      1.0000 0.94930  0.38780  0.32970  Biso   1.000  C
  C11      1.0000 0.43150  0.20810  0.57520  Biso   1.000  C
  C12      1.0000 0.44930  0.11220  0.67030  Biso   1.000  C
  C13      1.0000 0.56850  0.70810  0.92480  Biso   1.000  C
  C14      1.0000 0.55070  0.61220  0.82970  Biso   1.000  C
  C15      1.0000 0.06850  0.79190  0.07520  Biso   1.000  C
  C16      1.0000 0.05070  0.88780  0.17030  Biso   1.000  C
  C17      1.0000 0.42480  0.93150  0.29190  Biso   1.000  C
  C18      1.0000 0.32970  0.94930  0.38780  Biso   1.000  C
  C19      1.0000 0.57520  0.43150  0.20810  Biso   1.000  C
  C20      1.0000 0.67030  0.44930  0.11220  Biso   1.000  C
  C21      1.0000 0.92480  0.56850  0.70810  Biso   1.000  C
  C22      1.0000 0.82970  0.55070  0.61220  Biso   1.000  C
  C23      1.0000 0.07520  0.06850  0.79190  Biso   1.000  C
  C24      1.0000 0.17030  0.05070  0.88780  Biso   1.000  C
  O1       1.0000 0.22790  0.42230  0.83720  Biso   1.000  O
  O2       1.0000 0.27590  0.50390  0.01230  Biso   1.000  O
  O3       1.0000 0.27210  0.57770  0.33720  Biso   1.000  O
  O4       1.0000 0.22410  0.49610  0.51230  Biso   1.000  O
  O5       1.0000 0.77210  0.92230  0.66280  Biso   1.000  O
  O6       1.0000 0.72410  0.00390  0.48770  Biso   1.000  O
  O7       1.0000 0.72790  0.07770  0.16280  Biso   1.000  O
  O8       1.0000 0.77590  0.99610  0.98770  Biso   1.000  O
  O9       1.0000 0.83720  0.22790  0.42230  Biso   1.000  O
  O10      1.0000 0.01230  0.27590  0.50390  Biso   1.000  O
  O11      1.0000 0.33720  0.27210  0.57770  Biso   1.000  O
  O12      1.0000 0.51230  0.22410  0.49610  Biso   1.000  O
  O13      1.0000 0.66280  0.77210  0.92230  Biso   1.000  O
  O14      1.0000 0.48770  0.72410  0.00390  Biso   1.000  O
  O15      1.0000 0.16280  0.72790  0.07770  Biso   1.000  O
  O16      1.0000 0.98770  0.77590  0.99610  Biso   1.000  O
  O17      1.0000 0.42230  0.83720  0.22790  Biso   1.000  O
  O18      1.0000 0.50390  0.01230  0.27590  Biso   1.000  O
  O19      1.0000 0.57770  0.33720  0.27210  Biso   1.000  O
  O20      1.0000 0.49610  0.51230  0.22410  Biso   1.000  O
  O21      1.0000 0.92230  0.66280  0.77210  Biso   1.000  O
  O22      1.0000 0.00390  0.48770  0.72410  Biso   1.000  O
  O23      1.0000 0.07770  0.16280  0.72790  Biso   1.000  O
  O24      1.0000 0.99610  0.98770  0.77590  Biso   1.000  O
