data_image0
_cell_length_a       10.42
_cell_length_b       10.4523
_cell_length_c       11.6221
_cell_angle_alpha    90
_cell_angle_beta     90
_cell_angle_gamma    90

_symmetry_space_group_name_H-M    "P 1"
_symmetry_int_tables_number       1

loop_
  _symmetry_equiv_pos_as_xyz
  'x, y, z'

loop_
  _atom_site_label
  _atom_site_occupancy
  _atom_site_fract_x
  _atom_site_fract_y
  _atom_site_fract_z
  _atom_site_thermal_displace_type
  _atom_site_B_iso_or_equiv
  _atom_site_type_symbol
  Zn1      1.0000 0.55313  0.20064  0.11876  Biso   1.000  Zn
  P1       1.0000 0.31230  0.16010  0.95510  Biso   1.000  P
  P2       1.0000 0.48680  0.92760  0.19940  Biso   1.000  P
  O1       1.0000 0.56060  0.04890  0.20490  Biso   1.000  O
  O2       1.0000 0.52140  0.83710  0.29440  Biso   1.000  O
  O3       1.0000 0.24480  0.11460  0.06170  Biso   1.000  O
  O4       1.0000 0.45470  0.18970  0.98010  Biso   1.000  O
  O5       1.0000 0.23710  0.27340  0.91160  Biso   1.000  O
  O6       1.0000 0.34550  0.95520  0.19920  Biso   1.000  O
  O7       1.0000 0.51760  0.86530  0.08390  Biso   1.000  O
  O8       1.0000 0.31200  0.05360  0.86490  Biso   1.000  O
  H1       1.0000 0.26300  0.02400  0.08700  Biso   1.000  H
  H2       1.0000 0.23600  0.00500  0.84000  Biso   1.000  H
  H3       1.0000 0.44700  0.85100  0.02800  Biso   1.000  H
  Zn2      1.0000 0.94687  0.79936  0.61876  Biso   1.000  Zn
  P3       1.0000 0.18770  0.83990  0.45510  Biso   1.000  P
  P4       1.0000 0.01320  0.07240  0.69940  Biso   1.000  P
  O9       1.0000 0.93940  0.95110  0.70490  Biso   1.000  O
  O10      1.0000 0.97860  0.16290  0.79440  Biso   1.000  O
  O11      1.0000 0.25520  0.88540  0.56170  Biso   1.000  O
  O12      1.0000 0.04530  0.81030  0.48010  Biso   1.000  O
  O13      1.0000 0.26290  0.72660  0.41160  Biso   1.000  O
  O14      1.0000 0.15450  0.04480  0.69920  Biso   1.000  O
  O15      1.0000 0.98240  0.13470  0.58390  Biso   1.000  O
  O16      1.0000 0.18800  0.94640  0.36490  Biso   1.000  O
  H4       1.0000 0.23700  0.97600  0.58700  Biso   1.000  H
  H5       1.0000 0.26400  0.99500  0.34000  Biso   1.000  H
  H6       1.0000 0.05300  0.14900  0.52800  Biso   1.000  H
  Zn3      1.0000 0.44687  0.70064  0.38124  Biso   1.000  Zn
  P5       1.0000 0.68770  0.66010  0.54490  Biso   1.000  P
  P6       1.0000 0.51320  0.42760  0.30060  Biso   1.000  P
  O17      1.0000 0.43940  0.54890  0.29510  Biso   1.000  O
  O18      1.0000 0.47860  0.33710  0.20560  Biso   1.000  O
  O19      1.0000 0.75520  0.61460  0.43830  Biso   1.000  O
  O20      1.0000 0.54530  0.68970  0.51990  Biso   1.000  O
  O21      1.0000 0.76290  0.77340  0.58840  Biso   1.000  O
  O22      1.0000 0.65450  0.45520  0.30080  Biso   1.000  O
  O23      1.0000 0.48240  0.36530  0.41610  Biso   1.000  O
  O24      1.0000 0.68800  0.55360  0.63510  Biso   1.000  O
  H7       1.0000 0.73700  0.52400  0.41300  Biso   1.000  H
  H8       1.0000 0.76400  0.50500  0.66000  Biso   1.000  H
  H9       1.0000 0.55300  0.35100  0.47200  Biso   1.000  H
  Zn4      1.0000 0.05313  0.29936  0.88124  Biso   1.000  Zn
  P7       1.0000 0.81230  0.33990  0.04490  Biso   1.000  P
  P8       1.0000 0.98680  0.57240  0.80060  Biso   1.000  P
  O25      1.0000 0.06060  0.45110  0.79510  Biso   1.000  O
  O26      1.0000 0.02140  0.66290  0.70560  Biso   1.000  O
  O27      1.0000 0.74480  0.38540  0.93830  Biso   1.000  O
  O28      1.0000 0.95470  0.31030  0.01990  Biso   1.000  O
  O29      1.0000 0.73710  0.22660  0.08840  Biso   1.000  O
  O30      1.0000 0.84550  0.54480  0.80080  Biso   1.000  O
  O31      1.0000 0.01760  0.63470  0.91610  Biso   1.000  O
  O32      1.0000 0.81200  0.44640  0.13510  Biso   1.000  O
  H10      1.0000 0.76300  0.47600  0.91300  Biso   1.000  H
  H11      1.0000 0.73600  0.49500  0.16000  Biso   1.000  H
  H12      1.0000 0.94700  0.64900  0.97200  Biso   1.000  H
