data_image0
_cell_length_a       18.4
_cell_length_b       14.566
_cell_length_c       12.313
_cell_angle_alpha    90
_cell_angle_beta     113.19
_cell_angle_gamma    90

_symmetry_space_group_name_H-M    "P 1"
_symmetry_int_tables_number       1

loop_
  _symmetry_equiv_pos_as_xyz
  'x, y, z'

loop_
  _atom_site_label
  _atom_site_occupancy
  _atom_site_fract_x
  _atom_site_fract_y
  _atom_site_fract_z
  _atom_site_thermal_displace_type
  _atom_site_B_iso_or_equiv
  _atom_site_type_symbol
  Ag1      1.0000 0.74693  0.69645  0.74544  Biso   1.000  Ag
  Ag2      1.0000 0.57807  0.68974  0.86999  Biso   1.000  Ag
  Cr1      1.0000 0.29082  0.49518  0.47464  Biso   1.000  Cr
  O1       1.0000 0.35240  0.42010  0.61380  Biso   1.000  O
  O2       1.0000 0.20780  0.40680  0.46260  Biso   1.000  O
  O3       1.0000 0.83910  0.80130  0.71620  Biso   1.000  O
  O4       1.0000 0.68200  0.78790  0.55240  Biso   1.000  O
  C1       1.0000 0.31190  0.35540  0.63260  Biso   1.000  C
  C2       1.0000 0.22550  0.34740  0.54280  Biso   1.000  C
  O5       1.0000 0.22190  0.56970  0.34020  Biso   1.000  O
  O6       1.0000 0.74250  0.58420  0.93450  Biso   1.000  O
  O7       1.0000 0.64510  0.80390  0.79970  Biso   1.000  O
  O8       1.0000 0.68540  0.78880  0.04230  Biso   1.000  O
  C3       1.0000 0.19090  0.63870  0.37070  Biso   1.000  C
  C4       1.0000 0.78860  0.64660  0.99730  Biso   1.000  C
  O9       1.0000 0.61770  0.57110  0.01020  Biso   1.000  O
  O10      1.0000 0.67080  0.57800  0.62860  Biso   1.000  O
  O11      1.0000 0.52430  0.41100  0.58130  Biso   1.000  O
  O12      1.0000 0.57820  0.57930  0.70150  Biso   1.000  O
  C5       1.0000 0.58120  0.54600  0.07550  Biso   1.000  C
  C6       1.0000 0.61090  0.54450  0.64380  Biso   1.000  C
  Ag3      1.0000 0.92470  0.65280  0.69910  Biso   1.000  Ag
  Ag4      1.0000 0.54120  0.24280  0.93250  Biso   1.000  Ag
  Ag5      1.0000 0.45710  0.23130  0.87540  Biso   1.000  Ag
  O13      1.0000 0.49560  0.80700  0.89370  Biso   1.000  O
  Ag6      1.0000 0.24693  0.19645  0.74544  Biso   1.000  Ag
  Ag7      1.0000 0.07807  0.18974  0.86999  Biso   1.000  Ag
  Cr2      1.0000 0.79082  0.99518  0.47464  Biso   1.000  Cr
  O14      1.0000 0.85240  0.92010  0.61380  Biso   1.000  O
  O15      1.0000 0.70780  0.90680  0.46260  Biso   1.000  O
  O16      1.0000 0.33910  0.30130  0.71620  Biso   1.000  O
  O17      1.0000 0.18200  0.28790  0.55240  Biso   1.000  O
  C7       1.0000 0.81190  0.85540  0.63260  Biso   1.000  C
  C8       1.0000 0.72550  0.84740  0.54280  Biso   1.000  C
  O18      1.0000 0.72190  0.06970  0.34020  Biso   1.000  O
  O19      1.0000 0.24250  0.08420  0.93450  Biso   1.000  O
  O20      1.0000 0.14510  0.30390  0.79970  Biso   1.000  O
  O21      1.0000 0.18540  0.28880  0.04230  Biso   1.000  O
  C9       1.0000 0.69090  0.13870  0.37070  Biso   1.000  C
  C10      1.0000 0.28860  0.14660  0.99730  Biso   1.000  C
  O22      1.0000 0.11770  0.07110  0.01020  Biso   1.000  O
  O23      1.0000 0.17080  0.07800  0.62860  Biso   1.000  O
  O24      1.0000 0.02430  0.91100  0.58130  Biso   1.000  O
  O25      1.0000 0.07820  0.07930  0.70150  Biso   1.000  O
  C11      1.0000 0.08120  0.04600  0.07550  Biso   1.000  C
  C12      1.0000 0.11090  0.04450  0.64380  Biso   1.000  C
  Ag8      1.0000 0.42470  0.15280  0.69910  Biso   1.000  Ag
  Ag9      1.0000 0.04120  0.74280  0.93250  Biso   1.000  Ag
  Ag10     1.0000 0.95710  0.73130  0.87540  Biso   1.000  Ag
  O26      1.0000 0.99560  0.30700  0.89370  Biso   1.000  O
  Ag11     1.0000 0.25307  0.69645  0.75456  Biso   1.000  Ag
  Ag12     1.0000 0.42193  0.68974  0.63001  Biso   1.000  Ag
  Cr3      1.0000 0.70918  0.49518  0.02536  Biso   1.000  Cr
  O27      1.0000 0.64760  0.42010  0.88620  Biso   1.000  O
  O28      1.0000 0.79220  0.40680  0.03740  Biso   1.000  O
  O29      1.0000 0.16090  0.80130  0.78380  Biso   1.000  O
  O30      1.0000 0.31800  0.78790  0.94760  Biso   1.000  O
  C13      1.0000 0.68810  0.35540  0.86740  Biso   1.000  C
  C14      1.0000 0.77450  0.34740  0.95720  Biso   1.000  C
  O31      1.0000 0.77810  0.56970  0.15980  Biso   1.000  O
  O32      1.0000 0.25750  0.58420  0.56550  Biso   1.000  O
  O33      1.0000 0.35490  0.80390  0.70030  Biso   1.000  O
  O34      1.0000 0.31460  0.78880  0.45770  Biso   1.000  O
  C15      1.0000 0.80910  0.63870  0.12930  Biso   1.000  C
  C16      1.0000 0.21140  0.64660  0.50270  Biso   1.000  C
  O35      1.0000 0.38230  0.57110  0.48980  Biso   1.000  O
  O36      1.0000 0.32920  0.57800  0.87140  Biso   1.000  O
  O37      1.0000 0.47570  0.41100  0.91870  Biso   1.000  O
  O38      1.0000 0.42180  0.57930  0.79850  Biso   1.000  O
  C17      1.0000 0.41880  0.54600  0.42450  Biso   1.000  C
  C18      1.0000 0.38910  0.54450  0.85620  Biso   1.000  C
  Ag13     1.0000 0.07530  0.65280  0.80090  Biso   1.000  Ag
  Ag14     1.0000 0.45880  0.24280  0.56750  Biso   1.000  Ag
  Ag15     1.0000 0.54290  0.23130  0.62460  Biso   1.000  Ag
  O39      1.0000 0.50440  0.80700  0.60630  Biso   1.000  O
  Ag16     1.0000 0.75307  0.19645  0.75456  Biso   1.000  Ag
  Ag17     1.0000 0.92193  0.18974  0.63001  Biso   1.000  Ag
  Cr4      1.0000 0.20918  0.99518  0.02536  Biso   1.000  Cr
  O40      1.0000 0.14760  0.92010  0.88620  Biso   1.000  O
  O41      1.0000 0.29220  0.90680  0.03740  Biso   1.000  O
  O42      1.0000 0.66090  0.30130  0.78380  Biso   1.000  O
  O43      1.0000 0.81800  0.28790  0.94760  Biso   1.000  O
  C19      1.0000 0.18810  0.85540  0.86740  Biso   1.000  C
  C20      1.0000 0.27450  0.84740  0.95720  Biso   1.000  C
  O44      1.0000 0.27810  0.06970  0.15980  Biso   1.000  O
  O45      1.0000 0.75750  0.08420  0.56550  Biso   1.000  O
  O46      1.0000 0.85490  0.30390  0.70030  Biso   1.000  O
  O47      1.0000 0.81460  0.28880  0.45770  Biso   1.000  O
  C21      1.0000 0.30910  0.13870  0.12930  Biso   1.000  C
  C22      1.0000 0.71140  0.14660  0.50270  Biso   1.000  C
  O48      1.0000 0.88230  0.07110  0.48980  Biso   1.000  O
  O49      1.0000 0.82920  0.07800  0.87140  Biso   1.000  O
  O50      1.0000 0.97570  0.91100  0.91870  Biso   1.000  O
  O51      1.0000 0.92180  0.07930  0.79850  Biso   1.000  O
  C23      1.0000 0.91880  0.04600  0.42450  Biso   1.000  C
  C24      1.0000 0.88910  0.04450  0.85620  Biso   1.000  C
  Ag18     1.0000 0.57530  0.15280  0.80090  Biso   1.000  Ag
  Ag19     1.0000 0.95880  0.74280  0.56750  Biso   1.000  Ag
  Ag20     1.0000 0.04290  0.73130  0.62460  Biso   1.000  Ag
  O52      1.0000 0.00440  0.30700  0.60630  Biso   1.000  O
  Ag21     1.0000 0.25307  0.30355  0.25456  Biso   1.000  Ag
  Ag22     1.0000 0.42193  0.31026  0.13001  Biso   1.000  Ag
  Cr5      1.0000 0.70918  0.50482  0.52536  Biso   1.000  Cr
  O53      1.0000 0.64760  0.57990  0.38620  Biso   1.000  O
  O54      1.0000 0.79220  0.59320  0.53740  Biso   1.000  O
  O55      1.0000 0.16090  0.19870  0.28380  Biso   1.000  O
  O56      1.0000 0.31800  0.21210  0.44760  Biso   1.000  O
  C25      1.0000 0.68810  0.64460  0.36740  Biso   1.000  C
  C26      1.0000 0.77450  0.65260  0.45720  Biso   1.000  C
  O57      1.0000 0.77810  0.43030  0.65980  Biso   1.000  O
  O58      1.0000 0.25750  0.41580  0.06550  Biso   1.000  O
  O59      1.0000 0.35490  0.19610  0.20030  Biso   1.000  O
  O60      1.0000 0.31460  0.21120  0.95770  Biso   1.000  O
  C27      1.0000 0.80910  0.36130  0.62930  Biso   1.000  C
  C28      1.0000 0.21140  0.35340  0.00270  Biso   1.000  C
  O61      1.0000 0.38230  0.42890  0.98980  Biso   1.000  O
  O62      1.0000 0.32920  0.42200  0.37140  Biso   1.000  O
  O63      1.0000 0.47570  0.58900  0.41870  Biso   1.000  O
  O64      1.0000 0.42180  0.42070  0.29850  Biso   1.000  O
  C29      1.0000 0.41880  0.45400  0.92450  Biso   1.000  C
  C30      1.0000 0.38910  0.45550  0.35620  Biso   1.000  C
  Ag23     1.0000 0.07530  0.34720  0.30090  Biso   1.000  Ag
  Ag24     1.0000 0.45880  0.75720  0.06750  Biso   1.000  Ag
  Ag25     1.0000 0.54290  0.76870  0.12460  Biso   1.000  Ag
  O65      1.0000 0.50440  0.19300  0.10630  Biso   1.000  O
  Ag26     1.0000 0.75307  0.80355  0.25456  Biso   1.000  Ag
  Ag27     1.0000 0.92193  0.81026  0.13001  Biso   1.000  Ag
  Cr6      1.0000 0.20918  0.00482  0.52536  Biso   1.000  Cr
  O66      1.0000 0.14760  0.07990  0.38620  Biso   1.000  O
  O67      1.0000 0.29220  0.09320  0.53740  Biso   1.000  O
  O68      1.0000 0.66090  0.69870  0.28380  Biso   1.000  O
  O69      1.0000 0.81800  0.71210  0.44760  Biso   1.000  O
  C31      1.0000 0.18810  0.14460  0.36740  Biso   1.000  C
  C32      1.0000 0.27450  0.15260  0.45720  Biso   1.000  C
  O70      1.0000 0.27810  0.93030  0.65980  Biso   1.000  O
  O71      1.0000 0.75750  0.91580  0.06550  Biso   1.000  O
  O72      1.0000 0.85490  0.69610  0.20030  Biso   1.000  O
  O73      1.0000 0.81460  0.71120  0.95770  Biso   1.000  O
  C33      1.0000 0.30910  0.86130  0.62930  Biso   1.000  C
  C34      1.0000 0.71140  0.85340  0.00270  Biso   1.000  C
  O74      1.0000 0.88230  0.92890  0.98980  Biso   1.000  O
  O75      1.0000 0.82920  0.92200  0.37140  Biso   1.000  O
  O76      1.0000 0.97570  0.08900  0.41870  Biso   1.000  O
  O77      1.0000 0.92180  0.92070  0.29850  Biso   1.000  O
  C35      1.0000 0.91880  0.95400  0.92450  Biso   1.000  C
  C36      1.0000 0.88910  0.95550  0.35620  Biso   1.000  C
  Ag28     1.0000 0.57530  0.84720  0.30090  Biso   1.000  Ag
  Ag29     1.0000 0.95880  0.25720  0.06750  Biso   1.000  Ag
  Ag30     1.0000 0.04290  0.26870  0.12460  Biso   1.000  Ag
  O78      1.0000 0.00440  0.69300  0.10630  Biso   1.000  O
  Ag31     1.0000 0.74693  0.30355  0.24544  Biso   1.000  Ag
  Ag32     1.0000 0.57807  0.31026  0.36999  Biso   1.000  Ag
  Cr7      1.0000 0.29082  0.50482  0.97464  Biso   1.000  Cr
  O79      1.0000 0.35240  0.57990  0.11380  Biso   1.000  O
  O80      1.0000 0.20780  0.59320  0.96260  Biso   1.000  O
  O81      1.0000 0.83910  0.19870  0.21620  Biso   1.000  O
  O82      1.0000 0.68200  0.21210  0.05240  Biso   1.000  O
  C37      1.0000 0.31190  0.64460  0.13260  Biso   1.000  C
  C38      1.0000 0.22550  0.65260  0.04280  Biso   1.000  C
  O83      1.0000 0.22190  0.43030  0.84020  Biso   1.000  O
  O84      1.0000 0.74250  0.41580  0.43450  Biso   1.000  O
  O85      1.0000 0.64510  0.19610  0.29970  Biso   1.000  O
  O86      1.0000 0.68540  0.21120  0.54230  Biso   1.000  O
  C39      1.0000 0.19090  0.36130  0.87070  Biso   1.000  C
  C40      1.0000 0.78860  0.35340  0.49730  Biso   1.000  C
  O87      1.0000 0.61770  0.42890  0.51020  Biso   1.000  O
  O88      1.0000 0.67080  0.42200  0.12860  Biso   1.000  O
  O89      1.0000 0.52430  0.58900  0.08130  Biso   1.000  O
  O90      1.0000 0.57820  0.42070  0.20150  Biso   1.000  O
  C41      1.0000 0.58120  0.45400  0.57550  Biso   1.000  C
  C42      1.0000 0.61090  0.45550  0.14380  Biso   1.000  C
  Ag33     1.0000 0.92470  0.34720  0.19910  Biso   1.000  Ag
  Ag34     1.0000 0.54120  0.75720  0.43250  Biso   1.000  Ag
  Ag35     1.0000 0.45710  0.76870  0.37540  Biso   1.000  Ag
  O91      1.0000 0.49560  0.19300  0.39370  Biso   1.000  O
  Ag36     1.0000 0.24693  0.80355  0.24544  Biso   1.000  Ag
  Ag37     1.0000 0.07807  0.81026  0.36999  Biso   1.000  Ag
  Cr8      1.0000 0.79082  0.00482  0.97464  Biso   1.000  Cr
  O92      1.0000 0.85240  0.07990  0.11380  Biso   1.000  O
  O93      1.0000 0.70780  0.09320  0.96260  Biso   1.000  O
  O94      1.0000 0.33910  0.69870  0.21620  Biso   1.000  O
  O95      1.0000 0.18200  0.71210  0.05240  Biso   1.000  O
  C43      1.0000 0.81190  0.14460  0.13260  Biso   1.000  C
  C44      1.0000 0.72550  0.15260  0.04280  Biso   1.000  C
  O96      1.0000 0.72190  0.93030  0.84020  Biso   1.000  O
  O97      1.0000 0.24250  0.91580  0.43450  Biso   1.000  O
  O98      1.0000 0.14510  0.69610  0.29970  Biso   1.000  O
  O99      1.0000 0.18540  0.71120  0.54230  Biso   1.000  O
  C45      1.0000 0.69090  0.86130  0.87070  Biso   1.000  C
  C46      1.0000 0.28860  0.85340  0.49730  Biso   1.000  C
  O100     1.0000 0.11770  0.92890  0.51020  Biso   1.000  O
  O101     1.0000 0.17080  0.92200  0.12860  Biso   1.000  O
  O102     1.0000 0.02430  0.08900  0.08130  Biso   1.000  O
  O103     1.0000 0.07820  0.92070  0.20150  Biso   1.000  O
  C47      1.0000 0.08120  0.95400  0.57550  Biso   1.000  C
  C48      1.0000 0.11090  0.95550  0.14380  Biso   1.000  C
  Ag38     1.0000 0.42470  0.84720  0.19910  Biso   1.000  Ag
  Ag39     1.0000 0.04120  0.25720  0.43250  Biso   1.000  Ag
  Ag40     1.0000 0.95710  0.26870  0.37540  Biso   1.000  Ag
  O104     1.0000 0.99560  0.69300  0.39370  Biso   1.000  O
  Ag41     1.0000 0.50000  0.45280  0.75000  Biso   1.000  Ag
  Ag42     1.0000 0.00000  0.95280  0.75000  Biso   1.000  Ag
  Ag43     1.0000 0.50000  0.54720  0.25000  Biso   1.000  Ag
  Ag44     1.0000 0.00000  0.04720  0.25000  Biso   1.000  Ag
