data_image0
_cell_length_a       11.737
_cell_length_b       11.737
_cell_length_c       12.313
_cell_angle_alpha    72.0924
_cell_angle_beta     72.0924
_cell_angle_gamma    76.9133

_symmetry_space_group_name_H-M    P 1
_symmetry_int_tables_number       1

loop_
  _symmetry_equiv_pos_as_xyz
  'x, y, z'

loop_
  _atom_site_label
  _atom_site_occupancy
  _atom_site_fract_x
  _atom_site_fract_y
  _atom_site_fract_z
  _atom_site_thermal_displace_type
  _atom_site_B_iso_or_equiv
  _atom_site_type_symbol
  Cr1      1.0000 0.20457  0.21381  0.47546  Biso   1.000  Cr
  Cr2      1.0000 0.78619  0.79543  0.02454  Biso   1.000  Cr
  Cr3      1.0000 0.79543  0.78619  0.52454  Biso   1.000  Cr
  Cr4      1.0000 0.21381  0.20457  0.97546  Biso   1.000  Cr
  Ag1      1.0000 0.94927  0.55609  0.74508  Biso   1.000  Ag
  Ag2      1.0000 0.88830  0.26800  0.12837  Biso   1.000  Ag
  Ag3      1.0000 0.44391  0.05073  0.75492  Biso   1.000  Ag
  Ag4      1.0000 0.73200  0.11170  0.37163  Biso   1.000  Ag
  Ag5      1.0000 0.05073  0.44391  0.25492  Biso   1.000  Ag
  Ag6      1.0000 0.11170  0.73200  0.87163  Biso   1.000  Ag
  Ag7      1.0000 0.55609  0.94927  0.24508  Biso   1.000  Ag
  Ag8      1.0000 0.26800  0.88830  0.62837  Biso   1.000  Ag
  Ag9      1.0000 0.95677  0.04323  0.75000  Biso   1.000  Ag
  Ag10     1.0000 0.04323  0.95677  0.25000  Biso   1.000  Ag
  C1       1.0000 0.04220  0.33160  0.63300  Biso   1.000  C
  C2       1.0000 0.12220  0.42600  0.54390  Biso   1.000  C
  C3       1.0000 0.82740  0.55200  0.12900  Biso   1.000  C
  C4       1.0000 0.85770  0.56430  0.99760  Biso   1.000  C
  C5       1.0000 0.03460  0.12600  0.92500  Biso   1.000  C
  C6       1.0000 0.15630  0.06630  0.85840  Biso   1.000  C
  C7       1.0000 0.66840  0.95780  0.86700  Biso   1.000  C
  C8       1.0000 0.57400  0.87780  0.95610  Biso   1.000  C
  C9       1.0000 0.44800  0.17260  0.37100  Biso   1.000  C
  C10      1.0000 0.43570  0.14230  0.50240  Biso   1.000  C
  C11      1.0000 0.87400  0.96540  0.57500  Biso   1.000  C
  C12      1.0000 0.93370  0.84370  0.64160  Biso   1.000  C
  C13      1.0000 0.95780  0.66840  0.36700  Biso   1.000  C
  C14      1.0000 0.87780  0.57400  0.45610  Biso   1.000  C
  C15      1.0000 0.17260  0.44800  0.87100  Biso   1.000  C
  C16      1.0000 0.14230  0.43570  0.00240  Biso   1.000  C
  C17      1.0000 0.96540  0.87400  0.07500  Biso   1.000  C
  C18      1.0000 0.84370  0.93370  0.14160  Biso   1.000  C
  C19      1.0000 0.33160  0.04220  0.13300  Biso   1.000  C
  C20      1.0000 0.42600  0.12220  0.04390  Biso   1.000  C
  C21      1.0000 0.55200  0.82740  0.62900  Biso   1.000  C
  C22      1.0000 0.56430  0.85770  0.49760  Biso   1.000  C
  C23      1.0000 0.12600  0.03460  0.42500  Biso   1.000  C
  C24      1.0000 0.06630  0.15630  0.35840  Biso   1.000  C
  O1       1.0000 0.06850  0.22630  0.61380  Biso   1.000  O
  O2       1.0000 0.20070  0.38450  0.46250  Biso   1.000  O
  O3       1.0000 0.95940  0.36120  0.71600  Biso   1.000  O
  O4       1.0000 0.10530  0.53070  0.55230  Biso   1.000  O
  O5       1.0000 0.78890  0.65210  0.15860  Biso   1.000  O
  O6       1.0000 0.84230  0.67270  0.93390  Biso   1.000  O
  O7       1.0000 0.84530  0.45030  0.19780  Biso   1.000  O
  O8       1.0000 0.89420  0.47460  0.95640  Biso   1.000  O
  O9       1.0000 0.04580  0.18760  0.99070  Biso   1.000  O
  O10      1.0000 0.24840  0.09540  0.87120  Biso   1.000  O
  O11      1.0000 0.93700  0.11320  0.91710  Biso   1.000  O
  O12      1.0000 0.15860  0.99680  0.80040  Biso   1.000  O
  O13      1.0000 0.77370  0.93150  0.88620  Biso   1.000  O
  O14      1.0000 0.61550  0.79930  0.03750  Biso   1.000  O
  O15      1.0000 0.63880  0.04060  0.78400  Biso   1.000  O
  O16      1.0000 0.46930  0.89470  0.94770  Biso   1.000  O
  O17      1.0000 0.34790  0.21110  0.34140  Biso   1.000  O
  O18      1.0000 0.32730  0.15770  0.56610  Biso   1.000  O
  O19      1.0000 0.54970  0.15470  0.30220  Biso   1.000  O
  O20      1.0000 0.52540  0.10580  0.54360  Biso   1.000  O
  O21      1.0000 0.81240  0.95420  0.50930  Biso   1.000  O
  O22      1.0000 0.90460  0.75160  0.62880  Biso   1.000  O
  O23      1.0000 0.88680  0.06300  0.58290  Biso   1.000  O
  O24      1.0000 0.00320  0.84140  0.69960  Biso   1.000  O
  O25      1.0000 0.93150  0.77370  0.38620  Biso   1.000  O
  O26      1.0000 0.79930  0.61550  0.53750  Biso   1.000  O
  O27      1.0000 0.04060  0.63880  0.28400  Biso   1.000  O
  O28      1.0000 0.89470  0.46930  0.44770  Biso   1.000  O
  O29      1.0000 0.21110  0.34790  0.84140  Biso   1.000  O
  O30      1.0000 0.15770  0.32730  0.06610  Biso   1.000  O
  O31      1.0000 0.15470  0.54970  0.80220  Biso   1.000  O
  O32      1.0000 0.10580  0.52540  0.04360  Biso   1.000  O
  O33      1.0000 0.95420  0.81240  0.00930  Biso   1.000  O
  O34      1.0000 0.75160  0.90460  0.12880  Biso   1.000  O
  O35      1.0000 0.06300  0.88680  0.08290  Biso   1.000  O
  O36      1.0000 0.84140  0.00320  0.19960  Biso   1.000  O
  O37      1.0000 0.22630  0.06850  0.11380  Biso   1.000  O
  O38      1.0000 0.38450  0.20070  0.96250  Biso   1.000  O
  O39      1.0000 0.36120  0.95940  0.21600  Biso   1.000  O
  O40      1.0000 0.53070  0.10530  0.05230  Biso   1.000  O
  O41      1.0000 0.65210  0.78890  0.65860  Biso   1.000  O
  O42      1.0000 0.67270  0.84230  0.43390  Biso   1.000  O
  O43      1.0000 0.45030  0.84530  0.69780  Biso   1.000  O
  O44      1.0000 0.47460  0.89420  0.45640  Biso   1.000  O
  O45      1.0000 0.18760  0.04580  0.49070  Biso   1.000  O
  O46      1.0000 0.09540  0.24840  0.37120  Biso   1.000  O
  O47      1.0000 0.11320  0.93700  0.41710  Biso   1.000  O
  O48      1.0000 0.99680  0.15860  0.30040  Biso   1.000  O
