data_image0
_cell_length_a       13.326
_cell_length_b       15.4554
_cell_length_c       15.4554
_cell_angle_alpha    67.908
_cell_angle_beta     73.2972
_cell_angle_gamma    106.703

_symmetry_space_group_name_H-M    P 1
_symmetry_int_tables_number       1

loop_
  _symmetry_equiv_pos_as_xyz
  'x, y, z'

loop_
  _atom_site_label
  _atom_site_occupancy
  _atom_site_fract_x
  _atom_site_fract_y
  _atom_site_fract_z
  _atom_site_thermal_displace_type
  _atom_site_B_iso_or_equiv
  _atom_site_type_symbol
  Cu1      1.0000 0.26050  0.49050  0.90320  Biso   1.000  Cu
  Cu2      1.0000 0.16370  0.90320  0.60630  Biso   1.000  Cu
  Cu3      1.0000 0.77000  0.60630  0.49050  Biso   1.000  Cu
  H1       1.0000 0.37901  0.79502  0.61399  Biso   1.000  H
  H2       1.0000 0.27301  0.70102  0.61899  Biso   1.000  H
  H3       1.0000 0.29901  0.82402  0.55599  Biso   1.000  H
  H4       1.0000 0.03601  0.81802  0.83499  Biso   1.000  H
  H5       1.0000 0.06000  0.71500  0.05600  Biso   1.000  H
  H6       1.0000 0.96700  0.74400  0.01300  Biso   1.000  H
  H7       1.0000 0.07000  0.52000  0.11000  Biso   1.000  H
  H8       1.0000 0.11000  0.42300  0.17800  Biso   1.000  H
  H9       1.0000 0.28700  0.46200  0.19900  Biso   1.000  H
  H10      1.0000 0.19300  0.60400  0.14600  Biso   1.000  H
  H11      1.0000 0.25600  0.58700  0.22500  Biso   1.000  H
  H12      1.0000 0.34600  0.63900  0.09100  Biso   1.000  H
  H13      1.0000 0.40800  0.62200  0.97500  Biso   1.000  H
  H14      1.0000 0.47100  0.60400  0.05600  Biso   1.000  H
  H15      1.0000 0.42100  0.51200  0.02700  Biso   1.000  H
  H16      1.0000 0.99300  0.61399  0.59099  Biso   1.000  H
  H17      1.0000 0.89200  0.61899  0.67999  Biso   1.000  H
  H18      1.0000 0.85500  0.55599  0.61999  Biso   1.000  H
  H19      1.0000 0.87100  0.83499  0.34699  Biso   1.000  H
  H20      1.0000 0.11600  0.05600  0.22900  Biso   1.000  H
  H21      1.0000 0.98000  0.01300  0.24300  Biso   1.000  H
  H22      1.0000 0.18000  0.11000  0.37000  Biso   1.000  H
  H23      1.0000 0.28800  0.17800  0.39900  Biso   1.000  H
  H24      1.0000 0.48600  0.19900  0.33900  Biso   1.000  H
  H25      1.0000 0.33900  0.14600  0.25000  Biso   1.000  H
  H26      1.0000 0.48100  0.22500  0.18800  Biso   1.000  H
  H27      1.0000 0.43700  0.09100  0.27000  Biso   1.000  H
  H28      1.0000 0.38300  0.97500  0.40300  Biso   1.000  H
  H29      1.0000 0.52700  0.05600  0.34000  Biso   1.000  H
  H30      1.0000 0.44800  0.02700  0.46100  Biso   1.000  H
  H31      1.0000 0.58399  0.59099  0.79502  Biso   1.000  H
  H32      1.0000 0.57199  0.67999  0.70102  Biso   1.000  H
  H33      1.0000 0.47499  0.61999  0.82402  Biso   1.000  H
  H34      1.0000 0.21799  0.34699  0.81802  Biso   1.000  H
  H35      1.0000 0.34500  0.22900  0.71500  Biso   1.000  H
  H36      1.0000 0.22300  0.24300  0.74400  Biso   1.000  H
  H37      1.0000 0.55000  0.37000  0.52000  Biso   1.000  H
  H38      1.0000 0.68700  0.39900  0.42300  Biso   1.000  H
  H39      1.0000 0.82500  0.33900  0.46200  Biso   1.000  H
  H40      1.0000 0.58900  0.25000  0.60400  Biso   1.000  H
  H41      1.0000 0.66900  0.18800  0.58700  Biso   1.000  H
  H42      1.0000 0.70700  0.27000  0.63900  Biso   1.000  H
  H43      1.0000 0.78600  0.40300  0.62200  Biso   1.000  H
  H44      1.0000 0.86700  0.34000  0.60400  Biso   1.000  H
  H45      1.0000 0.90900  0.46100  0.51200  Biso   1.000  H
  C1       1.0000 0.21590  0.66680  0.81430  Biso   1.000  C
  C2       1.0000 0.21831  0.74112  0.72749  Biso   1.000  C
  C3       1.0000 0.29331  0.76662  0.62309  Biso   1.000  C
  C4       1.0000 0.08791  0.77582  0.83029  Biso   1.000  C
  C5       1.0000 0.07700  0.70561  0.91911  Biso   1.000  C
  C6       1.0000 0.00160  0.68990  0.02850  Biso   1.000  C
  C7       1.0000 0.14180  0.64410  0.91790  Biso   1.000  C
  C8       1.0000 0.13760  0.57640  0.01160  Biso   1.000  C
  C9       1.0000 0.19270  0.45260  0.11250  Biso   1.000  C
  C10      1.0000 0.20840  0.35780  0.11220  Biso   1.000  C
  C11      1.0000 0.28240  0.51300  0.13480  Biso   1.000  C
  C12      1.0000 0.26330  0.59960  0.15300  Biso   1.000  C
  C13      1.0000 0.40600  0.56570  0.04140  Biso   1.000  C
  C14      1.0000 0.03020  0.81430  0.51890  Biso   1.000  C
  C15      1.0000 0.94580  0.72749  0.53139  Biso   1.000  C
  C16      1.0000 0.91640  0.62309  0.61029  Biso   1.000  C
  C17      1.0000 0.91820  0.83029  0.39389  Biso   1.000  C
  C18      1.0000 0.99611  0.91911  0.37528  Biso   1.000  C
  C19      1.0000 0.03010  0.02850  0.28160  Biso   1.000  C
  C20      1.0000 0.05970  0.91790  0.43800  Biso   1.000  C
  C21      1.0000 0.14920  0.01160  0.41200  Biso   1.000  C
  C22      1.0000 0.30520  0.11250  0.43490  Biso   1.000  C
  C23      1.0000 0.32060  0.11220  0.53000  Biso   1.000  C
  C24      1.0000 0.41720  0.13480  0.35220  Biso   1.000  C
  C25      1.0000 0.41630  0.15300  0.24740  Biso   1.000  C
  C26      1.0000 0.44740  0.04140  0.39290  Biso   1.000  C
  C27      1.0000 0.54910  0.51890  0.66680  Biso   1.000  C
  C28      1.0000 0.47719  0.53139  0.74112  Biso   1.000  C
  C29      1.0000 0.52669  0.61029  0.76662  Biso   1.000  C
  C30      1.0000 0.31209  0.39389  0.77582  Biso   1.000  C
  C31      1.0000 0.37139  0.37528  0.70561  Biso   1.000  C
  C32      1.0000 0.31170  0.28160  0.68990  Biso   1.000  C
  C33      1.0000 0.49770  0.43800  0.64410  Biso   1.000  C
  C34      1.0000 0.56120  0.41200  0.57640  Biso   1.000  C
  C35      1.0000 0.74010  0.43490  0.45260  Biso   1.000  C
  C36      1.0000 0.85060  0.53000  0.35780  Biso   1.000  C
  C37      1.0000 0.76940  0.35220  0.51300  Biso   1.000  C
  C38      1.0000 0.66370  0.24740  0.59960  Biso   1.000  C
  C39      1.0000 0.84030  0.39290  0.56570  Biso   1.000  C
  N1       1.0000 0.15631  0.79492  0.73539  Biso   1.000  N
  N2       1.0000 0.19320  0.51610  0.01520  Biso   1.000  N
  N3       1.0000 0.89170  0.73539  0.46969  Biso   1.000  N
  N4       1.0000 0.20840  0.01520  0.46870  Biso   1.000  N
  N5       1.0000 0.36139  0.46969  0.79492  Biso   1.000  N
  N6       1.0000 0.67710  0.46870  0.51610  Biso   1.000  N
  O1       1.0000 0.91530  0.58770  0.10000  Biso   1.000  O
  O2       1.0000 0.27980  0.61790  0.80080  Biso   1.000  O
  O3       1.0000 0.24280  0.36580  0.01940  Biso   1.000  O
  O4       1.0000 0.19420  0.28640  0.19050  Biso   1.000  O
  O5       1.0000 0.01530  0.10000  0.31230  Biso   1.000  O
  O6       1.0000 0.08060  0.80080  0.58130  Biso   1.000  O
  O7       1.0000 0.26220  0.01940  0.61480  Biso   1.000  O
  O8       1.0000 0.38470  0.19050  0.52310  Biso   1.000  O
  O9       1.0000 0.32760  0.31230  0.58770  Biso   1.000  O
  O10      1.0000 0.66190  0.58130  0.61790  Biso   1.000  O
  O11      1.0000 0.87700  0.61480  0.36580  Biso   1.000  O
  O12      1.0000 0.90780  0.52310  0.28640  Biso   1.000  O
  Cu4      1.0000 0.73950  0.50950  0.09680  Biso   1.000  Cu
  Cu5      1.0000 0.83630  0.09680  0.39370  Biso   1.000  Cu
  Cu6      1.0000 0.23000  0.39370  0.50950  Biso   1.000  Cu
  H46      1.0000 0.62099  0.20498  0.38601  Biso   1.000  H
  H47      1.0000 0.72699  0.29898  0.38101  Biso   1.000  H
  H48      1.0000 0.70099  0.17598  0.44401  Biso   1.000  H
  H49      1.0000 0.96399  0.18198  0.16501  Biso   1.000  H
  H50      1.0000 0.94000  0.28500  0.94400  Biso   1.000  H
  H51      1.0000 0.03300  0.25600  0.98700  Biso   1.000  H
  H52      1.0000 0.93000  0.48000  0.89000  Biso   1.000  H
  H53      1.0000 0.89000  0.57700  0.82200  Biso   1.000  H
  H54      1.0000 0.71300  0.53800  0.80100  Biso   1.000  H
  H55      1.0000 0.80700  0.39600  0.85400  Biso   1.000  H
  H56      1.0000 0.74400  0.41300  0.77500  Biso   1.000  H
  H57      1.0000 0.65400  0.36100  0.90900  Biso   1.000  H
  H58      1.0000 0.59200  0.37800  0.02500  Biso   1.000  H
  H59      1.0000 0.52900  0.39600  0.94400  Biso   1.000  H
  H60      1.0000 0.57900  0.48800  0.97300  Biso   1.000  H
  H61      1.0000 0.00700  0.38601  0.40901  Biso   1.000  H
  H62      1.0000 0.10800  0.38101  0.32001  Biso   1.000  H
  H63      1.0000 0.14500  0.44401  0.38001  Biso   1.000  H
  H64      1.0000 0.12900  0.16501  0.65301  Biso   1.000  H
  H65      1.0000 0.88400  0.94400  0.77100  Biso   1.000  H
  H66      1.0000 0.02000  0.98700  0.75700  Biso   1.000  H
  H67      1.0000 0.82000  0.89000  0.63000  Biso   1.000  H
  H68      1.0000 0.71200  0.82200  0.60100  Biso   1.000  H
  H69      1.0000 0.51400  0.80100  0.66100  Biso   1.000  H
  H70      1.0000 0.66100  0.85400  0.75000  Biso   1.000  H
  H71      1.0000 0.51900  0.77500  0.81200  Biso   1.000  H
  H72      1.0000 0.56300  0.90900  0.73000  Biso   1.000  H
  H73      1.0000 0.61700  0.02500  0.59700  Biso   1.000  H
  H74      1.0000 0.47300  0.94400  0.66000  Biso   1.000  H
  H75      1.0000 0.55200  0.97300  0.53900  Biso   1.000  H
  H76      1.0000 0.41601  0.40901  0.20498  Biso   1.000  H
  H77      1.0000 0.42801  0.32001  0.29898  Biso   1.000  H
  H78      1.0000 0.52501  0.38001  0.17598  Biso   1.000  H
  H79      1.0000 0.78201  0.65301  0.18198  Biso   1.000  H
  H80      1.0000 0.65500  0.77100  0.28500  Biso   1.000  H
  H81      1.0000 0.77700  0.75700  0.25600  Biso   1.000  H
  H82      1.0000 0.45000  0.63000  0.48000  Biso   1.000  H
  H83      1.0000 0.31300  0.60100  0.57700  Biso   1.000  H
  H84      1.0000 0.17500  0.66100  0.53800  Biso   1.000  H
  H85      1.0000 0.41100  0.75000  0.39600  Biso   1.000  H
  H86      1.0000 0.33100  0.81200  0.41300  Biso   1.000  H
  H87      1.0000 0.29300  0.73000  0.36100  Biso   1.000  H
  H88      1.0000 0.21400  0.59700  0.37800  Biso   1.000  H
  H89      1.0000 0.13300  0.66000  0.39600  Biso   1.000  H
  H90      1.0000 0.09100  0.53900  0.48800  Biso   1.000  H
  C40      1.0000 0.78410  0.33320  0.18570  Biso   1.000  C
  C41      1.0000 0.78169  0.25888  0.27251  Biso   1.000  C
  C42      1.0000 0.70669  0.23338  0.37691  Biso   1.000  C
  C43      1.0000 0.91209  0.22418  0.16971  Biso   1.000  C
  C44      1.0000 0.92300  0.29439  0.08089  Biso   1.000  C
  C45      1.0000 0.99840  0.31010  0.97150  Biso   1.000  C
  C46      1.0000 0.85820  0.35590  0.08210  Biso   1.000  C
  C47      1.0000 0.86240  0.42360  0.98840  Biso   1.000  C
  C48      1.0000 0.80730  0.54740  0.88750  Biso   1.000  C
  C49      1.0000 0.79160  0.64220  0.88780  Biso   1.000  C
  C50      1.0000 0.71760  0.48700  0.86520  Biso   1.000  C
  C51      1.0000 0.73670  0.40040  0.84700  Biso   1.000  C
  C52      1.0000 0.59400  0.43430  0.95860  Biso   1.000  C
  C53      1.0000 0.96980  0.18570  0.48110  Biso   1.000  C
  C54      1.0000 0.05420  0.27251  0.46861  Biso   1.000  C
  C55      1.0000 0.08360  0.37691  0.38971  Biso   1.000  C
  C56      1.0000 0.08180  0.16971  0.60611  Biso   1.000  C
  C57      1.0000 0.00389  0.08089  0.62472  Biso   1.000  C
  C58      1.0000 0.96990  0.97150  0.71840  Biso   1.000  C
  C59      1.0000 0.94030  0.08210  0.56200  Biso   1.000  C
  C60      1.0000 0.85080  0.98840  0.58800  Biso   1.000  C
  C61      1.0000 0.69480  0.88750  0.56510  Biso   1.000  C
  C62      1.0000 0.67940  0.88780  0.47000  Biso   1.000  C
  C63      1.0000 0.58280  0.86520  0.64780  Biso   1.000  C
  C64      1.0000 0.58370  0.84700  0.75260  Biso   1.000  C
  C65      1.0000 0.55260  0.95860  0.60710  Biso   1.000  C
  C66      1.0000 0.45090  0.48110  0.33320  Biso   1.000  C
  C67      1.0000 0.52281  0.46861  0.25888  Biso   1.000  C
  C68      1.0000 0.47331  0.38971  0.23338  Biso   1.000  C
  C69      1.0000 0.68791  0.60611  0.22418  Biso   1.000  C
  C70      1.0000 0.62861  0.62472  0.29439  Biso   1.000  C
  C71      1.0000 0.68830  0.71840  0.31010  Biso   1.000  C
  C72      1.0000 0.50230  0.56200  0.35590  Biso   1.000  C
  C73      1.0000 0.43880  0.58800  0.42360  Biso   1.000  C
  C74      1.0000 0.25990  0.56510  0.54740  Biso   1.000  C
  C75      1.0000 0.14940  0.47000  0.64220  Biso   1.000  C
  C76      1.0000 0.23060  0.64780  0.48700  Biso   1.000  C
  C77      1.0000 0.33630  0.75260  0.40040  Biso   1.000  C
  C78      1.0000 0.15970  0.60710  0.43430  Biso   1.000  C
  N7       1.0000 0.84369  0.20508  0.26461  Biso   1.000  N
  N8       1.0000 0.80680  0.48390  0.98480  Biso   1.000  N
  N9       1.0000 0.10830  0.26461  0.53031  Biso   1.000  N
  N10      1.0000 0.79160  0.98480  0.53130  Biso   1.000  N
  N11      1.0000 0.63861  0.53031  0.20508  Biso   1.000  N
  N12      1.0000 0.32290  0.53130  0.48390  Biso   1.000  N
  O13      1.0000 0.08470  0.41230  0.90000  Biso   1.000  O
  O14      1.0000 0.72020  0.38210  0.19920  Biso   1.000  O
  O15      1.0000 0.75720  0.63420  0.98060  Biso   1.000  O
  O16      1.0000 0.80580  0.71360  0.80950  Biso   1.000  O
  O17      1.0000 0.98470  0.90000  0.68770  Biso   1.000  O
  O18      1.0000 0.91940  0.19920  0.41870  Biso   1.000  O
  O19      1.0000 0.73780  0.98060  0.38520  Biso   1.000  O
  O20      1.0000 0.61530  0.80950  0.47690  Biso   1.000  O
  O21      1.0000 0.67240  0.68770  0.41230  Biso   1.000  O
  O22      1.0000 0.33810  0.41870  0.38210  Biso   1.000  O
  O23      1.0000 0.12300  0.38520  0.63420  Biso   1.000  O
  O24      1.0000 0.09220  0.47690  0.71360  Biso   1.000  O
