data_image0
_cell_length_a       9.00498
_cell_length_b       11.166
_cell_length_c       16.672
_cell_angle_alpha    108.447
_cell_angle_beta     90
_cell_angle_gamma    113.78

_symmetry_space_group_name_H-M    P 1
_symmetry_int_tables_number       1

loop_
  _symmetry_equiv_pos_as_xyz
  'x, y, z'

loop_
  _atom_site_label
  _atom_site_occupancy
  _atom_site_fract_x
  _atom_site_fract_y
  _atom_site_fract_z
  _atom_site_thermal_displace_type
  _atom_site_B_iso_or_equiv
  _atom_site_type_symbol
  Zn1      1.0000 0.14448  0.67838  0.73249  Biso   1.000  Zn
  Zn2      1.0000 0.46610  0.32162  0.76751  Biso   1.000  Zn
  Zn3      1.0000 0.85552  0.32162  0.26751  Biso   1.000  Zn
  Zn4      1.0000 0.53390  0.67838  0.23249  Biso   1.000  Zn
  Zn5      1.0000 0.24815  0.00000  0.75000  Biso   1.000  Zn
  Zn6      1.0000 0.75185  0.00000  0.25000  Biso   1.000  Zn
  H1       1.0000 0.93290  0.54400  0.46790  Biso   1.000  H
  H2       1.0000 0.74610  0.86200  0.42360  Biso   1.000  H
  H3       1.0000 0.89320  0.91240  0.55500  Biso   1.000  H
  H4       1.0000 0.79560  0.37580  0.11280  Biso   1.000  H
  H5       1.0000 0.60090  0.44960  0.12270  Biso   1.000  H
  H6       1.0000 0.40530  0.20300  0.10220  Biso   1.000  H
  H7       1.0000 0.48400  0.21400  0.19180  Biso   1.000  H
  H8       1.0000 0.37370  0.29540  0.18980  Biso   1.000  H
  H9       1.0000 0.33200  0.87000  0.81500  Biso   1.000  H
  H10      1.0000 0.38890  0.45600  0.03210  Biso   1.000  H
  H11      1.0000 0.88410  0.13800  0.07640  Biso   1.000  H
  H12      1.0000 0.98080  0.08760  0.94500  Biso   1.000  H
  H13      1.0000 0.41980  0.62420  0.38720  Biso   1.000  H
  H14      1.0000 0.15130  0.55040  0.37730  Biso   1.000  H
  H15      1.0000 0.20230  0.79700  0.39780  Biso   1.000  H
  H16      1.0000 0.27000  0.78600  0.30820  Biso   1.000  H
  H17      1.0000 0.07830  0.70460  0.31020  Biso   1.000  H
  H18      1.0000 0.46200  0.13000  0.68500  Biso   1.000  H
  H19      1.0000 0.06710  0.45600  0.53210  Biso   1.000  H
  H20      1.0000 0.25390  0.13800  0.57640  Biso   1.000  H
  H21      1.0000 0.10680  0.08760  0.44500  Biso   1.000  H
  H22      1.0000 0.20440  0.62420  0.88720  Biso   1.000  H
  H23      1.0000 0.39910  0.55040  0.87730  Biso   1.000  H
  H24      1.0000 0.59470  0.79700  0.89780  Biso   1.000  H
  H25      1.0000 0.51600  0.78600  0.80820  Biso   1.000  H
  H26      1.0000 0.62630  0.70460  0.81020  Biso   1.000  H
  H27      1.0000 0.66800  0.13000  0.18500  Biso   1.000  H
  H28      1.0000 0.61110  0.54400  0.96790  Biso   1.000  H
  H29      1.0000 0.11590  0.86200  0.92360  Biso   1.000  H
  H30      1.0000 0.01920  0.91240  0.05500  Biso   1.000  H
  H31      1.0000 0.58020  0.37580  0.61280  Biso   1.000  H
  H32      1.0000 0.84870  0.44960  0.62270  Biso   1.000  H
  H33      1.0000 0.79770  0.20300  0.60220  Biso   1.000  H
  H34      1.0000 0.73000  0.21400  0.69180  Biso   1.000  H
  H35      1.0000 0.92170  0.29540  0.68980  Biso   1.000  H
  H36      1.0000 0.53800  0.87000  0.31500  Biso   1.000  H
  C1       1.0000 0.89840  0.60900  0.45840  Biso   1.000  C
  C2       1.0000 0.02390  0.77060  0.60680  Biso   1.000  C
  C3       1.0000 0.92920  0.73560  0.52270  Biso   1.000  C
  C4       1.0000 0.78540  0.79920  0.43250  Biso   1.000  C
  C5       1.0000 0.81610  0.58240  0.38070  Biso   1.000  C
  C6       1.0000 0.69740  0.49900  0.24980  Biso   1.000  C
  C7       1.0000 0.75820  0.67400  0.36810  Biso   1.000  C
  C8       1.0000 0.87200  0.82780  0.50970  Biso   1.000  C
  C9       1.0000 0.61950  0.40220  0.16090  Biso   1.000  C
  C10      1.0000 0.45370  0.26460  0.16120  Biso   1.000  C
  C11      1.0000 0.28940  0.39100  0.04160  Biso   1.000  C
  C12      1.0000 0.25330  0.22940  0.89320  Biso   1.000  C
  C13      1.0000 0.19360  0.26440  0.97730  Biso   1.000  C
  C14      1.0000 0.98620  0.20080  0.06750  Biso   1.000  C
  C15      1.0000 0.23370  0.41760  0.11930  Biso   1.000  C
  C16      1.0000 0.19840  0.50100  0.25020  Biso   1.000  C
  C17      1.0000 0.08420  0.32600  0.13190  Biso   1.000  C
  C18      1.0000 0.04420  0.17220  0.99030  Biso   1.000  C
  C19      1.0000 0.21730  0.59780  0.33910  Biso   1.000  C
  C20      1.0000 0.18910  0.73540  0.33880  Biso   1.000  C
  C21      1.0000 0.10160  0.39100  0.54160  Biso   1.000  C
  C22      1.0000 0.97610  0.22940  0.39320  Biso   1.000  C
  C23      1.0000 0.07080  0.26440  0.47730  Biso   1.000  C
  C24      1.0000 0.21460  0.20080  0.56750  Biso   1.000  C
  C25      1.0000 0.18390  0.41760  0.61930  Biso   1.000  C
  C26      1.0000 0.30260  0.50100  0.75020  Biso   1.000  C
  C27      1.0000 0.24180  0.32600  0.63190  Biso   1.000  C
  C28      1.0000 0.12800  0.17220  0.49030  Biso   1.000  C
  C29      1.0000 0.38050  0.59780  0.83910  Biso   1.000  C
  C30      1.0000 0.54630  0.73540  0.83880  Biso   1.000  C
  C31      1.0000 0.71060  0.60900  0.95840  Biso   1.000  C
  C32      1.0000 0.74670  0.77060  0.10680  Biso   1.000  C
  C33      1.0000 0.80640  0.73560  0.02270  Biso   1.000  C
  C34      1.0000 0.01380  0.79920  0.93250  Biso   1.000  C
  C35      1.0000 0.76630  0.58240  0.88070  Biso   1.000  C
  C36      1.0000 0.80160  0.49900  0.74980  Biso   1.000  C
  C37      1.0000 0.91580  0.67400  0.86810  Biso   1.000  C
  C38      1.0000 0.95580  0.82780  0.00970  Biso   1.000  C
  C39      1.0000 0.78270  0.40220  0.66090  Biso   1.000  C
  C40      1.0000 0.81090  0.26460  0.66120  Biso   1.000  C
  N1       1.0000 0.77630  0.46980  0.30390  Biso   1.000  N
  N2       1.0000 0.67940  0.61800  0.28350  Biso   1.000  N
  N3       1.0000 0.30650  0.53020  0.19610  Biso   1.000  N
  N4       1.0000 0.06140  0.38200  0.21650  Biso   1.000  N
  N5       1.0000 0.22370  0.53020  0.69610  Biso   1.000  N
  N6       1.0000 0.32060  0.38200  0.71650  Biso   1.000  N
  N7       1.0000 0.69350  0.46980  0.80390  Biso   1.000  N
  N8       1.0000 0.93860  0.61800  0.78350  Biso   1.000  N
  O1       1.0000 0.05580  0.88940  0.66200  Biso   1.000  O
  O2       1.0000 0.30070  0.87060  0.78080  Biso   1.000  O
  O3       1.0000 0.07010  0.68520  0.61880  Biso   1.000  O
  O4       1.0000 0.71170  0.32620  0.12880  Biso   1.000  O
  O5       1.0000 0.16640  0.11060  0.83800  Biso   1.000  O
  O6       1.0000 0.43010  0.12940  0.71920  Biso   1.000  O
  O7       1.0000 0.38490  0.31480  0.88120  Biso   1.000  O
  O8       1.0000 0.38550  0.67380  0.37120  Biso   1.000  O
  O9       1.0000 0.94420  0.11060  0.33800  Biso   1.000  O
  O10      1.0000 0.69930  0.12940  0.21920  Biso   1.000  O
  O11      1.0000 0.92990  0.31480  0.38120  Biso   1.000  O
  O12      1.0000 0.28830  0.67380  0.87120  Biso   1.000  O
  O13      1.0000 0.83360  0.88940  0.16200  Biso   1.000  O
  O14      1.0000 0.56990  0.87060  0.28080  Biso   1.000  O
  O15      1.0000 0.61510  0.68520  0.11880  Biso   1.000  O
  O16      1.0000 0.61450  0.32620  0.62880  Biso   1.000  O
