data_image0
_cell_length_a       10.2652
_cell_length_b       17.5285
_cell_length_c       17.5285
_cell_angle_alpha    120
_cell_angle_beta     90
_cell_angle_gamma    90

_symmetry_space_group_name_H-M    P 1
_symmetry_int_tables_number       1

loop_
  _symmetry_equiv_pos_as_xyz
  'x, y, z'

loop_
  _atom_site_label
  _atom_site_occupancy
  _atom_site_fract_x
  _atom_site_fract_y
  _atom_site_fract_z
  _atom_site_thermal_displace_type
  _atom_site_B_iso_or_equiv
  _atom_site_type_symbol
  Zn1      1.0000 0.00685  0.46439  0.92459  Biso   1.000  Zn
  Zn2      1.0000 0.67352  0.46020  0.53561  Biso   1.000  Zn
  Zn3      1.0000 0.34018  0.07541  0.53980  Biso   1.000  Zn
  Zn4      1.0000 0.50685  0.53561  0.07541  Biso   1.000  Zn
  Zn5      1.0000 0.17352  0.53980  0.46439  Biso   1.000  Zn
  Zn6      1.0000 0.84018  0.92459  0.46020  Biso   1.000  Zn
  H1       1.0000 0.97490  0.42690  0.32190  Biso   1.000  H
  H2       1.0000 0.93050  0.38360  0.17870  Biso   1.000  H
  H3       1.0000 0.22640  0.53500  0.18190  Biso   1.000  H
  H4       1.0000 0.27220  0.56700  0.32220  Biso   1.000  H
  H5       1.0000 0.11090  0.39090  0.03050  Biso   1.000  H
  H6       1.0000 0.96140  0.39910  0.05130  Biso   1.000  H
  H7       1.0000 0.92520  0.56970  0.16530  Biso   1.000  H
  H8       1.0000 0.04270  0.68230  0.16220  Biso   1.000  H
  H9       1.0000 0.89450  0.69940  0.15500  Biso   1.000  H
  H10      1.0000 0.98260  0.65820  0.07070  Biso   1.000  H
  H11      1.0000 0.11420  0.53570  0.07290  Biso   1.000  H
  H12      1.0000 0.64157  0.89500  0.57310  Biso   1.000  H
  H13      1.0000 0.59717  0.79510  0.61640  Biso   1.000  H
  H14      1.0000 0.89307  0.64690  0.46500  Biso   1.000  H
  H15      1.0000 0.93887  0.75520  0.43300  Biso   1.000  H
  H16      1.0000 0.77757  0.63960  0.60910  Biso   1.000  H
  H17      1.0000 0.62807  0.65220  0.60090  Biso   1.000  H
  H18      1.0000 0.59187  0.59560  0.43030  Biso   1.000  H
  H19      1.0000 0.70937  0.47990  0.31770  Biso   1.000  H
  H20      1.0000 0.56117  0.45560  0.30060  Biso   1.000  H
  H21      1.0000 0.64927  0.41250  0.34180  Biso   1.000  H
  H22      1.0000 0.78087  0.53720  0.46430  Biso   1.000  H
  H23      1.0000 0.30823  0.67810  0.10500  Biso   1.000  H
  H24      1.0000 0.26383  0.82130  0.20490  Biso   1.000  H
  H25      1.0000 0.55973  0.81810  0.35310  Biso   1.000  H
  H26      1.0000 0.60553  0.67780  0.24480  Biso   1.000  H
  H27      1.0000 0.44423  0.96950  0.36040  Biso   1.000  H
  H28      1.0000 0.29473  0.94870  0.34780  Biso   1.000  H
  H29      1.0000 0.25853  0.83470  0.40440  Biso   1.000  H
  H30      1.0000 0.37603  0.83780  0.52010  Biso   1.000  H
  H31      1.0000 0.22783  0.84500  0.54440  Biso   1.000  H
  H32      1.0000 0.31593  0.92930  0.58750  Biso   1.000  H
  H33      1.0000 0.44753  0.92710  0.46280  Biso   1.000  H
  H34      1.0000 0.47490  0.57310  0.67810  Biso   1.000  H
  H35      1.0000 0.43050  0.61640  0.82130  Biso   1.000  H
  H36      1.0000 0.72640  0.46500  0.81810  Biso   1.000  H
  H37      1.0000 0.77220  0.43300  0.67780  Biso   1.000  H
  H38      1.0000 0.61090  0.60910  0.96950  Biso   1.000  H
  H39      1.0000 0.46140  0.60090  0.94870  Biso   1.000  H
  H40      1.0000 0.42520  0.43030  0.83470  Biso   1.000  H
  H41      1.0000 0.54270  0.31770  0.83780  Biso   1.000  H
  H42      1.0000 0.39450  0.30060  0.84500  Biso   1.000  H
  H43      1.0000 0.48260  0.34180  0.92930  Biso   1.000  H
  H44      1.0000 0.61420  0.46430  0.92710  Biso   1.000  H
  H45      1.0000 0.14157  0.10500  0.42690  Biso   1.000  H
  H46      1.0000 0.09717  0.20490  0.38360  Biso   1.000  H
  H47      1.0000 0.39307  0.35310  0.53500  Biso   1.000  H
  H48      1.0000 0.43887  0.24480  0.56700  Biso   1.000  H
  H49      1.0000 0.27757  0.36040  0.39090  Biso   1.000  H
  H50      1.0000 0.12807  0.34780  0.39910  Biso   1.000  H
  H51      1.0000 0.09187  0.40440  0.56970  Biso   1.000  H
  H52      1.0000 0.20937  0.52010  0.68230  Biso   1.000  H
  H53      1.0000 0.06117  0.54440  0.69940  Biso   1.000  H
  H54      1.0000 0.14927  0.58750  0.65820  Biso   1.000  H
  H55      1.0000 0.28087  0.46280  0.53570  Biso   1.000  H
  H56      1.0000 0.80823  0.32190  0.89500  Biso   1.000  H
  H57      1.0000 0.76383  0.17870  0.79510  Biso   1.000  H
  H58      1.0000 0.05973  0.18190  0.64690  Biso   1.000  H
  H59      1.0000 0.10553  0.32220  0.75520  Biso   1.000  H
  H60      1.0000 0.94423  0.03050  0.63960  Biso   1.000  H
  H61      1.0000 0.79473  0.05130  0.65220  Biso   1.000  H
  H62      1.0000 0.75853  0.16530  0.59560  Biso   1.000  H
  H63      1.0000 0.87603  0.16220  0.47990  Biso   1.000  H
  H64      1.0000 0.72783  0.15500  0.45560  Biso   1.000  H
  H65      1.0000 0.81593  0.07070  0.41250  Biso   1.000  H
  H66      1.0000 0.94753  0.07290  0.53720  Biso   1.000  H
  C1       1.0000 0.02740  0.44740  0.29270  Biso   1.000  C
  C2       1.0000 0.99910  0.42220  0.20730  Biso   1.000  C
  C3       1.0000 0.07340  0.45430  0.16300  Biso   1.000  C
  C4       1.0000 0.17580  0.51090  0.20870  Biso   1.000  C
  C5       1.0000 0.20140  0.53090  0.29320  Biso   1.000  C
  C6       1.0000 0.04380  0.43040  0.06880  Biso   1.000  C
  C7       1.0000 0.93410  0.56850  0.10900  Biso   1.000  C
  C8       1.0000 0.80510  0.53850  0.05760  Biso   1.000  C
  C9       1.0000 0.96640  0.66070  0.12580  Biso   1.000  C
  C10      1.0000 0.69407  0.84530  0.55260  Biso   1.000  C
  C11      1.0000 0.66577  0.78510  0.57780  Biso   1.000  C
  C12      1.0000 0.74007  0.70870  0.54570  Biso   1.000  C
  C13      1.0000 0.84247  0.69780  0.48910  Biso   1.000  C
  C14      1.0000 0.86807  0.76230  0.46910  Biso   1.000  C
  C15      1.0000 0.71047  0.63840  0.56960  Biso   1.000  C
  C16      1.0000 0.60077  0.54050  0.43150  Biso   1.000  C
  C17      1.0000 0.47177  0.51910  0.46150  Biso   1.000  C
  C18      1.0000 0.63307  0.46510  0.33930  Biso   1.000  C
  C19      1.0000 0.36073  0.70730  0.15470  Biso   1.000  C
  C20      1.0000 0.33243  0.79270  0.21490  Biso   1.000  C
  C21      1.0000 0.40673  0.83700  0.29130  Biso   1.000  C
  C22      1.0000 0.50913  0.79130  0.30220  Biso   1.000  C
  C23      1.0000 0.53473  0.70680  0.23770  Biso   1.000  C
  C24      1.0000 0.37713  0.93120  0.36160  Biso   1.000  C
  C25      1.0000 0.26743  0.89100  0.45950  Biso   1.000  C
  C26      1.0000 0.13843  0.94240  0.48090  Biso   1.000  C
  C27      1.0000 0.29973  0.87420  0.53490  Biso   1.000  C
  C28      1.0000 0.52740  0.55260  0.70730  Biso   1.000  C
  C29      1.0000 0.49910  0.57780  0.79270  Biso   1.000  C
  C30      1.0000 0.57340  0.54570  0.83700  Biso   1.000  C
  C31      1.0000 0.67580  0.48910  0.79130  Biso   1.000  C
  C32      1.0000 0.70140  0.46910  0.70680  Biso   1.000  C
  C33      1.0000 0.54380  0.56960  0.93120  Biso   1.000  C
  C34      1.0000 0.43410  0.43150  0.89100  Biso   1.000  C
  C35      1.0000 0.30510  0.46150  0.94240  Biso   1.000  C
  C36      1.0000 0.46640  0.33930  0.87420  Biso   1.000  C
  C37      1.0000 0.19407  0.15470  0.44740  Biso   1.000  C
  C38      1.0000 0.16577  0.21490  0.42220  Biso   1.000  C
  C39      1.0000 0.24007  0.29130  0.45430  Biso   1.000  C
  C40      1.0000 0.34247  0.30220  0.51090  Biso   1.000  C
  C41      1.0000 0.36807  0.23770  0.53090  Biso   1.000  C
  C42      1.0000 0.21047  0.36160  0.43040  Biso   1.000  C
  C43      1.0000 0.10077  0.45950  0.56850  Biso   1.000  C
  C44      1.0000 0.97177  0.48090  0.53850  Biso   1.000  C
  C45      1.0000 0.13307  0.53490  0.66070  Biso   1.000  C
  C46      1.0000 0.86073  0.29270  0.84530  Biso   1.000  C
  C47      1.0000 0.83243  0.20730  0.78510  Biso   1.000  C
  C48      1.0000 0.90673  0.16300  0.70870  Biso   1.000  C
  C49      1.0000 0.00913  0.20870  0.69780  Biso   1.000  C
  C50      1.0000 0.03473  0.29320  0.76230  Biso   1.000  C
  C51      1.0000 0.87713  0.06880  0.63840  Biso   1.000  C
  C52      1.0000 0.76743  0.10900  0.54050  Biso   1.000  C
  C53      1.0000 0.63843  0.05760  0.51910  Biso   1.000  C
  C54      1.0000 0.79973  0.12580  0.46510  Biso   1.000  C
  N1       1.0000 0.03650  0.50690  0.05660  Biso   1.000  N
  N2       1.0000 0.12760  0.50030  0.33640  Biso   1.000  N
  N3       1.0000 0.70317  0.54970  0.49310  Biso   1.000  N
  N4       1.0000 0.79427  0.83610  0.49970  Biso   1.000  N
  N5       1.0000 0.36983  0.94340  0.45030  Biso   1.000  N
  N6       1.0000 0.46093  0.66360  0.16390  Biso   1.000  N
  N7       1.0000 0.53650  0.49310  0.94340  Biso   1.000  N
  N8       1.0000 0.62760  0.49970  0.66360  Biso   1.000  N
  N9       1.0000 0.20317  0.45030  0.50690  Biso   1.000  N
  N10      1.0000 0.29427  0.16390  0.50030  Biso   1.000  N
  N11      1.0000 0.86983  0.05660  0.54970  Biso   1.000  N
  N12      1.0000 0.96093  0.33640  0.83610  Biso   1.000  N
  Cl1      1.0000 0.99700  0.55565  0.87054  Biso   1.000  Cl
  Cl2      1.0000 0.66367  0.31489  0.44435  Biso   1.000  Cl
  Cl3      1.0000 0.33033  0.12946  0.68511  Biso   1.000  Cl
  Cl4      1.0000 0.49700  0.44435  0.12946  Biso   1.000  Cl
  Cl5      1.0000 0.16367  0.68511  0.55565  Biso   1.000  Cl
  Cl6      1.0000 0.83033  0.87054  0.31489  Biso   1.000  Cl
  O1       1.0000 0.70400  0.56990  0.10390  Biso   1.000  O
  O2       1.0000 0.80940  0.48740  0.97710  Biso   1.000  O
  O3       1.0000 0.37067  0.53400  0.43010  Biso   1.000  O
  O4       1.0000 0.47607  0.48970  0.51260  Biso   1.000  O
  O5       1.0000 0.03733  0.89610  0.46600  Biso   1.000  O
  O6       1.0000 0.14273  0.02290  0.51030  Biso   1.000  O
  O7       1.0000 0.20400  0.43010  0.89610  Biso   1.000  O
  O8       1.0000 0.30940  0.51260  0.02290  Biso   1.000  O
  O9       1.0000 0.87067  0.46600  0.56990  Biso   1.000  O
  O10      1.0000 0.97607  0.51030  0.48740  Biso   1.000  O
  O11      1.0000 0.53733  0.10390  0.53400  Biso   1.000  O
  O12      1.0000 0.64273  0.97710  0.48970  Biso   1.000  O
