data_image0
_cell_length_a       10.1716
_cell_length_b       17.5911
_cell_length_c       17.5911
_cell_angle_alpha    120
_cell_angle_beta     90
_cell_angle_gamma    90

_symmetry_space_group_name_H-M    P 1
_symmetry_int_tables_number       1

loop_
  _symmetry_equiv_pos_as_xyz
  'x, y, z'

loop_
  _atom_site_label
  _atom_site_occupancy
  _atom_site_fract_x
  _atom_site_fract_y
  _atom_site_fract_z
  _atom_site_thermal_displace_type
  _atom_site_B_iso_or_equiv
  _atom_site_type_symbol
  Zn1      1.0000 0.86909  0.54333  0.46797  Biso   1.000  Zn
  Zn2      1.0000 0.53576  0.92464  0.45667  Biso   1.000  Zn
  Zn3      1.0000 0.20242  0.53203  0.07536  Biso   1.000  Zn
  Zn4      1.0000 0.36909  0.45667  0.53203  Biso   1.000  Zn
  Zn5      1.0000 0.03576  0.07536  0.54333  Biso   1.000  Zn
  Zn6      1.0000 0.70242  0.46797  0.92464  Biso   1.000  Zn
  H1       1.0000 0.58520  0.47720  0.77890  Biso   1.000  H
  H2       1.0000 0.63170  0.52290  0.67820  Biso   1.000  H
  H3       1.0000 0.97990  0.61010  0.79480  Biso   1.000  H
  H4       1.0000 0.92770  0.56250  0.89010  Biso   1.000  H
  H5       1.0000 0.79140  0.63380  0.65300  Biso   1.000  H
  H6       1.0000 0.93950  0.61480  0.66290  Biso   1.000  H
  H7       1.0000 0.96540  0.45190  0.61340  Biso   1.000  H
  H8       1.0000 0.79850  0.38210  0.23880  Biso   1.000  H
  H9       1.0000 0.80280  0.34920  0.50800  Biso   1.000  H
  H10      1.0000 0.94210  0.31180  0.50930  Biso   1.000  H
  H11      1.0000 0.90730  0.33530  0.43670  Biso   1.000  H
  H12      1.0000 0.76550  0.48550  0.55840  Biso   1.000  H
  H13      1.0000 0.25187  0.30170  0.52280  Biso   1.000  H
  H14      1.0000 0.29837  0.15530  0.47710  Biso   1.000  H
  H15      1.0000 0.64657  0.18470  0.38990  Biso   1.000  H
  H16      1.0000 0.59437  0.32760  0.43750  Biso   1.000  H
  H17      1.0000 0.45807  0.01920  0.36620  Biso   1.000  H
  H18      1.0000 0.60617  0.04810  0.38520  Biso   1.000  H
  H19      1.0000 0.63207  0.16150  0.54810  Biso   1.000  H
  H20      1.0000 0.46517  0.85670  0.61790  Biso   1.000  H
  H21      1.0000 0.46947  0.15880  0.65080  Biso   1.000  H
  H22      1.0000 0.60877  0.19750  0.68820  Biso   1.000  H
  H23      1.0000 0.57397  0.10140  0.66470  Biso   1.000  H
  H24      1.0000 0.43217  0.07290  0.51450  Biso   1.000  H
  H25      1.0000 0.91853  0.22110  0.69830  Biso   1.000  H
  H26      1.0000 0.96503  0.32180  0.84470  Biso   1.000  H
  H27      1.0000 0.31323  0.20520  0.81530  Biso   1.000  H
  H28      1.0000 0.26103  0.10990  0.67240  Biso   1.000  H
  H29      1.0000 0.12473  0.34700  0.98080  Biso   1.000  H
  H30      1.0000 0.27283  0.33710  0.95190  Biso   1.000  H
  H31      1.0000 0.29873  0.38660  0.83850  Biso   1.000  H
  H32      1.0000 0.13183  0.76120  0.14330  Biso   1.000  H
  H33      1.0000 0.13613  0.49200  0.84120  Biso   1.000  H
  H34      1.0000 0.27543  0.49070  0.80250  Biso   1.000  H
  H35      1.0000 0.24063  0.56330  0.89860  Biso   1.000  H
  H36      1.0000 0.09883  0.44160  0.92710  Biso   1.000  H
  H37      1.0000 0.08520  0.52280  0.22110  Biso   1.000  H
  H38      1.0000 0.13170  0.47710  0.32180  Biso   1.000  H
  H39      1.0000 0.47990  0.38990  0.20520  Biso   1.000  H
  H40      1.0000 0.42770  0.43750  0.10990  Biso   1.000  H
  H41      1.0000 0.29140  0.36620  0.34700  Biso   1.000  H
  H42      1.0000 0.43950  0.38520  0.33710  Biso   1.000  H
  H43      1.0000 0.46540  0.54810  0.38660  Biso   1.000  H
  H44      1.0000 0.29850  0.61790  0.76120  Biso   1.000  H
  H45      1.0000 0.30280  0.65080  0.49200  Biso   1.000  H
  H46      1.0000 0.44210  0.68820  0.49070  Biso   1.000  H
  H47      1.0000 0.40730  0.66470  0.56330  Biso   1.000  H
  H48      1.0000 0.26550  0.51450  0.44160  Biso   1.000  H
  H49      1.0000 0.75187  0.69830  0.47720  Biso   1.000  H
  H50      1.0000 0.79837  0.84470  0.52290  Biso   1.000  H
  H51      1.0000 0.14657  0.81530  0.61010  Biso   1.000  H
  H52      1.0000 0.09437  0.67240  0.56250  Biso   1.000  H
  H53      1.0000 0.95807  0.98080  0.63380  Biso   1.000  H
  H54      1.0000 0.10617  0.95190  0.61480  Biso   1.000  H
  H55      1.0000 0.13207  0.83850  0.45190  Biso   1.000  H
  H56      1.0000 0.96517  0.14330  0.38210  Biso   1.000  H
  H57      1.0000 0.96947  0.84120  0.34920  Biso   1.000  H
  H58      1.0000 0.10877  0.80250  0.31180  Biso   1.000  H
  H59      1.0000 0.07397  0.89860  0.33530  Biso   1.000  H
  H60      1.0000 0.93217  0.92710  0.48550  Biso   1.000  H
  H61      1.0000 0.41853  0.77890  0.30170  Biso   1.000  H
  H62      1.0000 0.46503  0.67820  0.15530  Biso   1.000  H
  H63      1.0000 0.81323  0.79480  0.18470  Biso   1.000  H
  H64      1.0000 0.76103  0.89010  0.32760  Biso   1.000  H
  H65      1.0000 0.62473  0.65300  0.01920  Biso   1.000  H
  H66      1.0000 0.77283  0.66290  0.04810  Biso   1.000  H
  H67      1.0000 0.79873  0.61340  0.16150  Biso   1.000  H
  H68      1.0000 0.63183  0.23880  0.85670  Biso   1.000  H
  H69      1.0000 0.63613  0.50800  0.15880  Biso   1.000  H
  H70      1.0000 0.77543  0.50930  0.19750  Biso   1.000  H
  H71      1.0000 0.74063  0.43670  0.10140  Biso   1.000  H
  H72      1.0000 0.59883  0.55840  0.07290  Biso   1.000  H
  C1       1.0000 0.66560  0.50370  0.78180  Biso   1.000  C
  C2       1.0000 0.69390  0.53090  0.72030  Biso   1.000  C
  C3       1.0000 0.81380  0.56960  0.72250  Biso   1.000  C
  C4       1.0000 0.89980  0.58230  0.78920  Biso   1.000  C
  C5       1.0000 0.86730  0.55430  0.84690  Biso   1.000  C
  C6       1.0000 0.85150  0.59040  0.65190  Biso   1.000  C
  C7       1.0000 0.94480  0.44370  0.55540  Biso   1.000  C
  C8       1.0000 0.06940  0.46000  0.51590  Biso   1.000  C
  C9       1.0000 0.80050  0.41110  0.29990  Biso   1.000  C
  C10      1.0000 0.89470  0.35170  0.49710  Biso   1.000  C
  C11      1.0000 0.33227  0.27810  0.49630  Biso   1.000  C
  C12      1.0000 0.36057  0.18940  0.46910  Biso   1.000  C
  C13      1.0000 0.48047  0.15290  0.43040  Biso   1.000  C
  C14      1.0000 0.56647  0.20690  0.41770  Biso   1.000  C
  C15      1.0000 0.53397  0.29260  0.44570  Biso   1.000  C
  C16      1.0000 0.51817  0.06150  0.40960  Biso   1.000  C
  C17      1.0000 0.61147  0.11170  0.55630  Biso   1.000  C
  C18      1.0000 0.73607  0.05590  0.54000  Biso   1.000  C
  C19      1.0000 0.46717  0.88880  0.58890  Biso   1.000  C
  C20      1.0000 0.56137  0.14540  0.64830  Biso   1.000  C
  C21      1.0000 0.99893  0.21820  0.72190  Biso   1.000  C
  C22      1.0000 0.02723  0.27970  0.81060  Biso   1.000  C
  C23      1.0000 0.14713  0.27750  0.84710  Biso   1.000  C
  C24      1.0000 0.23313  0.21080  0.79310  Biso   1.000  C
  C25      1.0000 0.20063  0.15310  0.70740  Biso   1.000  C
  C26      1.0000 0.18483  0.34810  0.93850  Biso   1.000  C
  C27      1.0000 0.27813  0.44460  0.88830  Biso   1.000  C
  C28      1.0000 0.40273  0.48410  0.94410  Biso   1.000  C
  C29      1.0000 0.13383  0.70010  0.11120  Biso   1.000  C
  C30      1.0000 0.22803  0.50290  0.85460  Biso   1.000  C
  C31      1.0000 0.16560  0.49630  0.21820  Biso   1.000  C
  C32      1.0000 0.19390  0.46910  0.27970  Biso   1.000  C
  C33      1.0000 0.31380  0.43040  0.27750  Biso   1.000  C
  C34      1.0000 0.39980  0.41770  0.21080  Biso   1.000  C
  C35      1.0000 0.36730  0.44570  0.15310  Biso   1.000  C
  C36      1.0000 0.35150  0.40960  0.34810  Biso   1.000  C
  C37      1.0000 0.44480  0.55630  0.44460  Biso   1.000  C
  C38      1.0000 0.56940  0.54000  0.48410  Biso   1.000  C
  C39      1.0000 0.30050  0.58890  0.70010  Biso   1.000  C
  C40      1.0000 0.39470  0.64830  0.50290  Biso   1.000  C
  C41      1.0000 0.83227  0.72190  0.50370  Biso   1.000  C
  C42      1.0000 0.86057  0.81060  0.53090  Biso   1.000  C
  C43      1.0000 0.98047  0.84710  0.56960  Biso   1.000  C
  C44      1.0000 0.06647  0.79310  0.58230  Biso   1.000  C
  C45      1.0000 0.03397  0.70740  0.55430  Biso   1.000  C
  C46      1.0000 0.01817  0.93850  0.59040  Biso   1.000  C
  C47      1.0000 0.11147  0.88830  0.44370  Biso   1.000  C
  C48      1.0000 0.23607  0.94410  0.46000  Biso   1.000  C
  C49      1.0000 0.96717  0.11120  0.41110  Biso   1.000  C
  C50      1.0000 0.06137  0.85460  0.35170  Biso   1.000  C
  C51      1.0000 0.49893  0.78180  0.27810  Biso   1.000  C
  C52      1.0000 0.52723  0.72030  0.18940  Biso   1.000  C
  C53      1.0000 0.64713  0.72250  0.15290  Biso   1.000  C
  C54      1.0000 0.73313  0.78920  0.20690  Biso   1.000  C
  C55      1.0000 0.70063  0.84690  0.29260  Biso   1.000  C
  C56      1.0000 0.68483  0.65190  0.06150  Biso   1.000  C
  C57      1.0000 0.77813  0.55540  0.11170  Biso   1.000  C
  C58      1.0000 0.90273  0.51590  0.05590  Biso   1.000  C
  C59      1.0000 0.63383  0.29990  0.88880  Biso   1.000  C
  C60      1.0000 0.72803  0.49710  0.14540  Biso   1.000  C
  N1       1.0000 0.84670  0.50980  0.56480  Biso   1.000  N
  N2       1.0000 0.75170  0.51520  0.84370  Biso   1.000  N
  N3       1.0000 0.51337  0.05500  0.49020  Biso   1.000  N
  N4       1.0000 0.41837  0.32850  0.48480  Biso   1.000  N
  N5       1.0000 0.18003  0.43520  0.94500  Biso   1.000  N
  N6       1.0000 0.08503  0.15630  0.67150  Biso   1.000  N
  N7       1.0000 0.34670  0.49020  0.43520  Biso   1.000  N
  N8       1.0000 0.25170  0.48480  0.15630  Biso   1.000  N
  N9       1.0000 0.01337  0.94500  0.50980  Biso   1.000  N
  N10      1.0000 0.91837  0.67150  0.51520  Biso   1.000  N
  N11      1.0000 0.68003  0.56480  0.05500  Biso   1.000  N
  N12      1.0000 0.58503  0.84370  0.32850  Biso   1.000  N
  O1       1.0000 0.17270  0.42340  0.52540  Biso   1.000  O
  O2       1.0000 0.06330  0.50320  0.47780  Biso   1.000  O
  O3       1.0000 0.87280  0.48110  0.33970  Biso   1.000  O
  O4       1.0000 0.73310  0.37920  0.33720  Biso   1.000  O
  O5       1.0000 0.83937  0.10200  0.57660  Biso   1.000  O
  O6       1.0000 0.72997  0.97460  0.49680  Biso   1.000  O
  O7       1.0000 0.53947  0.85860  0.51890  Biso   1.000  O
  O8       1.0000 0.39977  0.95800  0.62080  Biso   1.000  O
  O9       1.0000 0.50603  0.47460  0.89800  Biso   1.000  O
  O10      1.0000 0.39663  0.52220  0.02540  Biso   1.000  O
  O11      1.0000 0.20613  0.66030  0.14140  Biso   1.000  O
  O12      1.0000 0.06643  0.66280  0.04200  Biso   1.000  O
  O13      1.0000 0.67270  0.57660  0.47460  Biso   1.000  O
  O14      1.0000 0.56330  0.49680  0.52220  Biso   1.000  O
  O15      1.0000 0.37280  0.51890  0.66030  Biso   1.000  O
  O16      1.0000 0.23310  0.62080  0.66280  Biso   1.000  O
  O17      1.0000 0.33937  0.89800  0.42340  Biso   1.000  O
  O18      1.0000 0.22997  0.02540  0.50320  Biso   1.000  O
  O19      1.0000 0.03947  0.14140  0.48110  Biso   1.000  O
  O20      1.0000 0.89977  0.04200  0.37920  Biso   1.000  O
  O21      1.0000 0.00603  0.52540  0.10200  Biso   1.000  O
  O22      1.0000 0.89663  0.47780  0.97460  Biso   1.000  O
  O23      1.0000 0.70613  0.33970  0.85860  Biso   1.000  O
  O24      1.0000 0.56643  0.33720  0.95800  Biso   1.000  O
