data_image0
_cell_length_a       10.1716
_cell_length_b       17.744
_cell_length_c       17.744
_cell_angle_alpha    120
_cell_angle_beta     90
_cell_angle_gamma    90

_symmetry_space_group_name_H-M    P 1
_symmetry_int_tables_number       1

loop_
  _symmetry_equiv_pos_as_xyz
  'x, y, z'

loop_
  _atom_site_label
  _atom_site_occupancy
  _atom_site_fract_x
  _atom_site_fract_y
  _atom_site_fract_z
  _atom_site_thermal_displace_type
  _atom_site_B_iso_or_equiv
  _atom_site_type_symbol
  Zn1      1.0000 0.86811  0.53163  0.45610  Biso   1.000  Zn
  Zn2      1.0000 0.53478  0.92447  0.46837  Biso   1.000  Zn
  Zn3      1.0000 0.20144  0.54390  0.07553  Biso   1.000  Zn
  Zn4      1.0000 0.36811  0.46837  0.54390  Biso   1.000  Zn
  Zn5      1.0000 0.03478  0.07553  0.53163  Biso   1.000  Zn
  Zn6      1.0000 0.70144  0.45610  0.92447  Biso   1.000  Zn
  H1       1.0000 0.96940  0.44950  0.52230  Biso   1.000  H
  H2       1.0000 0.94410  0.35070  0.37900  Biso   1.000  H
  H3       1.0000 0.79560  0.34370  0.39830  Biso   1.000  H
  H4       1.0000 0.77140  0.40440  0.56440  Biso   1.000  H
  H5       1.0000 0.81370  0.11050  0.43980  Biso   1.000  H
  H6       1.0000 0.09200  0.33320  0.49580  Biso   1.000  H
  H7       1.0000 0.75300  0.21030  0.39900  Biso   1.000  H
  H8       1.0000 0.14420  0.23010  0.53490  Biso   1.000  H
  H9       1.0000 0.92190  0.50560  0.66660  Biso   1.000  H
  H10      1.0000 0.77730  0.53530  0.69790  Biso   1.000  H
  H11      1.0000 0.85800  0.58010  0.65580  Biso   1.000  H
  H12      1.0000 0.63607  0.07280  0.55050  Biso   1.000  H
  H13      1.0000 0.61077  0.02830  0.64930  Biso   1.000  H
  H14      1.0000 0.46227  0.05460  0.65630  Biso   1.000  H
  H15      1.0000 0.43807  0.16000  0.59560  Biso   1.000  H
  H16      1.0000 0.48037  0.32930  0.88950  Biso   1.000  H
  H17      1.0000 0.75867  0.16260  0.66680  Biso   1.000  H
  H18      1.0000 0.41967  0.18870  0.78970  Biso   1.000  H
  H19      1.0000 0.81087  0.30480  0.76990  Biso   1.000  H
  H20      1.0000 0.58857  0.16100  0.49440  Biso   1.000  H
  H21      1.0000 0.44397  0.16260  0.46470  Biso   1.000  H
  H22      1.0000 0.52467  0.07570  0.41990  Biso   1.000  H
  H23      1.0000 0.30273  0.47770  0.92720  Biso   1.000  H
  H24      1.0000 0.27743  0.62100  0.97170  Biso   1.000  H
  H25      1.0000 0.12893  0.60170  0.94540  Biso   1.000  H
  H26      1.0000 0.10473  0.43560  0.84000  Biso   1.000  H
  H27      1.0000 0.14703  0.56020  0.67070  Biso   1.000  H
  H28      1.0000 0.42533  0.50420  0.83740  Biso   1.000  H
  H29      1.0000 0.08633  0.60100  0.81130  Biso   1.000  H
  H30      1.0000 0.47753  0.46510  0.69520  Biso   1.000  H
  H31      1.0000 0.25523  0.33340  0.83900  Biso   1.000  H
  H32      1.0000 0.11063  0.30210  0.83740  Biso   1.000  H
  H33      1.0000 0.19133  0.34420  0.92430  Biso   1.000  H
  H34      1.0000 0.46940  0.55050  0.47770  Biso   1.000  H
  H35      1.0000 0.44410  0.64930  0.62100  Biso   1.000  H
  H36      1.0000 0.29560  0.65630  0.60170  Biso   1.000  H
  H37      1.0000 0.27140  0.59560  0.43560  Biso   1.000  H
  H38      1.0000 0.31370  0.88950  0.56020  Biso   1.000  H
  H39      1.0000 0.59200  0.66680  0.50420  Biso   1.000  H
  H40      1.0000 0.25300  0.78970  0.60100  Biso   1.000  H
  H41      1.0000 0.64420  0.76990  0.46510  Biso   1.000  H
  H42      1.0000 0.42190  0.49440  0.33340  Biso   1.000  H
  H43      1.0000 0.27730  0.46470  0.30210  Biso   1.000  H
  H44      1.0000 0.35800  0.41990  0.34420  Biso   1.000  H
  H45      1.0000 0.13607  0.92720  0.44950  Biso   1.000  H
  H46      1.0000 0.11077  0.97170  0.35070  Biso   1.000  H
  H47      1.0000 0.96227  0.94540  0.34370  Biso   1.000  H
  H48      1.0000 0.93807  0.84000  0.40440  Biso   1.000  H
  H49      1.0000 0.98037  0.67070  0.11050  Biso   1.000  H
  H50      1.0000 0.25867  0.83740  0.33320  Biso   1.000  H
  H51      1.0000 0.91967  0.81130  0.21030  Biso   1.000  H
  H52      1.0000 0.31087  0.69520  0.23010  Biso   1.000  H
  H53      1.0000 0.08857  0.83900  0.50560  Biso   1.000  H
  H54      1.0000 0.94397  0.83740  0.53530  Biso   1.000  H
  H55      1.0000 0.02467  0.92430  0.58010  Biso   1.000  H
  H56      1.0000 0.80273  0.52230  0.07280  Biso   1.000  H
  H57      1.0000 0.77743  0.37900  0.02830  Biso   1.000  H
  H58      1.0000 0.62893  0.39830  0.05460  Biso   1.000  H
  H59      1.0000 0.60473  0.56440  0.16000  Biso   1.000  H
  H60      1.0000 0.64703  0.43980  0.32930  Biso   1.000  H
  H61      1.0000 0.92533  0.49580  0.16260  Biso   1.000  H
  H62      1.0000 0.58633  0.39900  0.18870  Biso   1.000  H
  H63      1.0000 0.97753  0.53490  0.30480  Biso   1.000  H
  H64      1.0000 0.75523  0.66660  0.16100  Biso   1.000  H
  H65      1.0000 0.61063  0.69790  0.16260  Biso   1.000  H
  H66      1.0000 0.69133  0.65580  0.07570  Biso   1.000  H
  C1       1.0000 0.91740  0.28500  0.44500  Biso   1.000  C
  C2       1.0000 0.66410  0.49230  0.54460  Biso   1.000  C
  C3       1.0000 0.88340  0.35450  0.42300  Biso   1.000  C
  C4       1.0000 0.79040  0.45870  0.56480  Biso   1.000  C
  C5       1.0000 0.87010  0.15640  0.45190  Biso   1.000  C
  C6       1.0000 0.03280  0.28880  0.48430  Biso   1.000  C
  C7       1.0000 0.83280  0.21610  0.42700  Biso   1.000  C
  C8       1.0000 0.06430  0.22640  0.50770  Biso   1.000  C
  C9       1.0000 0.84170  0.52620  0.65460  Biso   1.000  C
  C10      1.0000 0.58407  0.16000  0.71500  Biso   1.000  C
  C11      1.0000 0.33077  0.05230  0.50770  Biso   1.000  C
  C12      1.0000 0.55007  0.06850  0.64550  Biso   1.000  C
  C13      1.0000 0.45707  0.10610  0.54130  Biso   1.000  C
  C14      1.0000 0.53677  0.29550  0.84360  Biso   1.000  C
  C15      1.0000 0.69947  0.19550  0.71120  Biso   1.000  C
  C16      1.0000 0.49947  0.21090  0.78390  Biso   1.000  C
  C17      1.0000 0.73097  0.28130  0.77360  Biso   1.000  C
  C18      1.0000 0.50837  0.12840  0.47380  Biso   1.000  C
  C19      1.0000 0.25073  0.55500  0.84000  Biso   1.000  C
  C20      1.0000 0.99743  0.45540  0.94770  Biso   1.000  C
  C21      1.0000 0.21673  0.57700  0.93150  Biso   1.000  C
  C22      1.0000 0.12373  0.43520  0.89390  Biso   1.000  C
  C23      1.0000 0.20343  0.54810  0.70450  Biso   1.000  C
  C24      1.0000 0.36613  0.51570  0.80450  Biso   1.000  C
  C25      1.0000 0.16613  0.57300  0.78910  Biso   1.000  C
  C26      1.0000 0.39763  0.49230  0.71870  Biso   1.000  C
  C27      1.0000 0.17503  0.34540  0.87160  Biso   1.000  C
  C28      1.0000 0.41740  0.71500  0.55500  Biso   1.000  C
  C29      1.0000 0.16410  0.50770  0.45540  Biso   1.000  C
  C30      1.0000 0.38340  0.64550  0.57700  Biso   1.000  C
  C31      1.0000 0.29040  0.54130  0.43520  Biso   1.000  C
  C32      1.0000 0.37010  0.84360  0.54810  Biso   1.000  C
  C33      1.0000 0.53280  0.71120  0.51570  Biso   1.000  C
  C34      1.0000 0.33280  0.78390  0.57300  Biso   1.000  C
  C35      1.0000 0.56430  0.77360  0.49230  Biso   1.000  C
  C36      1.0000 0.34170  0.47380  0.34540  Biso   1.000  C
  C37      1.0000 0.08407  0.84000  0.28500  Biso   1.000  C
  C38      1.0000 0.83077  0.94770  0.49230  Biso   1.000  C
  C39      1.0000 0.05007  0.93150  0.35450  Biso   1.000  C
  C40      1.0000 0.95707  0.89390  0.45870  Biso   1.000  C
  C41      1.0000 0.03677  0.70450  0.15640  Biso   1.000  C
  C42      1.0000 0.19947  0.80450  0.28880  Biso   1.000  C
  C43      1.0000 0.99947  0.78910  0.21610  Biso   1.000  C
  C44      1.0000 0.23097  0.71870  0.22640  Biso   1.000  C
  C45      1.0000 0.00837  0.87160  0.52620  Biso   1.000  C
  C46      1.0000 0.75073  0.44500  0.16000  Biso   1.000  C
  C47      1.0000 0.49743  0.54460  0.05230  Biso   1.000  C
  C48      1.0000 0.71673  0.42300  0.06850  Biso   1.000  C
  C49      1.0000 0.62373  0.56480  0.10610  Biso   1.000  C
  C50      1.0000 0.70343  0.45190  0.29550  Biso   1.000  C
  C51      1.0000 0.86613  0.48430  0.19550  Biso   1.000  C
  C52      1.0000 0.66613  0.42700  0.21090  Biso   1.000  C
  C53      1.0000 0.89763  0.50770  0.28130  Biso   1.000  C
  C54      1.0000 0.67503  0.65460  0.12840  Biso   1.000  C
  Br1      1.0000 0.89847  0.68141  0.55141  Biso   1.000  Br
  Br2      1.0000 0.56514  0.87000  0.31859  Biso   1.000  Br
  Br3      1.0000 0.23180  0.44859  0.13000  Biso   1.000  Br
  Br4      1.0000 0.39847  0.31859  0.44859  Biso   1.000  Br
  Br5      1.0000 0.06514  0.13000  0.68141  Biso   1.000  Br
  Br6      1.0000 0.73180  0.55141  0.87000  Biso   1.000  Br
  N1       1.0000 0.88840  0.44190  0.49770  Biso   1.000  N
  N2       1.0000 0.98200  0.16200  0.49190  Biso   1.000  N
  N3       1.0000 0.55507  0.05580  0.55810  Biso   1.000  N
  N4       1.0000 0.64867  0.32990  0.83800  Biso   1.000  N
  N5       1.0000 0.22173  0.50230  0.94420  Biso   1.000  N
  N6       1.0000 0.31533  0.50810  0.67010  Biso   1.000  N
  N7       1.0000 0.38840  0.55810  0.50230  Biso   1.000  N
  N8       1.0000 0.48200  0.83800  0.50810  Biso   1.000  N
  N9       1.0000 0.05507  0.94420  0.44190  Biso   1.000  N
  N10      1.0000 0.14867  0.67010  0.16200  Biso   1.000  N
  N11      1.0000 0.72173  0.49770  0.05580  Biso   1.000  N
  N12      1.0000 0.81533  0.49190  0.32990  Biso   1.000  N
  O1       1.0000 0.66820  0.51690  0.48957  Biso   1.000  O
  O2       1.0000 0.56430  0.49450  0.58780  Biso   1.000  O
  O3       1.0000 0.33487  0.97267  0.48310  Biso   1.000  O
  O4       1.0000 0.23097  0.09330  0.50550  Biso   1.000  O
  O5       1.0000 0.00153  0.51043  0.02733  Biso   1.000  O
  O6       1.0000 0.89763  0.41220  0.90670  Biso   1.000  O
  O7       1.0000 0.16820  0.48310  0.51043  Biso   1.000  O
  O8       1.0000 0.06430  0.50550  0.41220  Biso   1.000  O
  O9       1.0000 0.83487  0.02733  0.51690  Biso   1.000  O
  O10      1.0000 0.73097  0.90670  0.49450  Biso   1.000  O
  O11      1.0000 0.50153  0.48957  0.97267  Biso   1.000  O
  O12      1.0000 0.39763  0.58780  0.09330  Biso   1.000  O
