data_image0
_cell_length_a       10.1716
_cell_length_b       17.5911
_cell_length_c       17.5911
_cell_angle_alpha    120
_cell_angle_beta     90
_cell_angle_gamma    90

_symmetry_space_group_name_H-M    P 1
_symmetry_int_tables_number       1

loop_
  _symmetry_equiv_pos_as_xyz
  'x, y, z'

loop_
  _atom_site_label
  _atom_site_occupancy
  _atom_site_fract_x
  _atom_site_fract_y
  _atom_site_fract_z
  _atom_site_thermal_displace_type
  _atom_site_B_iso_or_equiv
  _atom_site_type_symbol
  Zn1      1.0000 0.86646  0.45663  0.53194  Biso   1.000  Zn
  Zn2      1.0000 0.53313  0.07531  0.54337  Biso   1.000  Zn
  Zn3      1.0000 0.19979  0.46806  0.92469  Biso   1.000  Zn
  Zn4      1.0000 0.36646  0.54337  0.46806  Biso   1.000  Zn
  Zn5      1.0000 0.03313  0.92469  0.45663  Biso   1.000  Zn
  Zn6      1.0000 0.69979  0.53194  0.07531  Biso   1.000  Zn
  H1       1.0000 0.58320  0.52530  0.22350  Biso   1.000  H
  H2       1.0000 0.92670  0.43820  0.11070  Biso   1.000  H
  H3       1.0000 0.78830  0.36570  0.34630  Biso   1.000  H
  H4       1.0000 0.93660  0.38440  0.33650  Biso   1.000  H
  H5       1.0000 0.96250  0.54850  0.38720  Biso   1.000  H
  H6       1.0000 0.97620  0.38970  0.20560  Biso   1.000  H
  H7       1.0000 0.62840  0.47230  0.31920  Biso   1.000  H
  H8       1.0000 0.80030  0.65040  0.49060  Biso   1.000  H
  H9       1.0000 0.94040  0.68810  0.49180  Biso   1.000  H
  H10      1.0000 0.90180  0.66390  0.56330  Biso   1.000  H
  H11      1.0000 0.79470  0.61880  0.76200  Biso   1.000  H
  H12      1.0000 0.24987  0.69820  0.47470  Biso   1.000  H
  H13      1.0000 0.59337  0.67250  0.56180  Biso   1.000  H
  H14      1.0000 0.45497  0.98060  0.63430  Biso   1.000  H
  H15      1.0000 0.60327  0.95210  0.61560  Biso   1.000  H
  H16      1.0000 0.62917  0.83870  0.45150  Biso   1.000  H
  H17      1.0000 0.64287  0.81590  0.61030  Biso   1.000  H
  H18      1.0000 0.29507  0.84690  0.52770  Biso   1.000  H
  H19      1.0000 0.46697  0.84020  0.34960  Biso   1.000  H
  H20      1.0000 0.60707  0.80370  0.31190  Biso   1.000  H
  H21      1.0000 0.56847  0.89940  0.33610  Biso   1.000  H
  H22      1.0000 0.46137  0.14320  0.38120  Biso   1.000  H
  H23      1.0000 0.91653  0.77650  0.30180  Biso   1.000  H
  H24      1.0000 0.26003  0.88930  0.32750  Biso   1.000  H
  H25      1.0000 0.12163  0.65370  0.01940  Biso   1.000  H
  H26      1.0000 0.26993  0.66350  0.04790  Biso   1.000  H
  H27      1.0000 0.29583  0.61280  0.16130  Biso   1.000  H
  H28      1.0000 0.30953  0.79440  0.18410  Biso   1.000  H
  H29      1.0000 0.96173  0.68080  0.15310  Biso   1.000  H
  H30      1.0000 0.13363  0.50940  0.15980  Biso   1.000  H
  H31      1.0000 0.27373  0.50820  0.19630  Biso   1.000  H
  H32      1.0000 0.23513  0.43670  0.10060  Biso   1.000  H
  H33      1.0000 0.12803  0.23800  0.85680  Biso   1.000  H
  H34      1.0000 0.08320  0.47470  0.77650  Biso   1.000  H
  H35      1.0000 0.42670  0.56180  0.88930  Biso   1.000  H
  H36      1.0000 0.28830  0.63430  0.65370  Biso   1.000  H
  H37      1.0000 0.43660  0.61560  0.66350  Biso   1.000  H
  H38      1.0000 0.46250  0.45150  0.61280  Biso   1.000  H
  H39      1.0000 0.47620  0.61030  0.79440  Biso   1.000  H
  H40      1.0000 0.12840  0.52770  0.68080  Biso   1.000  H
  H41      1.0000 0.30030  0.34960  0.50940  Biso   1.000  H
  H42      1.0000 0.44040  0.31190  0.50820  Biso   1.000  H
  H43      1.0000 0.40180  0.33610  0.43670  Biso   1.000  H
  H44      1.0000 0.29470  0.38120  0.23800  Biso   1.000  H
  H45      1.0000 0.74987  0.30180  0.52530  Biso   1.000  H
  H46      1.0000 0.09337  0.32750  0.43820  Biso   1.000  H
  H47      1.0000 0.95497  0.01940  0.36570  Biso   1.000  H
  H48      1.0000 0.10327  0.04790  0.38440  Biso   1.000  H
  H49      1.0000 0.12917  0.16130  0.54850  Biso   1.000  H
  H50      1.0000 0.14287  0.18410  0.38970  Biso   1.000  H
  H51      1.0000 0.79507  0.15310  0.47230  Biso   1.000  H
  H52      1.0000 0.96697  0.15980  0.65040  Biso   1.000  H
  H53      1.0000 0.10707  0.19630  0.68810  Biso   1.000  H
  H54      1.0000 0.06847  0.10060  0.66390  Biso   1.000  H
  H55      1.0000 0.96137  0.85680  0.61880  Biso   1.000  H
  H56      1.0000 0.41653  0.22350  0.69820  Biso   1.000  H
  H57      1.0000 0.76003  0.11070  0.67250  Biso   1.000  H
  H58      1.0000 0.62163  0.34630  0.98060  Biso   1.000  H
  H59      1.0000 0.76993  0.33650  0.95210  Biso   1.000  H
  H60      1.0000 0.79583  0.38720  0.83870  Biso   1.000  H
  H61      1.0000 0.80953  0.20560  0.81590  Biso   1.000  H
  H62      1.0000 0.46173  0.31920  0.84690  Biso   1.000  H
  H63      1.0000 0.63363  0.49060  0.84020  Biso   1.000  H
  H64      1.0000 0.77373  0.49180  0.80370  Biso   1.000  H
  H65      1.0000 0.73513  0.56330  0.89940  Biso   1.000  H
  H66      1.0000 0.62803  0.76200  0.14320  Biso   1.000  H
  C1       1.0000 0.66260  0.49700  0.21880  Biso   1.000  C
  C2       1.0000 0.86550  0.44600  0.15330  Biso   1.000  C
  C3       1.0000 0.84870  0.40900  0.34750  Biso   1.000  C
  C4       1.0000 0.94210  0.55670  0.44530  Biso   1.000  C
  C5       1.0000 0.89640  0.41790  0.21120  Biso   1.000  C
  C6       1.0000 0.06700  0.54010  0.48400  Biso   1.000  C
  C7       1.0000 0.69160  0.46700  0.27860  Biso   1.000  C
  C8       1.0000 0.81140  0.43060  0.27730  Biso   1.000  C
  C9       1.0000 0.89160  0.64790  0.50290  Biso   1.000  C
  C10      1.0000 0.79800  0.58940  0.70100  Biso   1.000  C
  C11      1.0000 0.32927  0.72180  0.50300  Biso   1.000  C
  C12      1.0000 0.53217  0.70730  0.55400  Biso   1.000  C
  C13      1.0000 0.51537  0.93850  0.59100  Biso   1.000  C
  C14      1.0000 0.60877  0.88860  0.44330  Biso   1.000  C
  C15      1.0000 0.56307  0.79330  0.58210  Biso   1.000  C
  C16      1.0000 0.73367  0.94390  0.45990  Biso   1.000  C
  C17      1.0000 0.35827  0.81160  0.53300  Biso   1.000  C
  C18      1.0000 0.47807  0.84670  0.56940  Biso   1.000  C
  C19      1.0000 0.55827  0.85500  0.35210  Biso   1.000  C
  C20      1.0000 0.46467  0.11160  0.41060  Biso   1.000  C
  C21      1.0000 0.99593  0.78120  0.27820  Biso   1.000  C
  C22      1.0000 0.19883  0.84670  0.29270  Biso   1.000  C
  C23      1.0000 0.18203  0.65250  0.06150  Biso   1.000  C
  C24      1.0000 0.27543  0.55470  0.11140  Biso   1.000  C
  C25      1.0000 0.22973  0.78880  0.20670  Biso   1.000  C
  C26      1.0000 0.40033  0.51600  0.05610  Biso   1.000  C
  C27      1.0000 0.02493  0.72140  0.18840  Biso   1.000  C
  C28      1.0000 0.14473  0.72270  0.15330  Biso   1.000  C
  C29      1.0000 0.22493  0.49710  0.14500  Biso   1.000  C
  C30      1.0000 0.13133  0.29900  0.88840  Biso   1.000  C
  C31      1.0000 0.16260  0.50300  0.78120  Biso   1.000  C
  C32      1.0000 0.36550  0.55400  0.84670  Biso   1.000  C
  C33      1.0000 0.34870  0.59100  0.65250  Biso   1.000  C
  C34      1.0000 0.44210  0.44330  0.55470  Biso   1.000  C
  C35      1.0000 0.39640  0.58210  0.78880  Biso   1.000  C
  C36      1.0000 0.56700  0.45990  0.51600  Biso   1.000  C
  C37      1.0000 0.19160  0.53300  0.72140  Biso   1.000  C
  C38      1.0000 0.31140  0.56940  0.72270  Biso   1.000  C
  C39      1.0000 0.39160  0.35210  0.49710  Biso   1.000  C
  C40      1.0000 0.29800  0.41060  0.29900  Biso   1.000  C
  C41      1.0000 0.82927  0.27820  0.49700  Biso   1.000  C
  C42      1.0000 0.03217  0.29270  0.44600  Biso   1.000  C
  C43      1.0000 0.01537  0.06150  0.40900  Biso   1.000  C
  C44      1.0000 0.10877  0.11140  0.55670  Biso   1.000  C
  C45      1.0000 0.06307  0.20670  0.41790  Biso   1.000  C
  C46      1.0000 0.23367  0.05610  0.54010  Biso   1.000  C
  C47      1.0000 0.85827  0.18840  0.46700  Biso   1.000  C
  C48      1.0000 0.97807  0.15330  0.43060  Biso   1.000  C
  C49      1.0000 0.05827  0.14500  0.64790  Biso   1.000  C
  C50      1.0000 0.96467  0.88840  0.58940  Biso   1.000  C
  C51      1.0000 0.49593  0.21880  0.72180  Biso   1.000  C
  C52      1.0000 0.69883  0.15330  0.70730  Biso   1.000  C
  C53      1.0000 0.68203  0.34750  0.93850  Biso   1.000  C
  C54      1.0000 0.77543  0.44530  0.88860  Biso   1.000  C
  C55      1.0000 0.72973  0.21120  0.79330  Biso   1.000  C
  C56      1.0000 0.90033  0.48400  0.94390  Biso   1.000  C
  C57      1.0000 0.52493  0.27860  0.81160  Biso   1.000  C
  C58      1.0000 0.64473  0.27730  0.84670  Biso   1.000  C
  C59      1.0000 0.72493  0.50290  0.85500  Biso   1.000  C
  C60      1.0000 0.63133  0.70100  0.11160  Biso   1.000  C
  N1       1.0000 0.84400  0.49020  0.43560  Biso   1.000  N
  N2       1.0000 0.74810  0.48500  0.15610  Biso   1.000  N
  N3       1.0000 0.51067  0.94540  0.50980  Biso   1.000  N
  N4       1.0000 0.41477  0.67110  0.51500  Biso   1.000  N
  N5       1.0000 0.17733  0.56440  0.05460  Biso   1.000  N
  N6       1.0000 0.08143  0.84390  0.32890  Biso   1.000  N
  N7       1.0000 0.34400  0.50980  0.56440  Biso   1.000  N
  N8       1.0000 0.24810  0.51500  0.84390  Biso   1.000  N
  N9       1.0000 0.01067  0.05460  0.49020  Biso   1.000  N
  N10      1.0000 0.91477  0.32890  0.48500  Biso   1.000  N
  N11      1.0000 0.67733  0.43560  0.94540  Biso   1.000  N
  N12      1.0000 0.58143  0.15610  0.67110  Biso   1.000  N
  O1       1.0000 0.06080  0.49690  0.52240  Biso   1.000  O
  O2       1.0000 0.17020  0.57650  0.47460  Biso   1.000  O
  O3       1.0000 0.87080  0.51930  0.66090  Biso   1.000  O
  O4       1.0000 0.73160  0.61950  0.66140  Biso   1.000  O
  O5       1.0000 0.72747  0.02550  0.50310  Biso   1.000  O
  O6       1.0000 0.83687  0.89810  0.42350  Biso   1.000  O
  O7       1.0000 0.53747  0.14160  0.48070  Biso   1.000  O
  O8       1.0000 0.39827  0.04190  0.38050  Biso   1.000  O
  O9       1.0000 0.39413  0.47760  0.97450  Biso   1.000  O
  O10      1.0000 0.50353  0.52540  0.10190  Biso   1.000  O
  O11      1.0000 0.20413  0.33910  0.85840  Biso   1.000  O
  O12      1.0000 0.06493  0.33860  0.95810  Biso   1.000  O
  O13      1.0000 0.56080  0.50310  0.47760  Biso   1.000  O
  O14      1.0000 0.67020  0.42350  0.52540  Biso   1.000  O
  O15      1.0000 0.37080  0.48070  0.33910  Biso   1.000  O
  O16      1.0000 0.23160  0.38050  0.33860  Biso   1.000  O
  O17      1.0000 0.22747  0.97450  0.49690  Biso   1.000  O
  O18      1.0000 0.33687  0.10190  0.57650  Biso   1.000  O
  O19      1.0000 0.03747  0.85840  0.51930  Biso   1.000  O
  O20      1.0000 0.89827  0.95810  0.61950  Biso   1.000  O
  O21      1.0000 0.89413  0.52240  0.02550  Biso   1.000  O
  O22      1.0000 0.00353  0.47460  0.89810  Biso   1.000  O
  O23      1.0000 0.70413  0.66090  0.14160  Biso   1.000  O
  O24      1.0000 0.56493  0.66140  0.04190  Biso   1.000  O
