data_image0
_cell_length_a       10.1486
_cell_length_b       17.5806
_cell_length_c       17.5806
_cell_angle_alpha    120
_cell_angle_beta     90
_cell_angle_gamma    90

_symmetry_space_group_name_H-M    P 1
_symmetry_int_tables_number       1

loop_
  _symmetry_equiv_pos_as_xyz
  'x, y, z'

loop_
  _atom_site_label
  _atom_site_occupancy
  _atom_site_fract_x
  _atom_site_fract_y
  _atom_site_fract_z
  _atom_site_thermal_displace_type
  _atom_site_B_iso_or_equiv
  _atom_site_type_symbol
  Zn1      1.0000 0.96018  0.46685  0.92633  Biso   1.000  Zn
  Zn2      1.0000 0.62685  0.45948  0.53315  Biso   1.000  Zn
  Zn3      1.0000 0.29351  0.07367  0.54052  Biso   1.000  Zn
  Zn4      1.0000 0.46018  0.53315  0.07367  Biso   1.000  Zn
  Zn5      1.0000 0.12685  0.54052  0.46685  Biso   1.000  Zn
  Zn6      1.0000 0.79351  0.92633  0.45948  Biso   1.000  Zn
  H1       1.0000 0.01670  0.89190  0.32650  Biso   1.000  H
  H2       1.0000 0.67300  0.78000  0.30450  Biso   1.000  H
  H3       1.0000 0.06670  0.79660  0.18620  Biso   1.000  H
  H4       1.0000 0.72280  0.67580  0.16070  Biso   1.000  H
  H5       1.0000 0.95200  0.53740  0.20610  Biso   1.000  H
  H6       1.0000 0.06060  0.46820  0.15080  Biso   1.000  H
  H7       1.0000 0.92090  0.46230  0.11020  Biso   1.000  H
  H8       1.0000 0.98010  0.18990  0.90040  Biso   1.000  H
  H9       1.0000 0.98340  0.17500  0.80470  Biso   1.000  H
  H10      1.0000 0.85060  0.16460  0.84410  Biso   1.000  H
  H11      1.0000 0.87090  0.65550  0.02100  Biso   1.000  H
  H12      1.0000 0.02110  0.66690  0.04630  Biso   1.000  H
  H13      1.0000 0.05470  0.61970  0.16110  Biso   1.000  H
  H14      1.0000 0.68337  0.43460  0.10810  Biso   1.000  H
  H15      1.0000 0.33967  0.52450  0.22000  Biso   1.000  H
  H16      1.0000 0.73337  0.38960  0.20340  Biso   1.000  H
  H17      1.0000 0.38947  0.48490  0.32420  Biso   1.000  H
  H18      1.0000 0.61867  0.66870  0.46260  Biso   1.000  H
  H19      1.0000 0.72727  0.68260  0.53180  Biso   1.000  H
  H20      1.0000 0.58757  0.64790  0.53770  Biso   1.000  H
  H21      1.0000 0.64677  0.71050  0.81010  Biso   1.000  H
  H22      1.0000 0.65007  0.62970  0.82500  Biso   1.000  H
  H23      1.0000 0.51727  0.67950  0.83540  Biso   1.000  H
  H24      1.0000 0.53757  0.36550  0.34450  Biso   1.000  H
  H25      1.0000 0.68777  0.37940  0.33310  Biso   1.000  H
  H26      1.0000 0.72137  0.54140  0.38030  Biso   1.000  H
  H27      1.0000 0.35003  0.67350  0.56540  Biso   1.000  H
  H28      1.0000 0.00633  0.69550  0.47550  Biso   1.000  H
  H29      1.0000 0.40003  0.81380  0.61040  Biso   1.000  H
  H30      1.0000 0.05613  0.83930  0.51510  Biso   1.000  H
  H31      1.0000 0.28533  0.79390  0.33130  Biso   1.000  H
  H32      1.0000 0.39393  0.84920  0.31740  Biso   1.000  H
  H33      1.0000 0.25423  0.88980  0.35210  Biso   1.000  H
  H34      1.0000 0.31343  0.09960  0.28950  Biso   1.000  H
  H35      1.0000 0.31673  0.19530  0.37030  Biso   1.000  H
  H36      1.0000 0.18393  0.15590  0.32050  Biso   1.000  H
  H37      1.0000 0.20423  0.97900  0.63450  Biso   1.000  H
  H38      1.0000 0.35443  0.95370  0.62060  Biso   1.000  H
  H39      1.0000 0.38803  0.83890  0.45860  Biso   1.000  H
  H40      1.0000 0.51670  0.10810  0.67350  Biso   1.000  H
  H41      1.0000 0.17300  0.22000  0.69550  Biso   1.000  H
  H42      1.0000 0.56670  0.20340  0.81380  Biso   1.000  H
  H43      1.0000 0.22280  0.32420  0.83930  Biso   1.000  H
  H44      1.0000 0.45200  0.46260  0.79390  Biso   1.000  H
  H45      1.0000 0.56060  0.53180  0.84920  Biso   1.000  H
  H46      1.0000 0.42090  0.53770  0.88980  Biso   1.000  H
  H47      1.0000 0.48010  0.81010  0.09960  Biso   1.000  H
  H48      1.0000 0.48340  0.82500  0.19530  Biso   1.000  H
  H49      1.0000 0.35060  0.83540  0.15590  Biso   1.000  H
  H50      1.0000 0.37090  0.34450  0.97900  Biso   1.000  H
  H51      1.0000 0.52110  0.33310  0.95370  Biso   1.000  H
  H52      1.0000 0.55470  0.38030  0.83890  Biso   1.000  H
  H53      1.0000 0.18337  0.56540  0.89190  Biso   1.000  H
  H54      1.0000 0.83967  0.47550  0.78000  Biso   1.000  H
  H55      1.0000 0.23337  0.61040  0.79660  Biso   1.000  H
  H56      1.0000 0.88947  0.51510  0.67580  Biso   1.000  H
  H57      1.0000 0.11867  0.33130  0.53740  Biso   1.000  H
  H58      1.0000 0.22727  0.31740  0.46820  Biso   1.000  H
  H59      1.0000 0.08757  0.35210  0.46230  Biso   1.000  H
  H60      1.0000 0.14677  0.28950  0.18990  Biso   1.000  H
  H61      1.0000 0.15007  0.37030  0.17500  Biso   1.000  H
  H62      1.0000 0.01727  0.32050  0.16460  Biso   1.000  H
  H63      1.0000 0.03757  0.63450  0.65550  Biso   1.000  H
  H64      1.0000 0.18777  0.62060  0.66690  Biso   1.000  H
  H65      1.0000 0.22137  0.45860  0.61970  Biso   1.000  H
  H66      1.0000 0.85003  0.32650  0.43460  Biso   1.000  H
  H67      1.0000 0.50633  0.30450  0.52450  Biso   1.000  H
  H68      1.0000 0.90003  0.18620  0.38960  Biso   1.000  H
  H69      1.0000 0.55613  0.16070  0.48490  Biso   1.000  H
  H70      1.0000 0.78533  0.20610  0.66870  Biso   1.000  H
  H71      1.0000 0.89393  0.15080  0.68260  Biso   1.000  H
  H72      1.0000 0.75423  0.11020  0.64790  Biso   1.000  H
  H73      1.0000 0.81343  0.90040  0.71050  Biso   1.000  H
  H74      1.0000 0.81673  0.80470  0.62970  Biso   1.000  H
  H75      1.0000 0.68393  0.84410  0.67950  Biso   1.000  H
  H76      1.0000 0.70423  0.02100  0.36550  Biso   1.000  H
  H77      1.0000 0.85443  0.04630  0.37940  Biso   1.000  H
  H78      1.0000 0.88803  0.16110  0.54140  Biso   1.000  H
  C1       1.0000 0.95630  0.84810  0.29280  Biso   1.000  C
  C2       1.0000 0.75400  0.78250  0.28120  Biso   1.000  C
  C3       1.0000 0.90200  0.29260  0.89260  Biso   1.000  C
  C4       1.0000 0.98650  0.79130  0.20870  Biso   1.000  C
  C5       1.0000 0.90030  0.72490  0.15480  Biso   1.000  C
  C6       1.0000 0.78280  0.72040  0.19340  Biso   1.000  C
  C7       1.0000 0.98770  0.50160  0.14820  Biso   1.000  C
  C8       1.0000 0.15980  0.52090  0.05860  Biso   1.000  C
  C9       1.0000 0.93200  0.19690  0.85730  Biso   1.000  C
  C10      1.0000 0.93490  0.65500  0.06180  Biso   1.000  C
  C11      1.0000 0.03530  0.56090  0.11220  Biso   1.000  C
  C12      1.0000 0.62297  0.44470  0.15190  Biso   1.000  C
  C13      1.0000 0.42067  0.49870  0.21750  Biso   1.000  C
  C14      1.0000 0.56867  0.60000  0.70740  Biso   1.000  C
  C15      1.0000 0.65317  0.41740  0.20870  Biso   1.000  C
  C16      1.0000 0.56697  0.42990  0.27510  Biso   1.000  C
  C17      1.0000 0.44947  0.47300  0.27960  Biso   1.000  C
  C18      1.0000 0.65437  0.64660  0.49840  Biso   1.000  C
  C19      1.0000 0.82647  0.53770  0.47910  Biso   1.000  C
  C20      1.0000 0.59867  0.66040  0.80310  Biso   1.000  C
  C21      1.0000 0.60157  0.40680  0.34500  Biso   1.000  C
  C22      1.0000 0.70197  0.55130  0.43910  Biso   1.000  C
  C23      1.0000 0.28963  0.70720  0.55530  Biso   1.000  C
  C24      1.0000 0.08733  0.71880  0.50130  Biso   1.000  C
  C25      1.0000 0.23533  0.10740  0.40000  Biso   1.000  C
  C26      1.0000 0.31983  0.79130  0.58260  Biso   1.000  C
  C27      1.0000 0.23363  0.84520  0.57010  Biso   1.000  C
  C28      1.0000 0.11613  0.80660  0.52700  Biso   1.000  C
  C29      1.0000 0.32103  0.85180  0.35340  Biso   1.000  C
  C30      1.0000 0.49313  0.94140  0.46230  Biso   1.000  C
  C31      1.0000 0.26533  0.14270  0.33960  Biso   1.000  C
  C32      1.0000 0.26823  0.93820  0.59320  Biso   1.000  C
  C33      1.0000 0.36863  0.88780  0.44870  Biso   1.000  C
  C34      1.0000 0.45630  0.15190  0.70720  Biso   1.000  C
  C35      1.0000 0.25400  0.21750  0.71880  Biso   1.000  C
  C36      1.0000 0.40200  0.70740  0.10740  Biso   1.000  C
  C37      1.0000 0.48650  0.20870  0.79130  Biso   1.000  C
  C38      1.0000 0.40030  0.27510  0.84520  Biso   1.000  C
  C39      1.0000 0.28280  0.27960  0.80660  Biso   1.000  C
  C40      1.0000 0.48770  0.49840  0.85180  Biso   1.000  C
  C41      1.0000 0.65980  0.47910  0.94140  Biso   1.000  C
  C42      1.0000 0.43200  0.80310  0.14270  Biso   1.000  C
  C43      1.0000 0.43490  0.34500  0.93820  Biso   1.000  C
  C44      1.0000 0.53530  0.43910  0.88780  Biso   1.000  C
  C45      1.0000 0.12297  0.55530  0.84810  Biso   1.000  C
  C46      1.0000 0.92067  0.50130  0.78250  Biso   1.000  C
  C47      1.0000 0.06867  0.40000  0.29260  Biso   1.000  C
  C48      1.0000 0.15317  0.58260  0.79130  Biso   1.000  C
  C49      1.0000 0.06697  0.57010  0.72490  Biso   1.000  C
  C50      1.0000 0.94947  0.52700  0.72040  Biso   1.000  C
  C51      1.0000 0.15437  0.35340  0.50160  Biso   1.000  C
  C52      1.0000 0.32647  0.46230  0.52090  Biso   1.000  C
  C53      1.0000 0.09867  0.33960  0.19690  Biso   1.000  C
  C54      1.0000 0.10157  0.59320  0.65500  Biso   1.000  C
  C55      1.0000 0.20197  0.44870  0.56090  Biso   1.000  C
  C56      1.0000 0.78963  0.29280  0.44470  Biso   1.000  C
  C57      1.0000 0.58733  0.28120  0.49870  Biso   1.000  C
  C58      1.0000 0.73533  0.89260  0.60000  Biso   1.000  C
  C59      1.0000 0.81983  0.20870  0.41740  Biso   1.000  C
  C60      1.0000 0.73363  0.15480  0.42990  Biso   1.000  C
  C61      1.0000 0.61613  0.19340  0.47300  Biso   1.000  C
  C62      1.0000 0.82103  0.14820  0.64660  Biso   1.000  C
  C63      1.0000 0.99313  0.05860  0.53770  Biso   1.000  C
  C64      1.0000 0.76533  0.85730  0.66040  Biso   1.000  C
  C65      1.0000 0.76823  0.06180  0.40680  Biso   1.000  C
  C66      1.0000 0.86863  0.11220  0.55130  Biso   1.000  C
  N1       1.0000 0.93500  0.56680  0.05580  Biso   1.000  N
  N2       1.0000 0.84000  0.84480  0.33190  Biso   1.000  N
  N3       1.0000 0.60167  0.48900  0.43320  Biso   1.000  N
  N4       1.0000 0.50667  0.48710  0.15520  Biso   1.000  N
  N5       1.0000 0.26833  0.94420  0.51100  Biso   1.000  N
  N6       1.0000 0.17333  0.66810  0.51290  Biso   1.000  N
  N7       1.0000 0.43500  0.43320  0.94420  Biso   1.000  N
  N8       1.0000 0.34000  0.15520  0.66810  Biso   1.000  N
  N9       1.0000 0.10167  0.51100  0.56680  Biso   1.000  N
  N10      1.0000 0.00667  0.51290  0.84480  Biso   1.000  N
  N11      1.0000 0.76833  0.05580  0.48900  Biso   1.000  N
  N12      1.0000 0.67333  0.33190  0.48710  Biso   1.000  N
  O1       1.0000 0.15460  0.47990  0.97670  Biso   1.000  O
  O2       1.0000 0.26360  0.53180  0.10430  Biso   1.000  O
  O3       1.0000 0.97380  0.33620  0.86130  Biso   1.000  O
  O4       1.0000 0.83300  0.33680  0.96250  Biso   1.000  O
  O5       1.0000 0.82127  0.49680  0.52010  Biso   1.000  O
  O6       1.0000 0.93027  0.57250  0.46820  Biso   1.000  O
  O7       1.0000 0.64047  0.52510  0.66380  Biso   1.000  O
  O8       1.0000 0.49967  0.62570  0.66320  Biso   1.000  O
  O9       1.0000 0.48793  0.02330  0.50320  Biso   1.000  O
  O10      1.0000 0.59693  0.89570  0.42750  Biso   1.000  O
  O11      1.0000 0.30713  0.13870  0.47490  Biso   1.000  O
  O12      1.0000 0.16633  0.03750  0.37430  Biso   1.000  O
  O13      1.0000 0.65460  0.52010  0.02330  Biso   1.000  O
  O14      1.0000 0.76360  0.46820  0.89570  Biso   1.000  O
  O15      1.0000 0.47380  0.66380  0.13870  Biso   1.000  O
  O16      1.0000 0.33300  0.66320  0.03750  Biso   1.000  O
  O17      1.0000 0.32127  0.50320  0.47990  Biso   1.000  O
  O18      1.0000 0.43027  0.42750  0.53180  Biso   1.000  O
  O19      1.0000 0.14047  0.47490  0.33620  Biso   1.000  O
  O20      1.0000 0.99967  0.37430  0.33680  Biso   1.000  O
  O21      1.0000 0.98793  0.97670  0.49680  Biso   1.000  O
  O22      1.0000 0.09693  0.10430  0.57250  Biso   1.000  O
  O23      1.0000 0.80713  0.86130  0.52510  Biso   1.000  O
  O24      1.0000 0.66633  0.96250  0.62570  Biso   1.000  O
