data_image0
_cell_length_a       10.3433
_cell_length_b       17.7336
_cell_length_c       17.7336
_cell_angle_alpha    120
_cell_angle_beta     90
_cell_angle_gamma    90

_symmetry_space_group_name_H-M    P 1
_symmetry_int_tables_number       1

loop_
  _symmetry_equiv_pos_as_xyz
  'x, y, z'

loop_
  _atom_site_label
  _atom_site_occupancy
  _atom_site_fract_x
  _atom_site_fract_y
  _atom_site_fract_z
  _atom_site_thermal_displace_type
  _atom_site_B_iso_or_equiv
  _atom_site_type_symbol
  Zn1      1.0000 0.84420  0.45553  0.92874  Biso   1.000  Zn
  Zn2      1.0000 0.51087  0.47321  0.54447  Biso   1.000  Zn
  Zn3      1.0000 0.17753  0.07126  0.52679  Biso   1.000  Zn
  Zn4      1.0000 0.34420  0.54447  0.07126  Biso   1.000  Zn
  Zn5      1.0000 0.01087  0.52679  0.45553  Biso   1.000  Zn
  Zn6      1.0000 0.67753  0.92874  0.47321  Biso   1.000  Zn
  H1       1.0000 0.30350  0.57140  0.67660  Biso   1.000  H
  H2       1.0000 0.63180  0.47600  0.69660  Biso   1.000  H
  H3       1.0000 0.25160  0.61800  0.81930  Biso   1.000  H
  H4       1.0000 0.23430  0.47330  0.84580  Biso   1.000  H
  H5       1.0000 0.21080  0.32630  0.80610  Biso   1.000  H
  H6       1.0000 0.44620  0.62740  0.97990  Biso   1.000  H
  H7       1.0000 0.29880  0.62360  0.95710  Biso   1.000  H
  H8       1.0000 0.59340  0.52120  0.84110  Biso   1.000  H
  H9       1.0000 0.40080  0.35990  0.93120  Biso   1.000  H
  H10      1.0000 0.36950  0.26490  0.85690  Biso   1.000  H
  H11      1.0000 0.26320  0.32030  0.92540  Biso   1.000  H
  H12      1.0000 0.35270  0.35090  0.72150  Biso   1.000  H
  H13      1.0000 0.41000  0.27600  0.73400  Biso   1.000  H
  H14      1.0000 0.46560  0.37070  0.78790  Biso   1.000  H
  H15      1.0000 0.86950  0.61790  0.85520  Biso   1.000  H
  H16      1.0000 0.97017  0.10520  0.42860  Biso   1.000  H
  H17      1.0000 0.29847  0.22060  0.52400  Biso   1.000  H
  H18      1.0000 0.91827  0.20130  0.38200  Biso   1.000  H
  H19      1.0000 0.90097  0.37250  0.52670  Biso   1.000  H
  H20      1.0000 0.87747  0.47980  0.67370  Biso   1.000  H
  H21      1.0000 0.11287  0.35250  0.37260  Biso   1.000  H
  H22      1.0000 0.96547  0.33350  0.37640  Biso   1.000  H
  H23      1.0000 0.26007  0.31990  0.47880  Biso   1.000  H
  H24      1.0000 0.06747  0.57130  0.64010  Biso   1.000  H
  H25      1.0000 0.03617  0.59200  0.73510  Biso   1.000  H
  H26      1.0000 0.92987  0.60510  0.67970  Biso   1.000  H
  H27      1.0000 0.01937  0.37060  0.64910  Biso   1.000  H
  H28      1.0000 0.07667  0.45800  0.72400  Biso   1.000  H
  H29      1.0000 0.13227  0.41720  0.62930  Biso   1.000  H
  H30      1.0000 0.53617  0.23730  0.38210  Biso   1.000  H
  H31      1.0000 0.63683  0.32340  0.89480  Biso   1.000  H
  H32      1.0000 0.96513  0.30340  0.77940  Biso   1.000  H
  H33      1.0000 0.58493  0.18070  0.79870  Biso   1.000  H
  H34      1.0000 0.56763  0.15420  0.62750  Biso   1.000  H
  H35      1.0000 0.54413  0.19390  0.52020  Biso   1.000  H
  H36      1.0000 0.77953  0.02010  0.64750  Biso   1.000  H
  H37      1.0000 0.63213  0.04290  0.66650  Biso   1.000  H
  H38      1.0000 0.92673  0.15890  0.68010  Biso   1.000  H
  H39      1.0000 0.73413  0.06880  0.42870  Biso   1.000  H
  H40      1.0000 0.70283  0.14310  0.40800  Biso   1.000  H
  H41      1.0000 0.59653  0.07460  0.39490  Biso   1.000  H
  H42      1.0000 0.68603  0.27850  0.62940  Biso   1.000  H
  H43      1.0000 0.74333  0.26600  0.54200  Biso   1.000  H
  H44      1.0000 0.79893  0.21210  0.58280  Biso   1.000  H
  H45      1.0000 0.20283  0.14480  0.76270  Biso   1.000  H
  H46      1.0000 0.80350  0.42860  0.32340  Biso   1.000  H
  H47      1.0000 0.13180  0.52400  0.30340  Biso   1.000  H
  H48      1.0000 0.75160  0.38200  0.18070  Biso   1.000  H
  H49      1.0000 0.73430  0.52670  0.15420  Biso   1.000  H
  H50      1.0000 0.71080  0.67370  0.19390  Biso   1.000  H
  H51      1.0000 0.94620  0.37260  0.02010  Biso   1.000  H
  H52      1.0000 0.79880  0.37640  0.04290  Biso   1.000  H
  H53      1.0000 0.09340  0.47880  0.15890  Biso   1.000  H
  H54      1.0000 0.90080  0.64010  0.06880  Biso   1.000  H
  H55      1.0000 0.86950  0.73510  0.14310  Biso   1.000  H
  H56      1.0000 0.76320  0.67970  0.07460  Biso   1.000  H
  H57      1.0000 0.85270  0.64910  0.27850  Biso   1.000  H
  H58      1.0000 0.91000  0.72400  0.26600  Biso   1.000  H
  H59      1.0000 0.96560  0.62930  0.21210  Biso   1.000  H
  H60      1.0000 0.36950  0.38210  0.14480  Biso   1.000  H
  H61      1.0000 0.47017  0.89480  0.57140  Biso   1.000  H
  H62      1.0000 0.79847  0.77940  0.47600  Biso   1.000  H
  H63      1.0000 0.41827  0.79870  0.61800  Biso   1.000  H
  H64      1.0000 0.40097  0.62750  0.47330  Biso   1.000  H
  H65      1.0000 0.37747  0.52020  0.32630  Biso   1.000  H
  H66      1.0000 0.61287  0.64750  0.62740  Biso   1.000  H
  H67      1.0000 0.46547  0.66650  0.62360  Biso   1.000  H
  H68      1.0000 0.76007  0.68010  0.52120  Biso   1.000  H
  H69      1.0000 0.56747  0.42870  0.35990  Biso   1.000  H
  H70      1.0000 0.53617  0.40800  0.26490  Biso   1.000  H
  H71      1.0000 0.42987  0.39490  0.32030  Biso   1.000  H
  H72      1.0000 0.51937  0.62940  0.35090  Biso   1.000  H
  H73      1.0000 0.57667  0.54200  0.27600  Biso   1.000  H
  H74      1.0000 0.63227  0.58280  0.37070  Biso   1.000  H
  H75      1.0000 0.03617  0.76270  0.61790  Biso   1.000  H
  H76      1.0000 0.13683  0.67660  0.10520  Biso   1.000  H
  H77      1.0000 0.46513  0.69660  0.22060  Biso   1.000  H
  H78      1.0000 0.08493  0.81930  0.20130  Biso   1.000  H
  H79      1.0000 0.06763  0.84580  0.37250  Biso   1.000  H
  H80      1.0000 0.04413  0.80610  0.47980  Biso   1.000  H
  H81      1.0000 0.27953  0.97990  0.35250  Biso   1.000  H
  H82      1.0000 0.13213  0.95710  0.33350  Biso   1.000  H
  H83      1.0000 0.42673  0.84110  0.31990  Biso   1.000  H
  H84      1.0000 0.23413  0.93120  0.57130  Biso   1.000  H
  H85      1.0000 0.20283  0.85690  0.59200  Biso   1.000  H
  H86      1.0000 0.09653  0.92540  0.60510  Biso   1.000  H
  H87      1.0000 0.18603  0.72150  0.37060  Biso   1.000  H
  H88      1.0000 0.24333  0.73400  0.45800  Biso   1.000  H
  H89      1.0000 0.29893  0.78790  0.41720  Biso   1.000  H
  H90      1.0000 0.70283  0.85520  0.23730  Biso   1.000  H
  C1       1.0000 0.13890  0.46730  0.94470  Biso   1.000  C
  C2       1.0000 0.36230  0.56170  0.71050  Biso   1.000  C
  C3       1.0000 0.55590  0.50580  0.72250  Biso   1.000  C
  C4       1.0000 0.32940  0.58930  0.79650  Biso   1.000  C
  C5       1.0000 0.25710  0.45370  0.88690  Biso   1.000  C
  C6       1.0000 0.29050  0.35730  0.83460  Biso   1.000  C
  C7       1.0000 0.37950  0.59150  0.93910  Biso   1.000  C
  C8       1.0000 0.41450  0.57350  0.84830  Biso   1.000  C
  C9       1.0000 0.53210  0.53150  0.80900  Biso   1.000  C
  C10      1.0000 0.33500  0.32240  0.89220  Biso   1.000  C
  C11      1.0000 0.38880  0.33680  0.76280  Biso   1.000  C
  C12      1.0000 0.89760  0.58660  0.88140  Biso   1.000  C
  C13      1.0000 0.80557  0.47740  0.53270  Biso   1.000  C
  C14      1.0000 0.02897  0.14880  0.43830  Biso   1.000  C
  C15      1.0000 0.22257  0.21670  0.49420  Biso   1.000  C
  C16      1.0000 0.99607  0.20720  0.41070  Biso   1.000  C
  C17      1.0000 0.92377  0.43320  0.54630  Biso   1.000  C
  C18      1.0000 0.95717  0.47730  0.64270  Biso   1.000  C
  C19      1.0000 0.04617  0.34760  0.40850  Biso   1.000  C
  C20      1.0000 0.08117  0.27480  0.42650  Biso   1.000  C
  C21      1.0000 0.19877  0.27750  0.46850  Biso   1.000  C
  C22      1.0000 0.00167  0.56980  0.67760  Biso   1.000  C
  C23      1.0000 0.05547  0.42600  0.66320  Biso   1.000  C
  C24      1.0000 0.56427  0.29480  0.41340  Biso   1.000  C
  C25      1.0000 0.47223  0.05530  0.52260  Biso   1.000  C
  C26      1.0000 0.69563  0.28950  0.85120  Biso   1.000  C
  C27      1.0000 0.88923  0.27750  0.78330  Biso   1.000  C
  C28      1.0000 0.66273  0.20350  0.79280  Biso   1.000  C
  C29      1.0000 0.59043  0.11310  0.56680  Biso   1.000  C
  C30      1.0000 0.62383  0.16540  0.52270  Biso   1.000  C
  C31      1.0000 0.71283  0.06090  0.65240  Biso   1.000  C
  C32      1.0000 0.74783  0.15170  0.72520  Biso   1.000  C
  C33      1.0000 0.86543  0.19100  0.72250  Biso   1.000  C
  C34      1.0000 0.66833  0.10780  0.43020  Biso   1.000  C
  C35      1.0000 0.72213  0.23720  0.57400  Biso   1.000  C
  C36      1.0000 0.23093  0.11860  0.70520  Biso   1.000  C
  C37      1.0000 0.63890  0.53270  0.05530  Biso   1.000  C
  C38      1.0000 0.86230  0.43830  0.28950  Biso   1.000  C
  C39      1.0000 0.05590  0.49420  0.27750  Biso   1.000  C
  C40      1.0000 0.82940  0.41070  0.20350  Biso   1.000  C
  C41      1.0000 0.75710  0.54630  0.11310  Biso   1.000  C
  C42      1.0000 0.79050  0.64270  0.16540  Biso   1.000  C
  C43      1.0000 0.87950  0.40850  0.06090  Biso   1.000  C
  C44      1.0000 0.91450  0.42650  0.15170  Biso   1.000  C
  C45      1.0000 0.03210  0.46850  0.19100  Biso   1.000  C
  C46      1.0000 0.83500  0.67760  0.10780  Biso   1.000  C
  C47      1.0000 0.88880  0.66320  0.23720  Biso   1.000  C
  C48      1.0000 0.39760  0.41340  0.11860  Biso   1.000  C
  C49      1.0000 0.30557  0.52260  0.46730  Biso   1.000  C
  C50      1.0000 0.52897  0.85120  0.56170  Biso   1.000  C
  C51      1.0000 0.72257  0.78330  0.50580  Biso   1.000  C
  C52      1.0000 0.49607  0.79280  0.58930  Biso   1.000  C
  C53      1.0000 0.42377  0.56680  0.45370  Biso   1.000  C
  C54      1.0000 0.45717  0.52270  0.35730  Biso   1.000  C
  C55      1.0000 0.54617  0.65240  0.59150  Biso   1.000  C
  C56      1.0000 0.58117  0.72520  0.57350  Biso   1.000  C
  C57      1.0000 0.69877  0.72250  0.53150  Biso   1.000  C
  C58      1.0000 0.50167  0.43020  0.32240  Biso   1.000  C
  C59      1.0000 0.55547  0.57400  0.33680  Biso   1.000  C
  C60      1.0000 0.06427  0.70520  0.58660  Biso   1.000  C
  C61      1.0000 0.97223  0.94470  0.47740  Biso   1.000  C
  C62      1.0000 0.19563  0.71050  0.14880  Biso   1.000  C
  C63      1.0000 0.38923  0.72250  0.21670  Biso   1.000  C
  C64      1.0000 0.16273  0.79650  0.20720  Biso   1.000  C
  C65      1.0000 0.09043  0.88690  0.43320  Biso   1.000  C
  C66      1.0000 0.12383  0.83460  0.47730  Biso   1.000  C
  C67      1.0000 0.21283  0.93910  0.34760  Biso   1.000  C
  C68      1.0000 0.24783  0.84830  0.27480  Biso   1.000  C
  C69      1.0000 0.36543  0.80900  0.27750  Biso   1.000  C
  C70      1.0000 0.16833  0.89220  0.56980  Biso   1.000  C
  C71      1.0000 0.22213  0.76280  0.42600  Biso   1.000  C
  C72      1.0000 0.73093  0.88140  0.29480  Biso   1.000  C
  N1       1.0000 0.47070  0.52300  0.67460  Biso   1.000  N
  N2       1.0000 0.36590  0.50860  0.94200  Biso   1.000  N
  N3       1.0000 0.13737  0.15160  0.47700  Biso   1.000  N
  N4       1.0000 0.03257  0.43340  0.49140  Biso   1.000  N
  N5       1.0000 0.80403  0.32540  0.84840  Biso   1.000  N
  N6       1.0000 0.69923  0.05800  0.56660  Biso   1.000  N
  N7       1.0000 0.97070  0.47700  0.32540  Biso   1.000  N
  N8       1.0000 0.86590  0.49140  0.05800  Biso   1.000  N
  N9       1.0000 0.63737  0.84840  0.52300  Biso   1.000  N
  N10      1.0000 0.53257  0.56660  0.50860  Biso   1.000  N
  N11      1.0000 0.30403  0.67460  0.15160  Biso   1.000  N
  N12      1.0000 0.19923  0.94200  0.43340  Biso   1.000  N
  O1       1.0000 0.03810  0.42880  0.90260  Biso   1.000  O
  O2       1.0000 0.14790  0.51470  0.02530  Biso   1.000  O
  O3       1.0000 0.82520  0.52300  0.87130  Biso   1.000  O
  O4       1.0000 0.00000  0.61020  0.92210  Biso   1.000  O
  O5       1.0000 0.70477  0.47380  0.57120  Biso   1.000  O
  O6       1.0000 0.81457  0.51060  0.48530  Biso   1.000  O
  O7       1.0000 0.49187  0.34830  0.47700  Biso   1.000  O
  O8       1.0000 0.66667  0.31190  0.38980  Biso   1.000  O
  O9       1.0000 0.37143  0.09740  0.52620  Biso   1.000  O
  O10      1.0000 0.48123  0.97470  0.48940  Biso   1.000  O
  O11      1.0000 0.15853  0.12870  0.65170  Biso   1.000  O
  O12      1.0000 0.33333  0.07790  0.68810  Biso   1.000  O
  O13      1.0000 0.53810  0.57120  0.09740  Biso   1.000  O
  O14      1.0000 0.64790  0.48530  0.97470  Biso   1.000  O
  O15      1.0000 0.32520  0.47700  0.12870  Biso   1.000  O
  O16      1.0000 0.50000  0.38980  0.07790  Biso   1.000  O
  O17      1.0000 0.20477  0.52620  0.42880  Biso   1.000  O
  O18      1.0000 0.31457  0.48940  0.51470  Biso   1.000  O
  O19      1.0000 0.99187  0.65170  0.52300  Biso   1.000  O
  O20      1.0000 0.16667  0.68810  0.61020  Biso   1.000  O
  O21      1.0000 0.87143  0.90260  0.47380  Biso   1.000  O
  O22      1.0000 0.98123  0.02530  0.51060  Biso   1.000  O
  O23      1.0000 0.65853  0.87130  0.34830  Biso   1.000  O
  O24      1.0000 0.83333  0.92210  0.31190  Biso   1.000  O
