data_image0
_cell_length_a       10.3953
_cell_length_b       17.4542
_cell_length_c       17.4542
_cell_angle_alpha    120
_cell_angle_beta     90
_cell_angle_gamma    90

_symmetry_space_group_name_H-M    P 1
_symmetry_int_tables_number       1

loop_
  _symmetry_equiv_pos_as_xyz
  'x, y, z'

loop_
  _atom_site_label
  _atom_site_occupancy
  _atom_site_fract_x
  _atom_site_fract_y
  _atom_site_fract_z
  _atom_site_thermal_displace_type
  _atom_site_B_iso_or_equiv
  _atom_site_type_symbol
  Zn1      1.0000 0.88459  0.46662  0.92866  Biso   1.000  Zn
  Zn2      1.0000 0.55126  0.46204  0.53338  Biso   1.000  Zn
  Zn3      1.0000 0.21792  0.07134  0.53796  Biso   1.000  Zn
  Zn4      1.0000 0.38459  0.53338  0.07134  Biso   1.000  Zn
  Zn5      1.0000 0.05126  0.53796  0.46662  Biso   1.000  Zn
  Zn6      1.0000 0.71792  0.92866  0.46204  Biso   1.000  Zn
  H1       1.0000 0.78900  0.55340  0.08100  Biso   1.000  H
  H2       1.0000 0.97070  0.79880  0.17930  Biso   1.000  H
  H3       1.0000 0.99250  0.62860  0.15770  Biso   1.000  H
  H4       1.0000 0.92320  0.89640  0.32620  Biso   1.000  H
  H5       1.0000 0.77890  0.64450  0.02140  Biso   1.000  H
  H6       1.0000 0.92560  0.66500  0.04350  Biso   1.000  H
  H7       1.0000 0.63550  0.67780  0.15950  Biso   1.000  H
  H8       1.0000 0.59730  0.77680  0.30630  Biso   1.000  H
  H9       1.0000 0.83630  0.42340  0.07070  Biso   1.000  H
  H10      1.0000 0.86650  0.40430  0.14760  Biso   1.000  H
  H11      1.0000 0.97400  0.39190  0.07940  Biso   1.000  H
  H12      1.0000 0.02230  0.52070  0.19840  Biso   1.000  H
  H13      1.0000 0.87740  0.63330  0.28150  Biso   1.000  H
  H14      1.0000 0.83520  0.54580  0.27890  Biso   1.000  H
  H15      1.0000 0.76450  0.57650  0.21960  Biso   1.000  H
  H16      1.0000 0.86380  0.17830  0.90760  Biso   1.000  H
  H17      1.0000 0.99390  0.22370  0.90750  Biso   1.000  H
  H18      1.0000 0.91940  0.16610  0.81870  Biso   1.000  H
  H19      1.0000 0.45567  0.52760  0.44660  Biso   1.000  H
  H20      1.0000 0.63737  0.38050  0.20120  Biso   1.000  H
  H21      1.0000 0.65917  0.52910  0.37140  Biso   1.000  H
  H22      1.0000 0.58987  0.42980  0.10360  Biso   1.000  H
  H23      1.0000 0.44557  0.37690  0.35550  Biso   1.000  H
  H24      1.0000 0.59227  0.37850  0.33500  Biso   1.000  H
  H25      1.0000 0.30217  0.48170  0.32220  Biso   1.000  H
  H26      1.0000 0.26397  0.52950  0.22320  Biso   1.000  H
  H27      1.0000 0.50297  0.64730  0.57660  Biso   1.000  H
  H28      1.0000 0.53317  0.74330  0.59570  Biso   1.000  H
  H29      1.0000 0.64067  0.68750  0.60810  Biso   1.000  H
  H30      1.0000 0.68897  0.67770  0.47930  Biso   1.000  H
  H31      1.0000 0.54407  0.64820  0.36670  Biso   1.000  H
  H32      1.0000 0.50187  0.73310  0.45420  Biso   1.000  H
  H33      1.0000 0.43117  0.64310  0.42350  Biso   1.000  H
  H34      1.0000 0.53047  0.72930  0.82170  Biso   1.000  H
  H35      1.0000 0.66057  0.68380  0.77630  Biso   1.000  H
  H36      1.0000 0.58607  0.65260  0.83390  Biso   1.000  H
  H37      1.0000 0.12233  0.91900  0.47240  Biso   1.000  H
  H38      1.0000 0.30403  0.82070  0.61950  Biso   1.000  H
  H39      1.0000 0.32583  0.84230  0.47090  Biso   1.000  H
  H40      1.0000 0.25653  0.67380  0.57020  Biso   1.000  H
  H41      1.0000 0.11223  0.97860  0.62310  Biso   1.000  H
  H42      1.0000 0.25893  0.95650  0.62150  Biso   1.000  H
  H43      1.0000 0.96883  0.84050  0.51830  Biso   1.000  H
  H44      1.0000 0.93063  0.69370  0.47050  Biso   1.000  H
  H45      1.0000 0.16963  0.92930  0.35270  Biso   1.000  H
  H46      1.0000 0.19983  0.85240  0.25670  Biso   1.000  H
  H47      1.0000 0.30733  0.92060  0.31250  Biso   1.000  H
  H48      1.0000 0.35563  0.80160  0.32230  Biso   1.000  H
  H49      1.0000 0.21073  0.71850  0.35180  Biso   1.000  H
  H50      1.0000 0.16853  0.72110  0.26690  Biso   1.000  H
  H51      1.0000 0.09783  0.78040  0.35690  Biso   1.000  H
  H52      1.0000 0.19713  0.09240  0.27070  Biso   1.000  H
  H53      1.0000 0.32723  0.09250  0.31620  Biso   1.000  H
  H54      1.0000 0.25273  0.18130  0.34740  Biso   1.000  H
  H55      1.0000 0.28900  0.44660  0.91900  Biso   1.000  H
  H56      1.0000 0.47070  0.20120  0.82070  Biso   1.000  H
  H57      1.0000 0.49250  0.37140  0.84230  Biso   1.000  H
  H58      1.0000 0.42320  0.10360  0.67380  Biso   1.000  H
  H59      1.0000 0.27890  0.35550  0.97860  Biso   1.000  H
  H60      1.0000 0.42560  0.33500  0.95650  Biso   1.000  H
  H61      1.0000 0.13550  0.32220  0.84050  Biso   1.000  H
  H62      1.0000 0.09730  0.22320  0.69370  Biso   1.000  H
  H63      1.0000 0.33630  0.57660  0.92930  Biso   1.000  H
  H64      1.0000 0.36650  0.59570  0.85240  Biso   1.000  H
  H65      1.0000 0.47400  0.60810  0.92060  Biso   1.000  H
  H66      1.0000 0.52230  0.47930  0.80160  Biso   1.000  H
  H67      1.0000 0.37740  0.36670  0.71850  Biso   1.000  H
  H68      1.0000 0.33520  0.45420  0.72110  Biso   1.000  H
  H69      1.0000 0.26450  0.42350  0.78040  Biso   1.000  H
  H70      1.0000 0.36380  0.82170  0.09240  Biso   1.000  H
  H71      1.0000 0.49390  0.77630  0.09250  Biso   1.000  H
  H72      1.0000 0.41940  0.83390  0.18130  Biso   1.000  H
  H73      1.0000 0.95567  0.47240  0.55340  Biso   1.000  H
  H74      1.0000 0.13737  0.61950  0.79880  Biso   1.000  H
  H75      1.0000 0.15917  0.47090  0.62860  Biso   1.000  H
  H76      1.0000 0.08987  0.57020  0.89640  Biso   1.000  H
  H77      1.0000 0.94557  0.62310  0.64450  Biso   1.000  H
  H78      1.0000 0.09227  0.62150  0.66500  Biso   1.000  H
  H79      1.0000 0.80217  0.51830  0.67780  Biso   1.000  H
  H80      1.0000 0.76397  0.47050  0.77680  Biso   1.000  H
  H81      1.0000 0.00297  0.35270  0.42340  Biso   1.000  H
  H82      1.0000 0.03317  0.25670  0.40430  Biso   1.000  H
  H83      1.0000 0.14067  0.31250  0.39190  Biso   1.000  H
  H84      1.0000 0.18897  0.32230  0.52070  Biso   1.000  H
  H85      1.0000 0.04407  0.35180  0.63330  Biso   1.000  H
  H86      1.0000 0.00187  0.26690  0.54580  Biso   1.000  H
  H87      1.0000 0.93117  0.35690  0.57650  Biso   1.000  H
  H88      1.0000 0.03047  0.27070  0.17830  Biso   1.000  H
  H89      1.0000 0.16057  0.31620  0.22370  Biso   1.000  H
  H90      1.0000 0.08607  0.34740  0.16610  Biso   1.000  H
  H91      1.0000 0.62233  0.08100  0.52760  Biso   1.000  H
  H92      1.0000 0.80403  0.17930  0.38050  Biso   1.000  H
  H93      1.0000 0.82583  0.15770  0.52910  Biso   1.000  H
  H94      1.0000 0.75653  0.32620  0.42980  Biso   1.000  H
  H95      1.0000 0.61223  0.02140  0.37690  Biso   1.000  H
  H96      1.0000 0.75893  0.04350  0.37850  Biso   1.000  H
  H97      1.0000 0.46883  0.15950  0.48170  Biso   1.000  H
  H98      1.0000 0.43063  0.30630  0.52950  Biso   1.000  H
  H99      1.0000 0.66963  0.07070  0.64730  Biso   1.000  H
  H100     1.0000 0.69983  0.14760  0.74330  Biso   1.000  H
  H101     1.0000 0.80733  0.07940  0.68750  Biso   1.000  H
  H102     1.0000 0.85563  0.19840  0.67770  Biso   1.000  H
  H103     1.0000 0.71073  0.28150  0.64820  Biso   1.000  H
  H104     1.0000 0.66853  0.27890  0.73310  Biso   1.000  H
  H105     1.0000 0.59783  0.21960  0.64310  Biso   1.000  H
  H106     1.0000 0.69713  0.90760  0.72930  Biso   1.000  H
  H107     1.0000 0.82723  0.90750  0.68380  Biso   1.000  H
  H108     1.0000 0.75273  0.81870  0.65260  Biso   1.000  H
  C1       1.0000 0.09070  0.52490  0.05760  Biso   1.000  C
  C2       1.0000 0.89560  0.79200  0.20420  Biso   1.000  C
  C3       1.0000 0.97230  0.56650  0.11610  Biso   1.000  C
  C4       1.0000 0.86580  0.85110  0.29240  Biso   1.000  C
  C5       1.0000 0.81200  0.72320  0.15430  Biso   1.000  C
  C6       1.0000 0.84630  0.65000  0.06230  Biso   1.000  C
  C7       1.0000 0.69690  0.72030  0.19280  Biso   1.000  C
  C8       1.0000 0.67360  0.78070  0.28060  Biso   1.000  C
  C9       1.0000 0.90090  0.42670  0.11160  Biso   1.000  C
  C10      1.0000 0.94170  0.52210  0.17000  Biso   1.000  C
  C11      1.0000 0.84580  0.57420  0.24430  Biso   1.000  C
  C12      1.0000 0.83380  0.29160  0.89580  Biso   1.000  C
  C13      1.0000 0.91030  0.20650  0.88090  Biso   1.000  C
  C14      1.0000 0.75737  0.53270  0.47510  Biso   1.000  C
  C15      1.0000 0.56227  0.41220  0.20800  Biso   1.000  C
  C16      1.0000 0.63897  0.54960  0.43350  Biso   1.000  C
  C17      1.0000 0.53247  0.44130  0.14890  Biso   1.000  C
  C18      1.0000 0.47867  0.43110  0.27680  Biso   1.000  C
  C19      1.0000 0.51297  0.41230  0.35000  Biso   1.000  C
  C20      1.0000 0.36357  0.47250  0.27970  Biso   1.000  C
  C21      1.0000 0.34027  0.49990  0.21930  Biso   1.000  C
  C22      1.0000 0.56757  0.68490  0.57330  Biso   1.000  C
  C23      1.0000 0.60837  0.64790  0.47790  Biso   1.000  C
  C24      1.0000 0.51247  0.67010  0.42580  Biso   1.000  C
  C25      1.0000 0.50047  0.60420  0.70840  Biso   1.000  C
  C26      1.0000 0.57697  0.67440  0.79350  Biso   1.000  C
  C27      1.0000 0.42403  0.94240  0.46730  Biso   1.000  C
  C28      1.0000 0.22893  0.79580  0.58780  Biso   1.000  C
  C29      1.0000 0.30563  0.88390  0.45040  Biso   1.000  C
  C30      1.0000 0.19913  0.70760  0.55870  Biso   1.000  C
  C31      1.0000 0.14533  0.84570  0.56890  Biso   1.000  C
  C32      1.0000 0.17963  0.93770  0.58770  Biso   1.000  C
  C33      1.0000 0.03023  0.80720  0.52750  Biso   1.000  C
  C34      1.0000 0.00693  0.71940  0.50010  Biso   1.000  C
  C35      1.0000 0.23423  0.88840  0.31510  Biso   1.000  C
  C36      1.0000 0.27503  0.83000  0.35210  Biso   1.000  C
  C37      1.0000 0.17913  0.75570  0.32990  Biso   1.000  C
  C38      1.0000 0.16713  0.10420  0.39580  Biso   1.000  C
  C39      1.0000 0.24363  0.11910  0.32560  Biso   1.000  C
  C40      1.0000 0.59070  0.47510  0.94240  Biso   1.000  C
  C41      1.0000 0.39560  0.20800  0.79580  Biso   1.000  C
  C42      1.0000 0.47230  0.43350  0.88390  Biso   1.000  C
  C43      1.0000 0.36580  0.14890  0.70760  Biso   1.000  C
  C44      1.0000 0.31200  0.27680  0.84570  Biso   1.000  C
  C45      1.0000 0.34630  0.35000  0.93770  Biso   1.000  C
  C46      1.0000 0.19690  0.27970  0.80720  Biso   1.000  C
  C47      1.0000 0.17360  0.21930  0.71940  Biso   1.000  C
  C48      1.0000 0.40090  0.57330  0.88840  Biso   1.000  C
  C49      1.0000 0.44170  0.47790  0.83000  Biso   1.000  C
  C50      1.0000 0.34580  0.42580  0.75570  Biso   1.000  C
  C51      1.0000 0.33380  0.70840  0.10420  Biso   1.000  C
  C52      1.0000 0.41030  0.79350  0.11910  Biso   1.000  C
  C53      1.0000 0.25737  0.46730  0.52490  Biso   1.000  C
  C54      1.0000 0.06227  0.58780  0.79200  Biso   1.000  C
  C55      1.0000 0.13897  0.45040  0.56650  Biso   1.000  C
  C56      1.0000 0.03247  0.55870  0.85110  Biso   1.000  C
  C57      1.0000 0.97867  0.56890  0.72320  Biso   1.000  C
  C58      1.0000 0.01297  0.58770  0.65000  Biso   1.000  C
  C59      1.0000 0.86357  0.52750  0.72030  Biso   1.000  C
  C60      1.0000 0.84027  0.50010  0.78070  Biso   1.000  C
  C61      1.0000 0.06757  0.31510  0.42670  Biso   1.000  C
  C62      1.0000 0.10837  0.35210  0.52210  Biso   1.000  C
  C63      1.0000 0.01247  0.32990  0.57420  Biso   1.000  C
  C64      1.0000 0.00047  0.39580  0.29160  Biso   1.000  C
  C65      1.0000 0.07697  0.32560  0.20650  Biso   1.000  C
  C66      1.0000 0.92403  0.05760  0.53270  Biso   1.000  C
  C67      1.0000 0.72893  0.20420  0.41220  Biso   1.000  C
  C68      1.0000 0.80563  0.11610  0.54960  Biso   1.000  C
  C69      1.0000 0.69913  0.29240  0.44130  Biso   1.000  C
  C70      1.0000 0.64533  0.15430  0.43110  Biso   1.000  C
  C71      1.0000 0.67963  0.06230  0.41230  Biso   1.000  C
  C72      1.0000 0.53023  0.19280  0.47250  Biso   1.000  C
  C73      1.0000 0.50693  0.28060  0.49990  Biso   1.000  C
  C74      1.0000 0.73423  0.11160  0.68490  Biso   1.000  C
  C75      1.0000 0.77503  0.17000  0.64790  Biso   1.000  C
  C76      1.0000 0.67913  0.24430  0.67010  Biso   1.000  C
  C77      1.0000 0.66713  0.89580  0.60420  Biso   1.000  C
  C78      1.0000 0.74363  0.88090  0.67440  Biso   1.000  C
  N1       1.0000 0.75780  0.84440  0.32970  Biso   1.000  N
  N2       1.0000 0.86230  0.56470  0.06000  Biso   1.000  N
  N3       1.0000 0.42447  0.48530  0.15560  Biso   1.000  N
  N4       1.0000 0.52897  0.49530  0.43530  Biso   1.000  N
  N5       1.0000 0.09113  0.67030  0.51470  Biso   1.000  N
  N6       1.0000 0.19563  0.94000  0.50470  Biso   1.000  N
  N7       1.0000 0.25780  0.15560  0.67030  Biso   1.000  N
  N8       1.0000 0.36230  0.43530  0.94000  Biso   1.000  N
  N9       1.0000 0.92447  0.51470  0.84440  Biso   1.000  N
  N10      1.0000 0.02897  0.50470  0.56470  Biso   1.000  N
  N11      1.0000 0.59113  0.32970  0.48530  Biso   1.000  N
  N12      1.0000 0.69563  0.06000  0.49530  Biso   1.000  N
  O1       1.0000 0.19270  0.53390  0.09930  Biso   1.000  O
  O2       1.0000 0.08100  0.48600  0.97450  Biso   1.000  O
  O3       1.0000 0.90070  0.33970  0.88100  Biso   1.000  O
  O4       1.0000 0.71160  0.30430  0.92800  Biso   1.000  O
  O5       1.0000 0.85937  0.56540  0.46610  Biso   1.000  O
  O6       1.0000 0.74767  0.48850  0.51400  Biso   1.000  O
  O7       1.0000 0.56737  0.54130  0.66030  Biso   1.000  O
  O8       1.0000 0.37827  0.62370  0.69570  Biso   1.000  O
  O9       1.0000 0.52603  0.90070  0.43460  Biso   1.000  O
  O10      1.0000 0.41433  0.02550  0.51150  Biso   1.000  O
  O11      1.0000 0.23403  0.11900  0.45870  Biso   1.000  O
  O12      1.0000 0.04493  0.07200  0.37630  Biso   1.000  O
  O13      1.0000 0.69270  0.46610  0.90070  Biso   1.000  O
  O14      1.0000 0.58100  0.51400  0.02550  Biso   1.000  O
  O15      1.0000 0.40070  0.66030  0.11900  Biso   1.000  O
  O16      1.0000 0.21160  0.69570  0.07200  Biso   1.000  O
  O17      1.0000 0.35937  0.43460  0.53390  Biso   1.000  O
  O18      1.0000 0.24767  0.51150  0.48600  Biso   1.000  O
  O19      1.0000 0.06737  0.45870  0.33970  Biso   1.000  O
  O20      1.0000 0.87827  0.37630  0.30430  Biso   1.000  O
  O21      1.0000 0.02603  0.09930  0.56540  Biso   1.000  O
  O22      1.0000 0.91433  0.97450  0.48850  Biso   1.000  O
  O23      1.0000 0.73403  0.88100  0.54130  Biso   1.000  O
  O24      1.0000 0.54493  0.92800  0.62370  Biso   1.000  O
