data_image0
_cell_length_a       18.7145
_cell_length_b       18.7145
_cell_length_c       18.7145
_cell_angle_alpha    99.4097
_cell_angle_beta     99.4097
_cell_angle_gamma    99.4097

_symmetry_space_group_name_H-M    P 1
_symmetry_int_tables_number       1

loop_
  _symmetry_equiv_pos_as_xyz
  'x, y, z'

loop_
  _atom_site_label
  _atom_site_occupancy
  _atom_site_fract_x
  _atom_site_fract_y
  _atom_site_fract_z
  _atom_site_thermal_displace_type
  _atom_site_B_iso_or_equiv
  _atom_site_type_symbol
  Ni1      1.0000 0.25000  0.18019  0.31981  Biso   1.000  Ni
  Ni2      1.0000 0.31981  0.25000  0.18019  Biso   1.000  Ni
  Ni3      1.0000 0.18019  0.31981  0.25000  Biso   1.000  Ni
  Ni4      1.0000 0.75000  0.81981  0.68019  Biso   1.000  Ni
  Ni5      1.0000 0.68019  0.75000  0.81981  Biso   1.000  Ni
  Ni6      1.0000 0.81981  0.68019  0.75000  Biso   1.000  Ni
  H1       1.0000 0.44720  0.72330  0.69690  Biso   1.000  H
  H2       1.0000 0.33470  0.76020  0.66300  Biso   1.000  H
  H3       1.0000 0.45010  0.95150  0.63470  Biso   1.000  H
  H4       1.0000 0.55940  0.91120  0.66080  Biso   1.000  H
  H5       1.0000 0.35640  0.94570  0.54940  Biso   1.000  H
  H6       1.0000 0.18450  0.07430  0.53450  Biso   1.000  H
  H7       1.0000 0.18500  0.15060  0.45260  Biso   1.000  H
  H8       1.0000 0.69690  0.44720  0.72330  Biso   1.000  H
  H9       1.0000 0.66300  0.33470  0.76020  Biso   1.000  H
  H10      1.0000 0.63470  0.45010  0.95150  Biso   1.000  H
  H11      1.0000 0.66080  0.55940  0.91120  Biso   1.000  H
  H12      1.0000 0.54940  0.35640  0.94570  Biso   1.000  H
  H13      1.0000 0.53450  0.18450  0.07430  Biso   1.000  H
  H14      1.0000 0.45260  0.18500  0.15060  Biso   1.000  H
  H15      1.0000 0.72330  0.69690  0.44720  Biso   1.000  H
  H16      1.0000 0.76020  0.66300  0.33470  Biso   1.000  H
  H17      1.0000 0.95150  0.63470  0.45010  Biso   1.000  H
  H18      1.0000 0.91120  0.66080  0.55940  Biso   1.000  H
  H19      1.0000 0.94570  0.54940  0.35640  Biso   1.000  H
  H20      1.0000 0.07430  0.53450  0.18450  Biso   1.000  H
  H21      1.0000 0.15060  0.45260  0.18500  Biso   1.000  H
  H22      1.0000 0.77670  0.05280  0.80310  Biso   1.000  H
  H23      1.0000 0.73980  0.16530  0.83700  Biso   1.000  H
  H24      1.0000 0.54850  0.04990  0.86530  Biso   1.000  H
  H25      1.0000 0.58880  0.94060  0.83920  Biso   1.000  H
  H26      1.0000 0.55430  0.14360  0.95060  Biso   1.000  H
  H27      1.0000 0.42570  0.31550  0.96550  Biso   1.000  H
  H28      1.0000 0.34940  0.31500  0.04740  Biso   1.000  H
  H29      1.0000 0.05280  0.80310  0.77670  Biso   1.000  H
  H30      1.0000 0.16530  0.83700  0.73980  Biso   1.000  H
  H31      1.0000 0.04990  0.86530  0.54850  Biso   1.000  H
  H32      1.0000 0.94060  0.83920  0.58880  Biso   1.000  H
  H33      1.0000 0.14360  0.95060  0.55430  Biso   1.000  H
  H34      1.0000 0.31550  0.96550  0.42570  Biso   1.000  H
  H35      1.0000 0.31500  0.04740  0.34940  Biso   1.000  H
  H36      1.0000 0.80310  0.77670  0.05280  Biso   1.000  H
  H37      1.0000 0.83700  0.73980  0.16530  Biso   1.000  H
  H38      1.0000 0.86530  0.54850  0.04990  Biso   1.000  H
  H39      1.0000 0.83920  0.58880  0.94060  Biso   1.000  H
  H40      1.0000 0.95060  0.55430  0.14360  Biso   1.000  H
  H41      1.0000 0.96550  0.42570  0.31550  Biso   1.000  H
  H42      1.0000 0.04740  0.34940  0.31500  Biso   1.000  H
  H43      1.0000 0.55280  0.27670  0.30310  Biso   1.000  H
  H44      1.0000 0.66530  0.23980  0.33700  Biso   1.000  H
  H45      1.0000 0.54990  0.04850  0.36530  Biso   1.000  H
  H46      1.0000 0.44060  0.08880  0.33920  Biso   1.000  H
  H47      1.0000 0.64360  0.05430  0.45060  Biso   1.000  H
  H48      1.0000 0.81550  0.92570  0.46550  Biso   1.000  H
  H49      1.0000 0.81500  0.84940  0.54740  Biso   1.000  H
  H50      1.0000 0.30310  0.55280  0.27670  Biso   1.000  H
  H51      1.0000 0.33700  0.66530  0.23980  Biso   1.000  H
  H52      1.0000 0.36530  0.54990  0.04850  Biso   1.000  H
  H53      1.0000 0.33920  0.44060  0.08880  Biso   1.000  H
  H54      1.0000 0.45060  0.64360  0.05430  Biso   1.000  H
  H55      1.0000 0.46550  0.81550  0.92570  Biso   1.000  H
  H56      1.0000 0.54740  0.81500  0.84940  Biso   1.000  H
  H57      1.0000 0.27670  0.30310  0.55280  Biso   1.000  H
  H58      1.0000 0.23980  0.33700  0.66530  Biso   1.000  H
  H59      1.0000 0.04850  0.36530  0.54990  Biso   1.000  H
  H60      1.0000 0.08880  0.33920  0.44060  Biso   1.000  H
  H61      1.0000 0.05430  0.45060  0.64360  Biso   1.000  H
  H62      1.0000 0.92570  0.46550  0.81550  Biso   1.000  H
  H63      1.0000 0.84940  0.54740  0.81500  Biso   1.000  H
  H64      1.0000 0.22330  0.94720  0.19690  Biso   1.000  H
  H65      1.0000 0.26020  0.83470  0.16300  Biso   1.000  H
  H66      1.0000 0.45150  0.95010  0.13470  Biso   1.000  H
  H67      1.0000 0.41120  0.05940  0.16080  Biso   1.000  H
  H68      1.0000 0.44570  0.85640  0.04940  Biso   1.000  H
  H69      1.0000 0.57430  0.68450  0.03450  Biso   1.000  H
  H70      1.0000 0.65060  0.68500  0.95260  Biso   1.000  H
  H71      1.0000 0.94720  0.19690  0.22330  Biso   1.000  H
  H72      1.0000 0.83470  0.16300  0.26020  Biso   1.000  H
  H73      1.0000 0.95010  0.13470  0.45150  Biso   1.000  H
  H74      1.0000 0.05940  0.16080  0.41120  Biso   1.000  H
  H75      1.0000 0.85640  0.04940  0.44570  Biso   1.000  H
  H76      1.0000 0.68450  0.03450  0.57430  Biso   1.000  H
  H77      1.0000 0.68500  0.95260  0.65060  Biso   1.000  H
  H78      1.0000 0.19690  0.22330  0.94720  Biso   1.000  H
  H79      1.0000 0.16300  0.26020  0.83470  Biso   1.000  H
  H80      1.0000 0.13470  0.45150  0.95010  Biso   1.000  H
  H81      1.0000 0.16080  0.41120  0.05940  Biso   1.000  H
  H82      1.0000 0.04940  0.44570  0.85640  Biso   1.000  H
  H83      1.0000 0.03450  0.57430  0.68450  Biso   1.000  H
  H84      1.0000 0.95260  0.65060  0.68500  Biso   1.000  H
  C1       1.0000 0.58560  0.78490  0.69340  Biso   1.000  C
  C2       1.0000 0.51450  0.81090  0.67790  Biso   1.000  C
  C3       1.0000 0.44760  0.76900  0.68110  Biso   1.000  C
  C4       1.0000 0.37990  0.79130  0.66200  Biso   1.000  C
  C5       1.0000 0.38020  0.85900  0.64200  Biso   1.000  C
  C6       1.0000 0.44860  0.90320  0.64460  Biso   1.000  C
  C7       1.0000 0.51410  0.87980  0.66100  Biso   1.000  C
  C8       1.0000 0.31090  0.88390  0.61560  Biso   1.000  C
  C9       1.0000 0.31210  0.93120  0.56650  Biso   1.000  C
  C10      1.0000 0.21160  0.06700  0.49610  Biso   1.000  C
  C11      1.0000 0.21270  0.11230  0.44760  Biso   1.000  C
  C12      1.0000 0.69340  0.58560  0.78490  Biso   1.000  C
  C13      1.0000 0.67790  0.51450  0.81090  Biso   1.000  C
  C14      1.0000 0.68110  0.44760  0.76900  Biso   1.000  C
  C15      1.0000 0.66200  0.37990  0.79130  Biso   1.000  C
  C16      1.0000 0.64200  0.38020  0.85900  Biso   1.000  C
  C17      1.0000 0.64460  0.44860  0.90320  Biso   1.000  C
  C18      1.0000 0.66100  0.51410  0.87980  Biso   1.000  C
  C19      1.0000 0.61560  0.31090  0.88390  Biso   1.000  C
  C20      1.0000 0.56650  0.31210  0.93120  Biso   1.000  C
  C21      1.0000 0.49610  0.21160  0.06700  Biso   1.000  C
  C22      1.0000 0.44760  0.21270  0.11230  Biso   1.000  C
  C23      1.0000 0.78490  0.69340  0.58560  Biso   1.000  C
  C24      1.0000 0.81090  0.67790  0.51450  Biso   1.000  C
  C25      1.0000 0.76900  0.68110  0.44760  Biso   1.000  C
  C26      1.0000 0.79130  0.66200  0.37990  Biso   1.000  C
  C27      1.0000 0.85900  0.64200  0.38020  Biso   1.000  C
  C28      1.0000 0.90320  0.64460  0.44860  Biso   1.000  C
  C29      1.0000 0.87980  0.66100  0.51410  Biso   1.000  C
  C30      1.0000 0.88390  0.61560  0.31090  Biso   1.000  C
  C31      1.0000 0.93120  0.56650  0.31210  Biso   1.000  C
  C32      1.0000 0.06700  0.49610  0.21160  Biso   1.000  C
  C33      1.0000 0.11230  0.44760  0.21270  Biso   1.000  C
  C34      1.0000 0.71510  0.91440  0.80660  Biso   1.000  C
  C35      1.0000 0.68910  0.98550  0.82210  Biso   1.000  C
  C36      1.0000 0.73100  0.05240  0.81890  Biso   1.000  C
  C37      1.0000 0.70870  0.12010  0.83800  Biso   1.000  C
  C38      1.0000 0.64100  0.11980  0.85800  Biso   1.000  C
  C39      1.0000 0.59680  0.05140  0.85540  Biso   1.000  C
  C40      1.0000 0.62020  0.98590  0.83900  Biso   1.000  C
  C41      1.0000 0.61610  0.18910  0.88440  Biso   1.000  C
  C42      1.0000 0.56880  0.18790  0.93350  Biso   1.000  C
  C43      1.0000 0.43300  0.28840  0.00390  Biso   1.000  C
  C44      1.0000 0.38770  0.28730  0.05240  Biso   1.000  C
  C45      1.0000 0.91440  0.80660  0.71510  Biso   1.000  C
  C46      1.0000 0.98550  0.82210  0.68910  Biso   1.000  C
  C47      1.0000 0.05240  0.81890  0.73100  Biso   1.000  C
  C48      1.0000 0.12010  0.83800  0.70870  Biso   1.000  C
  C49      1.0000 0.11980  0.85800  0.64100  Biso   1.000  C
  C50      1.0000 0.05140  0.85540  0.59680  Biso   1.000  C
  C51      1.0000 0.98590  0.83900  0.62020  Biso   1.000  C
  C52      1.0000 0.18910  0.88440  0.61610  Biso   1.000  C
  C53      1.0000 0.18790  0.93350  0.56880  Biso   1.000  C
  C54      1.0000 0.28840  0.00390  0.43300  Biso   1.000  C
  C55      1.0000 0.28730  0.05240  0.38770  Biso   1.000  C
  C56      1.0000 0.80660  0.71510  0.91440  Biso   1.000  C
  C57      1.0000 0.82210  0.68910  0.98550  Biso   1.000  C
  C58      1.0000 0.81890  0.73100  0.05240  Biso   1.000  C
  C59      1.0000 0.83800  0.70870  0.12010  Biso   1.000  C
  C60      1.0000 0.85800  0.64100  0.11980  Biso   1.000  C
  C61      1.0000 0.85540  0.59680  0.05140  Biso   1.000  C
  C62      1.0000 0.83900  0.62020  0.98590  Biso   1.000  C
  C63      1.0000 0.88440  0.61610  0.18910  Biso   1.000  C
  C64      1.0000 0.93350  0.56880  0.18790  Biso   1.000  C
  C65      1.0000 0.00390  0.43300  0.28840  Biso   1.000  C
  C66      1.0000 0.05240  0.38770  0.28730  Biso   1.000  C
  C67      1.0000 0.41440  0.21510  0.30660  Biso   1.000  C
  C68      1.0000 0.48550  0.18910  0.32210  Biso   1.000  C
  C69      1.0000 0.55240  0.23100  0.31890  Biso   1.000  C
  C70      1.0000 0.62010  0.20870  0.33800  Biso   1.000  C
  C71      1.0000 0.61980  0.14100  0.35800  Biso   1.000  C
  C72      1.0000 0.55140  0.09680  0.35540  Biso   1.000  C
  C73      1.0000 0.48590  0.12020  0.33900  Biso   1.000  C
  C74      1.0000 0.68910  0.11610  0.38440  Biso   1.000  C
  C75      1.0000 0.68790  0.06880  0.43350  Biso   1.000  C
  C76      1.0000 0.78840  0.93300  0.50390  Biso   1.000  C
  C77      1.0000 0.78730  0.88770  0.55240  Biso   1.000  C
  C78      1.0000 0.30660  0.41440  0.21510  Biso   1.000  C
  C79      1.0000 0.32210  0.48550  0.18910  Biso   1.000  C
  C80      1.0000 0.31890  0.55240  0.23100  Biso   1.000  C
  C81      1.0000 0.33800  0.62010  0.20870  Biso   1.000  C
  C82      1.0000 0.35800  0.61980  0.14100  Biso   1.000  C
  C83      1.0000 0.35540  0.55140  0.09680  Biso   1.000  C
  C84      1.0000 0.33900  0.48590  0.12020  Biso   1.000  C
  C85      1.0000 0.38440  0.68910  0.11610  Biso   1.000  C
  C86      1.0000 0.43350  0.68790  0.06880  Biso   1.000  C
  C87      1.0000 0.50390  0.78840  0.93300  Biso   1.000  C
  C88      1.0000 0.55240  0.78730  0.88770  Biso   1.000  C
  C89      1.0000 0.21510  0.30660  0.41440  Biso   1.000  C
  C90      1.0000 0.18910  0.32210  0.48550  Biso   1.000  C
  C91      1.0000 0.23100  0.31890  0.55240  Biso   1.000  C
  C92      1.0000 0.20870  0.33800  0.62010  Biso   1.000  C
  C93      1.0000 0.14100  0.35800  0.61980  Biso   1.000  C
  C94      1.0000 0.09680  0.35540  0.55140  Biso   1.000  C
  C95      1.0000 0.12020  0.33900  0.48590  Biso   1.000  C
  C96      1.0000 0.11610  0.38440  0.68910  Biso   1.000  C
  C97      1.0000 0.06880  0.43350  0.68790  Biso   1.000  C
  C98      1.0000 0.93300  0.50390  0.78840  Biso   1.000  C
  C99      1.0000 0.88770  0.55240  0.78730  Biso   1.000  C
  C100     1.0000 0.28490  0.08560  0.19340  Biso   1.000  C
  C101     1.0000 0.31090  0.01450  0.17790  Biso   1.000  C
  C102     1.0000 0.26900  0.94760  0.18110  Biso   1.000  C
  C103     1.0000 0.29130  0.87990  0.16200  Biso   1.000  C
  C104     1.0000 0.35900  0.88020  0.14200  Biso   1.000  C
  C105     1.0000 0.40320  0.94860  0.14460  Biso   1.000  C
  C106     1.0000 0.37980  0.01410  0.16100  Biso   1.000  C
  C107     1.0000 0.38390  0.81090  0.11560  Biso   1.000  C
  C108     1.0000 0.43120  0.81210  0.06650  Biso   1.000  C
  C109     1.0000 0.56700  0.71160  0.99610  Biso   1.000  C
  C110     1.0000 0.61230  0.71270  0.94760  Biso   1.000  C
  C111     1.0000 0.08560  0.19340  0.28490  Biso   1.000  C
  C112     1.0000 0.01450  0.17790  0.31090  Biso   1.000  C
  C113     1.0000 0.94760  0.18110  0.26900  Biso   1.000  C
  C114     1.0000 0.87990  0.16200  0.29130  Biso   1.000  C
  C115     1.0000 0.88020  0.14200  0.35900  Biso   1.000  C
  C116     1.0000 0.94860  0.14460  0.40320  Biso   1.000  C
  C117     1.0000 0.01410  0.16100  0.37980  Biso   1.000  C
  C118     1.0000 0.81090  0.11560  0.38390  Biso   1.000  C
  C119     1.0000 0.81210  0.06650  0.43120  Biso   1.000  C
  C120     1.0000 0.71160  0.99610  0.56700  Biso   1.000  C
  C121     1.0000 0.71270  0.94760  0.61230  Biso   1.000  C
  C122     1.0000 0.19340  0.28490  0.08560  Biso   1.000  C
  C123     1.0000 0.17790  0.31090  0.01450  Biso   1.000  C
  C124     1.0000 0.18110  0.26900  0.94760  Biso   1.000  C
  C125     1.0000 0.16200  0.29130  0.87990  Biso   1.000  C
  C126     1.0000 0.14200  0.35900  0.88020  Biso   1.000  C
  C127     1.0000 0.14460  0.40320  0.94860  Biso   1.000  C
  C128     1.0000 0.16100  0.37980  0.01410  Biso   1.000  C
  C129     1.0000 0.11560  0.38390  0.81090  Biso   1.000  C
  C130     1.0000 0.06650  0.43120  0.81210  Biso   1.000  C
  C131     1.0000 0.99610  0.56700  0.71160  Biso   1.000  C
  C132     1.0000 0.94760  0.61230  0.71270  Biso   1.000  C
  C133     1.0000 0.25000  0.95805  0.54195  Biso   1.000  C
  C134     1.0000 0.25000  0.00935  0.49065  Biso   1.000  C
  C135     1.0000 0.54195  0.25000  0.95805  Biso   1.000  C
  C136     1.0000 0.49065  0.25000  0.00935  Biso   1.000  C
  C137     1.0000 0.95805  0.54195  0.25000  Biso   1.000  C
  C138     1.0000 0.00935  0.49065  0.25000  Biso   1.000  C
  C139     1.0000 0.75000  0.04195  0.45805  Biso   1.000  C
  C140     1.0000 0.75000  0.99065  0.50935  Biso   1.000  C
  C141     1.0000 0.45805  0.75000  0.04195  Biso   1.000  C
  C142     1.0000 0.50935  0.75000  0.99065  Biso   1.000  C
  C143     1.0000 0.04195  0.45805  0.75000  Biso   1.000  C
  C144     1.0000 0.99065  0.50935  0.75000  Biso   1.000  C
  N1       1.0000 0.25000  0.10715  0.39285  Biso   1.000  N
  N2       1.0000 0.25000  0.85995  0.64005  Biso   1.000  N
  N3       1.0000 0.39285  0.25000  0.10715  Biso   1.000  N
  N4       1.0000 0.64005  0.25000  0.85995  Biso   1.000  N
  N5       1.0000 0.10715  0.39285  0.25000  Biso   1.000  N
  N6       1.0000 0.85995  0.64005  0.25000  Biso   1.000  N
  N7       1.0000 0.75000  0.89285  0.60715  Biso   1.000  N
  N8       1.0000 0.75000  0.14005  0.35995  Biso   1.000  N
  N9       1.0000 0.60715  0.75000  0.89285  Biso   1.000  N
  N10      1.0000 0.35995  0.75000  0.14005  Biso   1.000  N
  N11      1.0000 0.89285  0.60715  0.75000  Biso   1.000  N
  N12      1.0000 0.14005  0.35995  0.75000  Biso   1.000  N
  O1       1.0000 0.59040  0.73707  0.73325  Biso   1.000  O
  O2       1.0000 0.63683  0.81506  0.66604  Biso   1.000  O
  O3       1.0000 0.73325  0.59040  0.73707  Biso   1.000  O
  O4       1.0000 0.66604  0.63683  0.81506  Biso   1.000  O
  O5       1.0000 0.73707  0.73325  0.59040  Biso   1.000  O
  O6       1.0000 0.81506  0.66604  0.63683  Biso   1.000  O
  O7       1.0000 0.76293  0.90960  0.76675  Biso   1.000  O
  O8       1.0000 0.68494  0.86317  0.83396  Biso   1.000  O
  O9       1.0000 0.90960  0.76675  0.76293  Biso   1.000  O
  O10      1.0000 0.86317  0.83396  0.68494  Biso   1.000  O
  O11      1.0000 0.76675  0.76293  0.90960  Biso   1.000  O
  O12      1.0000 0.83396  0.68494  0.86317  Biso   1.000  O
  O13      1.0000 0.40960  0.26293  0.26675  Biso   1.000  O
  O14      1.0000 0.36317  0.18494  0.33396  Biso   1.000  O
  O15      1.0000 0.26675  0.40960  0.26293  Biso   1.000  O
  O16      1.0000 0.33396  0.36317  0.18494  Biso   1.000  O
  O17      1.0000 0.26293  0.26675  0.40960  Biso   1.000  O
  O18      1.0000 0.18494  0.33396  0.36317  Biso   1.000  O
  O19      1.0000 0.23707  0.09040  0.23325  Biso   1.000  O
  O20      1.0000 0.31506  0.13683  0.16604  Biso   1.000  O
  O21      1.0000 0.09040  0.23325  0.23707  Biso   1.000  O
  O22      1.0000 0.13683  0.16604  0.31506  Biso   1.000  O
  O23      1.0000 0.23325  0.23707  0.09040  Biso   1.000  O
  O24      1.0000 0.16604  0.31506  0.13683  Biso   1.000  O
  O25      1.0000 0.25000  0.25000  0.25000  Biso   1.000  O
  O26      1.0000 0.75000  0.75000  0.75000  Biso   1.000  O
