data_image0
_cell_length_a       18.9
_cell_length_b       18.9
_cell_length_c       18.9
_cell_angle_alpha    61.8682
_cell_angle_beta     61.8682
_cell_angle_gamma    61.8682

_symmetry_space_group_name_H-M    P 1
_symmetry_int_tables_number       1

loop_
  _symmetry_equiv_pos_as_xyz
  'x, y, z'

loop_
  _atom_site_label
  _atom_site_occupancy
  _atom_site_fract_x
  _atom_site_fract_y
  _atom_site_fract_z
  _atom_site_thermal_displace_type
  _atom_site_B_iso_or_equiv
  _atom_site_type_symbol
  Co1      1.0000 0.35438  0.14562  0.25000  Biso   1.000  Co
  Co2      1.0000 0.25000  0.35438  0.14562  Biso   1.000  Co
  Co3      1.0000 0.14562  0.25000  0.35438  Biso   1.000  Co
  Co4      1.0000 0.64562  0.85438  0.75000  Biso   1.000  Co
  Co5      1.0000 0.75000  0.64562  0.85438  Biso   1.000  Co
  Co6      1.0000 0.85438  0.75000  0.64562  Biso   1.000  Co
  H1       1.0000 0.44510  0.10450  0.43000  Biso   1.000  H
  H2       1.0000 0.49910  0.07520  0.53100  Biso   1.000  H
  H3       1.0000 0.26600  0.15160  0.68260  Biso   1.000  H
  H4       1.0000 0.21170  0.18390  0.58130  Biso   1.000  H
  H5       1.0000 0.51320  0.96760  0.65750  Biso   1.000  H
  H6       1.0000 0.43000  0.44510  0.10450  Biso   1.000  H
  H7       1.0000 0.53100  0.49910  0.07520  Biso   1.000  H
  H8       1.0000 0.68260  0.26600  0.15160  Biso   1.000  H
  H9       1.0000 0.58130  0.21170  0.18390  Biso   1.000  H
  H10      1.0000 0.65750  0.51320  0.96760  Biso   1.000  H
  H11      1.0000 0.10450  0.43000  0.44510  Biso   1.000  H
  H12      1.0000 0.07520  0.53100  0.49910  Biso   1.000  H
  H13      1.0000 0.15160  0.68260  0.26600  Biso   1.000  H
  H14      1.0000 0.18390  0.58130  0.21170  Biso   1.000  H
  H15      1.0000 0.96760  0.65750  0.51320  Biso   1.000  H
  H16      1.0000 0.39550  0.05490  0.07000  Biso   1.000  H
  H17      1.0000 0.42480  0.00090  0.96900  Biso   1.000  H
  H18      1.0000 0.34840  0.23400  0.81740  Biso   1.000  H
  H19      1.0000 0.31610  0.28830  0.91870  Biso   1.000  H
  H20      1.0000 0.53240  0.98680  0.84250  Biso   1.000  H
  H21      1.0000 0.05490  0.07000  0.39550  Biso   1.000  H
  H22      1.0000 0.00090  0.96900  0.42480  Biso   1.000  H
  H23      1.0000 0.23400  0.81740  0.34840  Biso   1.000  H
  H24      1.0000 0.28830  0.91870  0.31610  Biso   1.000  H
  H25      1.0000 0.98680  0.84250  0.53240  Biso   1.000  H
  H26      1.0000 0.07000  0.39550  0.05490  Biso   1.000  H
  H27      1.0000 0.96900  0.42480  0.00090  Biso   1.000  H
  H28      1.0000 0.81740  0.34840  0.23400  Biso   1.000  H
  H29      1.0000 0.91870  0.31610  0.28830  Biso   1.000  H
  H30      1.0000 0.84250  0.53240  0.98680  Biso   1.000  H
  H31      1.0000 0.55490  0.89550  0.57000  Biso   1.000  H
  H32      1.0000 0.50090  0.92480  0.46900  Biso   1.000  H
  H33      1.0000 0.73400  0.84840  0.31740  Biso   1.000  H
  H34      1.0000 0.78830  0.81610  0.41870  Biso   1.000  H
  H35      1.0000 0.48680  0.03240  0.34250  Biso   1.000  H
  H36      1.0000 0.57000  0.55490  0.89550  Biso   1.000  H
  H37      1.0000 0.46900  0.50090  0.92480  Biso   1.000  H
  H38      1.0000 0.31740  0.73400  0.84840  Biso   1.000  H
  H39      1.0000 0.41870  0.78830  0.81610  Biso   1.000  H
  H40      1.0000 0.34250  0.48680  0.03240  Biso   1.000  H
  H41      1.0000 0.89550  0.57000  0.55490  Biso   1.000  H
  H42      1.0000 0.92480  0.46900  0.50090  Biso   1.000  H
  H43      1.0000 0.84840  0.31740  0.73400  Biso   1.000  H
  H44      1.0000 0.81610  0.41870  0.78830  Biso   1.000  H
  H45      1.0000 0.03240  0.34250  0.48680  Biso   1.000  H
  H46      1.0000 0.60450  0.94510  0.93000  Biso   1.000  H
  H47      1.0000 0.57520  0.99910  0.03100  Biso   1.000  H
  H48      1.0000 0.65160  0.76600  0.18260  Biso   1.000  H
  H49      1.0000 0.68390  0.71170  0.08130  Biso   1.000  H
  H50      1.0000 0.46760  0.01320  0.15750  Biso   1.000  H
  H51      1.0000 0.94510  0.93000  0.60450  Biso   1.000  H
  H52      1.0000 0.99910  0.03100  0.57520  Biso   1.000  H
  H53      1.0000 0.76600  0.18260  0.65160  Biso   1.000  H
  H54      1.0000 0.71170  0.08130  0.68390  Biso   1.000  H
  H55      1.0000 0.01320  0.15750  0.46760  Biso   1.000  H
  H56      1.0000 0.93000  0.60450  0.94510  Biso   1.000  H
  H57      1.0000 0.03100  0.57520  0.99910  Biso   1.000  H
  H58      1.0000 0.18260  0.65160  0.76600  Biso   1.000  H
  H59      1.0000 0.08130  0.68390  0.71170  Biso   1.000  H
  H60      1.0000 0.15750  0.46760  0.01320  Biso   1.000  H
  H61      1.0000 0.34345  0.15655  0.75000  Biso   1.000  H
  H62      1.0000 0.75000  0.34345  0.15655  Biso   1.000  H
  H63      1.0000 0.15655  0.75000  0.34345  Biso   1.000  H
  H64      1.0000 0.65655  0.84345  0.25000  Biso   1.000  H
  H65      1.0000 0.25000  0.65655  0.84345  Biso   1.000  H
  H66      1.0000 0.84345  0.25000  0.65655  Biso   1.000  H
  C1       1.0000 0.28782  0.16201  0.42888  Biso   1.000  C
  C2       1.0000 0.32087  0.14477  0.49623  Biso   1.000  C
  C3       1.0000 0.40832  0.11262  0.48182  Biso   1.000  C
  C4       1.0000 0.44079  0.09309  0.54289  Biso   1.000  C
  C5       1.0000 0.38589  0.10009  0.62319  Biso   1.000  C
  C6       1.0000 0.30257  0.13865  0.63291  Biso   1.000  C
  C7       1.0000 0.26980  0.15948  0.57114  Biso   1.000  C
  C8       1.0000 0.42215  0.06873  0.69119  Biso   1.000  C
  C9       1.0000 0.49323  0.99627  0.69524  Biso   1.000  C
  C10      1.0000 0.42888  0.28782  0.16201  Biso   1.000  C
  C11      1.0000 0.49623  0.32087  0.14477  Biso   1.000  C
  C12      1.0000 0.48182  0.40832  0.11262  Biso   1.000  C
  C13      1.0000 0.54289  0.44079  0.09309  Biso   1.000  C
  C14      1.0000 0.62319  0.38589  0.10009  Biso   1.000  C
  C15      1.0000 0.63291  0.30257  0.13865  Biso   1.000  C
  C16      1.0000 0.57114  0.26980  0.15948  Biso   1.000  C
  C17      1.0000 0.69119  0.42215  0.06873  Biso   1.000  C
  C18      1.0000 0.69524  0.49323  0.99627  Biso   1.000  C
  C19      1.0000 0.16201  0.42888  0.28782  Biso   1.000  C
  C20      1.0000 0.14477  0.49623  0.32087  Biso   1.000  C
  C21      1.0000 0.11262  0.48182  0.40832  Biso   1.000  C
  C22      1.0000 0.09309  0.54289  0.44079  Biso   1.000  C
  C23      1.0000 0.10009  0.62319  0.38589  Biso   1.000  C
  C24      1.0000 0.13865  0.63291  0.30257  Biso   1.000  C
  C25      1.0000 0.15948  0.57114  0.26980  Biso   1.000  C
  C26      1.0000 0.06873  0.69119  0.42215  Biso   1.000  C
  C27      1.0000 0.99627  0.69524  0.49323  Biso   1.000  C
  C28      1.0000 0.33799  0.21218  0.07112  Biso   1.000  C
  C29      1.0000 0.35523  0.17913  0.00377  Biso   1.000  C
  C30      1.0000 0.38738  0.09168  0.01818  Biso   1.000  C
  C31      1.0000 0.40691  0.05921  0.95711  Biso   1.000  C
  C32      1.0000 0.39991  0.11411  0.87681  Biso   1.000  C
  C33      1.0000 0.36135  0.19743  0.86709  Biso   1.000  C
  C34      1.0000 0.34052  0.23020  0.92886  Biso   1.000  C
  C35      1.0000 0.43127  0.07785  0.80881  Biso   1.000  C
  C36      1.0000 0.50373  0.00677  0.80476  Biso   1.000  C
  C37      1.0000 0.21218  0.07112  0.33799  Biso   1.000  C
  C38      1.0000 0.17913  0.00377  0.35523  Biso   1.000  C
  C39      1.0000 0.09168  0.01818  0.38738  Biso   1.000  C
  C40      1.0000 0.05921  0.95711  0.40691  Biso   1.000  C
  C41      1.0000 0.11411  0.87681  0.39991  Biso   1.000  C
  C42      1.0000 0.19743  0.86709  0.36135  Biso   1.000  C
  C43      1.0000 0.23020  0.92886  0.34052  Biso   1.000  C
  C44      1.0000 0.07785  0.80881  0.43127  Biso   1.000  C
  C45      1.0000 0.00677  0.80476  0.50373  Biso   1.000  C
  C46      1.0000 0.07112  0.33799  0.21218  Biso   1.000  C
  C47      1.0000 0.00377  0.35523  0.17913  Biso   1.000  C
  C48      1.0000 0.01818  0.38738  0.09168  Biso   1.000  C
  C49      1.0000 0.95711  0.40691  0.05921  Biso   1.000  C
  C50      1.0000 0.87681  0.39991  0.11411  Biso   1.000  C
  C51      1.0000 0.86709  0.36135  0.19743  Biso   1.000  C
  C52      1.0000 0.92886  0.34052  0.23020  Biso   1.000  C
  C53      1.0000 0.80881  0.43127  0.07785  Biso   1.000  C
  C54      1.0000 0.80476  0.50373  0.00677  Biso   1.000  C
  C55      1.0000 0.71218  0.83799  0.57112  Biso   1.000  C
  C56      1.0000 0.67913  0.85523  0.50377  Biso   1.000  C
  C57      1.0000 0.59168  0.88738  0.51818  Biso   1.000  C
  C58      1.0000 0.55921  0.90691  0.45711  Biso   1.000  C
  C59      1.0000 0.61411  0.89991  0.37681  Biso   1.000  C
  C60      1.0000 0.69743  0.86135  0.36709  Biso   1.000  C
  C61      1.0000 0.73020  0.84052  0.42886  Biso   1.000  C
  C62      1.0000 0.57785  0.93127  0.30881  Biso   1.000  C
  C63      1.0000 0.50677  0.00373  0.30476  Biso   1.000  C
  C64      1.0000 0.57112  0.71218  0.83799  Biso   1.000  C
  C65      1.0000 0.50377  0.67913  0.85523  Biso   1.000  C
  C66      1.0000 0.51818  0.59168  0.88738  Biso   1.000  C
  C67      1.0000 0.45711  0.55921  0.90691  Biso   1.000  C
  C68      1.0000 0.37681  0.61411  0.89991  Biso   1.000  C
  C69      1.0000 0.36709  0.69743  0.86135  Biso   1.000  C
  C70      1.0000 0.42886  0.73020  0.84052  Biso   1.000  C
  C71      1.0000 0.30881  0.57785  0.93127  Biso   1.000  C
  C72      1.0000 0.30476  0.50677  0.00373  Biso   1.000  C
  C73      1.0000 0.83799  0.57112  0.71218  Biso   1.000  C
  C74      1.0000 0.85523  0.50377  0.67913  Biso   1.000  C
  C75      1.0000 0.88738  0.51818  0.59168  Biso   1.000  C
  C76      1.0000 0.90691  0.45711  0.55921  Biso   1.000  C
  C77      1.0000 0.89991  0.37681  0.61411  Biso   1.000  C
  C78      1.0000 0.86135  0.36709  0.69743  Biso   1.000  C
  C79      1.0000 0.84052  0.42886  0.73020  Biso   1.000  C
  C80      1.0000 0.93127  0.30881  0.57785  Biso   1.000  C
  C81      1.0000 0.00373  0.30476  0.50677  Biso   1.000  C
  C82      1.0000 0.66201  0.78782  0.92888  Biso   1.000  C
  C83      1.0000 0.64477  0.82087  0.99623  Biso   1.000  C
  C84      1.0000 0.61262  0.90832  0.98182  Biso   1.000  C
  C85      1.0000 0.59309  0.94079  0.04289  Biso   1.000  C
  C86      1.0000 0.60009  0.88589  0.12319  Biso   1.000  C
  C87      1.0000 0.63865  0.80257  0.13291  Biso   1.000  C
  C88      1.0000 0.65948  0.76980  0.07114  Biso   1.000  C
  C89      1.0000 0.56873  0.92215  0.19119  Biso   1.000  C
  C90      1.0000 0.49627  0.99323  0.19524  Biso   1.000  C
  C91      1.0000 0.78782  0.92888  0.66201  Biso   1.000  C
  C92      1.0000 0.82087  0.99623  0.64477  Biso   1.000  C
  C93      1.0000 0.90832  0.98182  0.61262  Biso   1.000  C
  C94      1.0000 0.94079  0.04289  0.59309  Biso   1.000  C
  C95      1.0000 0.88589  0.12319  0.60009  Biso   1.000  C
  C96      1.0000 0.80257  0.13291  0.63865  Biso   1.000  C
  C97      1.0000 0.76980  0.07114  0.65948  Biso   1.000  C
  C98      1.0000 0.92215  0.19119  0.56873  Biso   1.000  C
  C99      1.0000 0.99323  0.19524  0.49627  Biso   1.000  C
  C100     1.0000 0.92888  0.66201  0.78782  Biso   1.000  C
  C101     1.0000 0.99623  0.64477  0.82087  Biso   1.000  C
  C102     1.0000 0.98182  0.61262  0.90832  Biso   1.000  C
  C103     1.0000 0.04289  0.59309  0.94079  Biso   1.000  C
  C104     1.0000 0.12319  0.60009  0.88589  Biso   1.000  C
  C105     1.0000 0.13291  0.63865  0.80257  Biso   1.000  C
  C106     1.0000 0.07114  0.65948  0.76980  Biso   1.000  C
  C107     1.0000 0.19119  0.56873  0.92215  Biso   1.000  C
  C108     1.0000 0.19524  0.49627  0.99323  Biso   1.000  C
  C109     1.0000 0.39125  0.10875  0.75000  Biso   1.000  C
  C110     1.0000 0.75000  0.39125  0.10875  Biso   1.000  C
  C111     1.0000 0.10875  0.75000  0.39125  Biso   1.000  C
  C112     1.0000 0.60875  0.89125  0.25000  Biso   1.000  C
  C113     1.0000 0.25000  0.60875  0.89125  Biso   1.000  C
  C114     1.0000 0.89125  0.25000  0.60875  Biso   1.000  C
  N1       1.0000 0.53414  0.96586  0.75000  Biso   1.000  N
  N2       1.0000 0.75000  0.53414  0.96586  Biso   1.000  N
  N3       1.0000 0.96586  0.75000  0.53414  Biso   1.000  N
  N4       1.0000 0.46586  0.03414  0.25000  Biso   1.000  N
  N5       1.0000 0.25000  0.46586  0.03414  Biso   1.000  N
  N6       1.0000 0.03414  0.25000  0.46586  Biso   1.000  N
  O1       1.0000 0.33891  0.12699  0.37375  Biso   1.000  O
  O2       1.0000 0.21373  0.21065  0.43378  Biso   1.000  O
  O3       1.0000 0.37375  0.33891  0.12699  Biso   1.000  O
  O4       1.0000 0.43378  0.21373  0.21065  Biso   1.000  O
  O5       1.0000 0.12699  0.37375  0.33891  Biso   1.000  O
  O6       1.0000 0.21065  0.43378  0.21373  Biso   1.000  O
  O7       1.0000 0.37301  0.16109  0.12625  Biso   1.000  O
  O8       1.0000 0.28935  0.28627  0.06622  Biso   1.000  O
  O9       1.0000 0.16109  0.12625  0.37301  Biso   1.000  O
  O10      1.0000 0.28627  0.06622  0.28935  Biso   1.000  O
  O11      1.0000 0.12625  0.37301  0.16109  Biso   1.000  O
  O12      1.0000 0.06622  0.28935  0.28627  Biso   1.000  O
  O13      1.0000 0.66109  0.87301  0.62625  Biso   1.000  O
  O14      1.0000 0.78627  0.78935  0.56622  Biso   1.000  O
  O15      1.0000 0.62625  0.66109  0.87301  Biso   1.000  O
  O16      1.0000 0.56622  0.78627  0.78935  Biso   1.000  O
  O17      1.0000 0.87301  0.62625  0.66109  Biso   1.000  O
  O18      1.0000 0.78935  0.56622  0.78627  Biso   1.000  O
  O19      1.0000 0.62699  0.83891  0.87375  Biso   1.000  O
  O20      1.0000 0.71065  0.71373  0.93378  Biso   1.000  O
  O21      1.0000 0.83891  0.87375  0.62699  Biso   1.000  O
  O22      1.0000 0.71373  0.93378  0.71065  Biso   1.000  O
  O23      1.0000 0.87375  0.62699  0.83891  Biso   1.000  O
  O24      1.0000 0.93378  0.71065  0.71373  Biso   1.000  O
  O25      1.0000 0.25000  0.25000  0.25000  Biso   1.000  O
  O26      1.0000 0.75000  0.75000  0.75000  Biso   1.000  O
