data_image0
_cell_length_a       11.37
_cell_length_b       11.4274
_cell_length_c       12.1912
_cell_angle_alpha    67.952
_cell_angle_beta     87.743
_cell_angle_gamma    69.803

_symmetry_space_group_name_H-M    P 1
_symmetry_int_tables_number       1

loop_
  _symmetry_equiv_pos_as_xyz
  'x, y, z'

loop_
  _atom_site_label
  _atom_site_occupancy
  _atom_site_fract_x
  _atom_site_fract_y
  _atom_site_fract_z
  _atom_site_thermal_displace_type
  _atom_site_B_iso_or_equiv
  _atom_site_type_symbol
  Cu1      1.0000 0.31511  0.63247  0.27502  Biso   1.000  Cu
  Cu2      1.0000 0.37101  0.18390  0.58052  Biso   1.000  Cu
  Cu3      1.0000 0.54820  0.87651  0.98994  Biso   1.000  Cu
  Cu4      1.0000 0.68489  0.36753  0.72498  Biso   1.000  Cu
  Cu5      1.0000 0.62899  0.81610  0.41948  Biso   1.000  Cu
  Cu6      1.0000 0.45180  0.12349  0.01006  Biso   1.000  Cu
  H1       1.0000 0.91420  0.41450  0.33170  Biso   1.000  H
  H2       1.0000 0.96620  0.49300  0.39100  Biso   1.000  H
  H3       1.0000 0.82310  0.50040  0.39960  Biso   1.000  H
  H4       1.0000 0.68300  0.62190  0.19530  Biso   1.000  H
  H5       1.0000 0.39080  0.89060  0.71610  Biso   1.000  H
  H6       1.0000 0.76900  0.96050  0.91180  Biso   1.000  H
  H7       1.0000 0.85140  0.98000  0.00250  Biso   1.000  H
  H8       1.0000 0.91840  0.88350  0.93390  Biso   1.000  H
  H9       1.0000 0.09060  0.60600  0.25250  Biso   1.000  H
  H10      1.0000 0.08110  0.72680  0.12850  Biso   1.000  H
  H11      1.0000 0.85350  0.88810  0.26070  Biso   1.000  H
  H12      1.0000 0.87910  0.02210  0.35620  Biso   1.000  H
  H13      1.0000 0.07910  0.99600  0.41900  Biso   1.000  H
  H14      1.0000 0.34880  0.85680  0.32310  Biso   1.000  H
  H15      1.0000 0.35370  0.72310  0.43330  Biso   1.000  H
  H16      1.0000 0.29080  0.67930  0.71580  Biso   1.000  H
  H17      1.0000 0.39510  0.61820  0.64050  Biso   1.000  H
  H18      1.0000 0.43620  0.65040  0.74690  Biso   1.000  H
  H19      1.0000 0.30650  0.20500  0.34200  Biso   1.000  H
  H20      1.0000 0.33770  0.10040  0.27760  Biso   1.000  H
  H21      1.0000 0.19810  0.15920  0.31130  Biso   1.000  H
  H22      1.0000 0.08580  0.58550  0.66830  Biso   1.000  H
  H23      1.0000 0.03380  0.50700  0.60900  Biso   1.000  H
  H24      1.0000 0.17690  0.49960  0.60040  Biso   1.000  H
  H25      1.0000 0.31700  0.37810  0.80470  Biso   1.000  H
  H26      1.0000 0.60920  0.10940  0.28390  Biso   1.000  H
  H27      1.0000 0.23100  0.03950  0.08820  Biso   1.000  H
  H28      1.0000 0.14860  0.02000  0.99750  Biso   1.000  H
  H29      1.0000 0.08160  0.11650  0.06610  Biso   1.000  H
  H30      1.0000 0.90940  0.39400  0.74750  Biso   1.000  H
  H31      1.0000 0.91890  0.27320  0.87150  Biso   1.000  H
  H32      1.0000 0.14650  0.11190  0.73930  Biso   1.000  H
  H33      1.0000 0.12090  0.97790  0.64380  Biso   1.000  H
  H34      1.0000 0.92090  0.00400  0.58100  Biso   1.000  H
  H35      1.0000 0.65120  0.14320  0.67690  Biso   1.000  H
  H36      1.0000 0.64630  0.27690  0.56670  Biso   1.000  H
  H37      1.0000 0.70920  0.32070  0.28420  Biso   1.000  H
  H38      1.0000 0.60490  0.38180  0.35950  Biso   1.000  H
  H39      1.0000 0.56380  0.34960  0.25310  Biso   1.000  H
  H40      1.0000 0.69350  0.79500  0.65800  Biso   1.000  H
  H41      1.0000 0.66230  0.89960  0.72240  Biso   1.000  H
  H42      1.0000 0.80190  0.84080  0.68870  Biso   1.000  H
  C1       1.0000 0.89260  0.49600  0.34930  Biso   1.000  C
  C2       1.0000 0.85320  0.61840  0.23530  Biso   1.000  C
  C3       1.0000 0.91340  0.70570  0.16930  Biso   1.000  C
  C4       1.0000 0.82650  0.80060  0.06880  Biso   1.000  C
  C5       1.0000 0.84270  0.91570  0.97110  Biso   1.000  C
  C6       1.0000 0.03970  0.70080  0.20220  Biso   1.000  C
  C7       1.0000 0.04270  0.78780  0.26650  Biso   1.000  C
  C8       1.0000 0.93510  0.87960  0.28590  Biso   1.000  C
  C9       1.0000 0.95070  0.95740  0.34260  Biso   1.000  C
  C10      1.0000 0.06830  0.94230  0.37940  Biso   1.000  C
  C11      1.0000 0.17210  0.84840  0.35880  Biso   1.000  C
  C12      1.0000 0.30860  0.82200  0.39570  Biso   1.000  C
  C13      1.0000 0.37060  0.67990  0.68250  Biso   1.000  C
  C14      1.0000 0.35460  0.82130  0.59640  Biso   1.000  C
  C15      1.0000 0.32570  0.88360  0.47930  Biso   1.000  C
  C16      1.0000 0.32060  0.01640  0.45310  Biso   1.000  C
  C17      1.0000 0.28800  0.12970  0.33620  Biso   1.000  C
  C18      1.0000 0.47730  0.01440  0.84150  Biso   1.000  C
  C19      1.0000 0.41100  0.69480  0.15440  Biso   1.000  C
  C20      1.0000 0.34040  0.35840  0.46710  Biso   1.000  C
  C21      1.0000 0.10740  0.50400  0.65070  Biso   1.000  C
  C22      1.0000 0.14680  0.38160  0.76470  Biso   1.000  C
  C23      1.0000 0.08660  0.29430  0.83070  Biso   1.000  C
  C24      1.0000 0.17350  0.19940  0.93120  Biso   1.000  C
  C25      1.0000 0.15730  0.08430  0.02890  Biso   1.000  C
  C26      1.0000 0.96030  0.29920  0.79780  Biso   1.000  C
  C27      1.0000 0.95730  0.21220  0.73350  Biso   1.000  C
  C28      1.0000 0.06490  0.12040  0.71410  Biso   1.000  C
  C29      1.0000 0.04930  0.04260  0.65740  Biso   1.000  C
  C30      1.0000 0.93170  0.05770  0.62060  Biso   1.000  C
  C31      1.0000 0.82790  0.15160  0.64120  Biso   1.000  C
  C32      1.0000 0.69140  0.17800  0.60430  Biso   1.000  C
  C33      1.0000 0.62940  0.32010  0.31750  Biso   1.000  C
  C34      1.0000 0.64540  0.17870  0.40360  Biso   1.000  C
  C35      1.0000 0.67430  0.11640  0.52070  Biso   1.000  C
  C36      1.0000 0.67940  0.98360  0.54690  Biso   1.000  C
  C37      1.0000 0.71200  0.87030  0.66380  Biso   1.000  C
  C38      1.0000 0.52270  0.98560  0.15850  Biso   1.000  C
  C39      1.0000 0.58900  0.30520  0.84560  Biso   1.000  C
  C40      1.0000 0.65960  0.64160  0.53290  Biso   1.000  C
  N1       1.0000 0.72220  0.77350  0.07250  Biso   1.000  N
  N2       1.0000 0.73880  0.66150  0.17310  Biso   1.000  N
  N3       1.0000 0.15920  0.77270  0.30360  Biso   1.000  N
  N4       1.0000 0.36960  0.90990  0.64100  Biso   1.000  N
  N5       1.0000 0.34630  0.03180  0.55060  Biso   1.000  N
  N6       1.0000 0.43500  0.08700  0.74720  Biso   1.000  N
  N7       1.0000 0.46870  0.74530  0.08430  Biso   1.000  N
  N8       1.0000 0.32650  0.46200  0.39370  Biso   1.000  N
  N9       1.0000 0.27780  0.22650  0.92750  Biso   1.000  N
  N10      1.0000 0.26120  0.33850  0.82690  Biso   1.000  N
  N11      1.0000 0.84080  0.22730  0.69640  Biso   1.000  N
  N12      1.0000 0.63040  0.09010  0.35900  Biso   1.000  N
  N13      1.0000 0.65370  0.96820  0.44940  Biso   1.000  N
  N14      1.0000 0.56500  0.91300  0.25280  Biso   1.000  N
  N15      1.0000 0.53130  0.25470  0.91570  Biso   1.000  N
  N16      1.0000 0.67350  0.53800  0.60630  Biso   1.000  N
