data_image0
_cell_length_a       11.4569
_cell_length_b       11.4723
_cell_length_c       13.1199
_cell_angle_alpha    90.176
_cell_angle_beta     115.705
_cell_angle_gamma    110.147

_symmetry_space_group_name_H-M    P 1
_symmetry_int_tables_number       1

loop_
  _symmetry_equiv_pos_as_xyz
  'x, y, z'

loop_
  _atom_site_label
  _atom_site_occupancy
  _atom_site_fract_x
  _atom_site_fract_y
  _atom_site_fract_z
  _atom_site_thermal_displace_type
  _atom_site_B_iso_or_equiv
  _atom_site_type_symbol
  Cu1      1.0000 0.82917  0.87972  0.59108  Biso   1.000  Cu
  Cu2      1.0000 0.13897  0.04955  0.00474  Biso   1.000  Cu
  Cu3      1.0000 0.35496  0.81607  0.29581  Biso   1.000  Cu
  Cu4      1.0000 0.17083  0.12028  0.40892  Biso   1.000  Cu
  Cu5      1.0000 0.86103  0.95045  0.99526  Biso   1.000  Cu
  Cu6      1.0000 0.64504  0.18393  0.70419  Biso   1.000  Cu
  H1       1.0000 0.55510  0.33930  0.40100  Biso   1.000  H
  H2       1.0000 0.58460  0.47850  0.37960  Biso   1.000  H
  H3       1.0000 0.48970  0.42010  0.43840  Biso   1.000  H
  H4       1.0000 0.38490  0.19010  0.22810  Biso   1.000  H
  H5       1.0000 0.12900  0.89490  0.70270  Biso   1.000  H
  H6       1.0000 0.99440  0.28590  0.00400  Biso   1.000  H
  H7       1.0000 0.09000  0.41930  0.99890  Biso   1.000  H
  H8       1.0000 0.07220  0.29780  0.92910  Biso   1.000  H
  H9       1.0000 0.39920  0.59330  0.28600  Biso   1.000  H
  H10      1.0000 0.27570  0.57600  0.16390  Biso   1.000  H
  H11      1.0000 0.12920  0.35630  0.29130  Biso   1.000  H
  H12      1.0000 0.99660  0.37790  0.37720  Biso   1.000  H
  H13      1.0000 0.00010  0.57460  0.41920  Biso   1.000  H
  H14      1.0000 0.08770  0.81980  0.31160  Biso   1.000  H
  H15      1.0000 0.24130  0.85850  0.40980  Biso   1.000  H
  H16      1.0000 0.33980  0.83420  0.72550  Biso   1.000  H
  H17      1.0000 0.36490  0.84210  0.61690  Biso   1.000  H
  H18      1.0000 0.38870  0.96500  0.68890  Biso   1.000  H
  H19      1.0000 0.76820  0.80680  0.35110  Biso   1.000  H
  H20      1.0000 0.85700  0.83240  0.28430  Biso   1.000  H
  H21      1.0000 0.79920  0.69720  0.31060  Biso   1.000  H
  H22      1.0000 0.44490  0.66070  0.59900  Biso   1.000  H
  H23      1.0000 0.41540  0.52150  0.62040  Biso   1.000  H
  H24      1.0000 0.51030  0.57990  0.56160  Biso   1.000  H
  H25      1.0000 0.61510  0.80990  0.77190  Biso   1.000  H
  H26      1.0000 0.87100  0.10510  0.29730  Biso   1.000  H
  H27      1.0000 0.00560  0.71410  0.99600  Biso   1.000  H
  H28      1.0000 0.91000  0.58070  0.00110  Biso   1.000  H
  H29      1.0000 0.92780  0.70220  0.07090  Biso   1.000  H
  H30      1.0000 0.60080  0.40670  0.71400  Biso   1.000  H
  H31      1.0000 0.72430  0.42400  0.83610  Biso   1.000  H
  H32      1.0000 0.87080  0.64370  0.70870  Biso   1.000  H
  H33      1.0000 0.00340  0.62210  0.62280  Biso   1.000  H
  H34      1.0000 0.99990  0.42540  0.58080  Biso   1.000  H
  H35      1.0000 0.91230  0.18020  0.68840  Biso   1.000  H
  H36      1.0000 0.75870  0.14150  0.59020  Biso   1.000  H
  H37      1.0000 0.66020  0.16580  0.27450  Biso   1.000  H
  H38      1.0000 0.63510  0.15790  0.38310  Biso   1.000  H
  H39      1.0000 0.61130  0.03500  0.31110  Biso   1.000  H
  H40      1.0000 0.23180  0.19320  0.64890  Biso   1.000  H
  H41      1.0000 0.14300  0.16760  0.71570  Biso   1.000  H
  H42      1.0000 0.20080  0.30280  0.68940  Biso   1.000  H
  C1       1.0000 0.51600  0.40270  0.38160  Biso   1.000  C
  C2       1.0000 0.38940  0.35650  0.26627  Biso   1.000  C
  C3       1.0000 0.30065  0.41222  0.20138  Biso   1.000  C
  C4       1.0000 0.20246  0.32330  0.10029  Biso   1.000  C
  C5       1.0000 0.07860  0.33240  0.99890  Biso   1.000  C
  C6       1.0000 0.30330  0.53920  0.23284  Biso   1.000  C
  C7       1.0000 0.21059  0.54015  0.28651  Biso   1.000  C
  C8       1.0000 0.13050  0.43520  0.30960  Biso   1.000  C
  C9       1.0000 0.05130  0.44820  0.36040  Biso   1.000  C
  C10      1.0000 0.05390  0.56500  0.38590  Biso   1.000  C
  C11      1.0000 0.13690  0.66821  0.36168  Biso   1.000  C
  C12      1.0000 0.14520  0.80050  0.38385  Biso   1.000  C
  C13      1.0000 0.33240  0.87650  0.66130  Biso   1.000  C
  C14      1.0000 0.18052  0.85820  0.58654  Biso   1.000  C
  C15      1.0000 0.09954  0.82449  0.47059  Biso   1.000  C
  C16      1.0000 0.96671  0.81970  0.44991  Biso   1.000  C
  C17      1.0000 0.83620  0.78610  0.33917  Biso   1.000  C
  C18      1.0000 0.01662  0.98550  0.84877  Biso   1.000  C
  C19      1.0000 0.29618  0.90997  0.18121  Biso   1.000  C
  C20      1.0000 0.64355  0.84850  0.48797  Biso   1.000  C
  C21      1.0000 0.48400  0.59730  0.61840  Biso   1.000  C
  C22      1.0000 0.61060  0.64350  0.73373  Biso   1.000  C
  C23      1.0000 0.69935  0.58778  0.79862  Biso   1.000  C
  C24      1.0000 0.79754  0.67670  0.89971  Biso   1.000  C
  C25      1.0000 0.92140  0.66760  0.00110  Biso   1.000  C
  C26      1.0000 0.69670  0.46080  0.76716  Biso   1.000  C
  C27      1.0000 0.78941  0.45985  0.71349  Biso   1.000  C
  C28      1.0000 0.86950  0.56480  0.69040  Biso   1.000  C
  C29      1.0000 0.94870  0.55180  0.63960  Biso   1.000  C
  C30      1.0000 0.94610  0.43500  0.61410  Biso   1.000  C
  C31      1.0000 0.86310  0.33179  0.63832  Biso   1.000  C
  C32      1.0000 0.85480  0.19950  0.61615  Biso   1.000  C
  C33      1.0000 0.66760  0.12350  0.33870  Biso   1.000  C
  C34      1.0000 0.81948  0.14180  0.41346  Biso   1.000  C
  C35      1.0000 0.90046  0.17551  0.52941  Biso   1.000  C
  C36      1.0000 0.03329  0.18030  0.55009  Biso   1.000  C
  C37      1.0000 0.16380  0.21390  0.66083  Biso   1.000  C
  C38      1.0000 0.98338  0.01450  0.15123  Biso   1.000  C
  C39      1.0000 0.70382  0.09003  0.81879  Biso   1.000  C
  C40      1.0000 0.35645  0.15150  0.51203  Biso   1.000  C
  N1       1.0000 0.23010  0.21959  0.10310  Biso   1.000  N
  N2       1.0000 0.34482  0.24274  0.20503  Biso   1.000  N
  N3       1.0000 0.21485  0.65588  0.31273  Biso   1.000  N
  N4       1.0000 0.09997  0.87289  0.63048  Biso   1.000  N
  N5       1.0000 0.96775  0.84923  0.54874  Biso   1.000  N
  N6       1.0000 0.94758  0.94430  0.75345  Biso   1.000  N
  N7       1.0000 0.25506  0.96765  0.11408  Biso   1.000  N
  N8       1.0000 0.53290  0.83358  0.41946  Biso   1.000  N
  N9       1.0000 0.76990  0.78041  0.89690  Biso   1.000  N
  N10      1.0000 0.65518  0.75726  0.79497  Biso   1.000  N
  N11      1.0000 0.78515  0.34412  0.68727  Biso   1.000  N
  N12      1.0000 0.90003  0.12711  0.36952  Biso   1.000  N
  N13      1.0000 0.03225  0.15077  0.45126  Biso   1.000  N
  N14      1.0000 0.05242  0.05570  0.24655  Biso   1.000  N
  N15      1.0000 0.74494  0.03235  0.88592  Biso   1.000  N
  N16      1.0000 0.46710  0.16642  0.58054  Biso   1.000  N
