data_image0
_cell_length_a       11.3571
_cell_length_b       11.4964
_cell_length_c       12.9352
_cell_angle_alpha    88.867
_cell_angle_beta     64.614
_cell_angle_gamma    69.305

_symmetry_space_group_name_H-M    P 1
_symmetry_int_tables_number       1

loop_
  _symmetry_equiv_pos_as_xyz
  'x, y, z'

loop_
  _atom_site_label
  _atom_site_occupancy
  _atom_site_fract_x
  _atom_site_fract_y
  _atom_site_fract_z
  _atom_site_thermal_displace_type
  _atom_site_B_iso_or_equiv
  _atom_site_type_symbol
  Cu1      1.0000 0.86319  0.05879  0.00615  Biso   1.000  Cu
  Cu2      1.0000 0.17028  0.87794  0.59423  Biso   1.000  Cu
  Cu3      1.0000 0.64266  0.81923  0.29311  Biso   1.000  Cu
  Cu4      1.0000 0.13681  0.94121  0.99385  Biso   1.000  Cu
  Cu5      1.0000 0.82972  0.12206  0.40577  Biso   1.000  Cu
  Cu6      1.0000 0.35734  0.18077  0.70689  Biso   1.000  Cu
  H1       1.0000 0.86710  0.88810  0.70510  Biso   1.000  H
  H2       1.0000 0.61200  0.19800  0.22540  Biso   1.000  H
  H3       1.0000 0.91760  0.82100  0.30520  Biso   1.000  H
  H4       1.0000 0.76270  0.85780  0.40180  Biso   1.000  H
  H5       1.0000 0.22180  0.70200  0.32530  Biso   1.000  H
  H6       1.0000 0.14220  0.81240  0.27710  Biso   1.000  H
  H7       1.0000 0.21880  0.83720  0.34530  Biso   1.000  H
  H8       1.0000 0.72350  0.58300  0.15770  Biso   1.000  H
  H9       1.0000 0.60130  0.59800  0.28110  Biso   1.000  H
  H10      1.0000 0.88010  0.35850  0.28210  Biso   1.000  H
  H11      1.0000 0.01130  0.57250  0.41090  Biso   1.000  H
  H12      1.0000 0.89020  0.40910  0.95850  Biso   1.000  H
  H13      1.0000 0.98510  0.34990  0.02020  Biso   1.000  H
  H14      1.0000 0.96890  0.26270  0.93970  Biso   1.000  H
  H15      1.0000 0.61200  0.95260  0.69800  Biso   1.000  H
  H16      1.0000 0.62990  0.85060  0.60780  Biso   1.000  H
  H17      1.0000 0.66210  0.81020  0.71230  Biso   1.000  H
  H18      1.0000 0.45230  0.34140  0.40690  Biso   1.000  H
  H19      1.0000 0.50130  0.44450  0.43200  Biso   1.000  H
  H20      1.0000 0.40360  0.47430  0.37060  Biso   1.000  H
  H21      1.0000 0.01630  0.37770  0.36600  Biso   1.000  H
  H22      1.0000 0.13290  0.11190  0.29490  Biso   1.000  H
  H23      1.0000 0.38800  0.80200  0.77460  Biso   1.000  H
  H24      1.0000 0.08240  0.17900  0.69480  Biso   1.000  H
  H25      1.0000 0.23730  0.14220  0.59820  Biso   1.000  H
  H26      1.0000 0.77820  0.29800  0.67470  Biso   1.000  H
  H27      1.0000 0.85780  0.18760  0.72290  Biso   1.000  H
  H28      1.0000 0.78120  0.16280  0.65470  Biso   1.000  H
  H29      1.0000 0.27650  0.41700  0.84230  Biso   1.000  H
  H30      1.0000 0.39870  0.40200  0.71890  Biso   1.000  H
  H31      1.0000 0.11990  0.64150  0.71790  Biso   1.000  H
  H32      1.0000 0.98870  0.42750  0.58910  Biso   1.000  H
  H33      1.0000 0.10980  0.59090  0.04150  Biso   1.000  H
  H34      1.0000 0.01490  0.65010  0.97980  Biso   1.000  H
  H35      1.0000 0.03110  0.73730  0.06030  Biso   1.000  H
  H36      1.0000 0.38800  0.04740  0.30200  Biso   1.000  H
  H37      1.0000 0.37010  0.14940  0.39220  Biso   1.000  H
  H38      1.0000 0.33790  0.18980  0.28770  Biso   1.000  H
  H39      1.0000 0.54770  0.65860  0.59310  Biso   1.000  H
  H40      1.0000 0.49870  0.55550  0.56800  Biso   1.000  H
  H41      1.0000 0.59640  0.52570  0.62940  Biso   1.000  H
  H42      1.0000 0.98370  0.62230  0.63400  Biso   1.000  H
  C1       1.0000 0.03416  0.82102  0.45036  Biso   1.000  C
  C2       1.0000 0.98777  0.98815  0.85227  Biso   1.000  C
  C3       1.0000 0.79742  0.33014  0.09580  Biso   1.000  C
  C4       1.0000 0.69790  0.91674  0.17761  Biso   1.000  C
  C5       1.0000 0.90366  0.82207  0.46723  Biso   1.000  C
  C6       1.0000 0.60670  0.36428  0.26323  Biso   1.000  C
  C7       1.0000 0.81952  0.85270  0.58481  Biso   1.000  C
  C8       1.0000 0.85936  0.80019  0.37740  Biso   1.000  C
  C9       1.0000 0.69927  0.41862  0.19656  Biso   1.000  C
  C10      1.0000 0.86888  0.66896  0.35466  Biso   1.000  C
  C11      1.0000 0.16600  0.79040  0.33965  Biso   1.000  C
  C12      1.0000 0.79223  0.54434  0.28082  Biso   1.000  C
  C13      1.0000 0.69720  0.54479  0.22744  Biso   1.000  C
  C14      1.0000 0.87760  0.43714  0.30130  Biso   1.000  C
  C15      1.0000 0.95590  0.56442  0.37770  Biso   1.000  C
  C16      1.0000 0.92140  0.33870  0.99450  Biso   1.000  C
  C17      1.0000 0.66680  0.86790  0.65740  Biso   1.000  C
  C18      1.0000 0.47960  0.41020  0.37850  Biso   1.000  C
  C19      1.0000 0.95870  0.44900  0.35070  Biso   1.000  C
  C20      1.0000 0.35630  0.84809  0.48951  Biso   1.000  C
  C21      1.0000 0.96584  0.17898  0.54964  Biso   1.000  C
  C22      1.0000 0.01223  0.01185  0.14773  Biso   1.000  C
  C23      1.0000 0.20258  0.66986  0.90420  Biso   1.000  C
  C24      1.0000 0.30210  0.08326  0.82239  Biso   1.000  C
  C25      1.0000 0.09634  0.17793  0.53277  Biso   1.000  C
  C26      1.0000 0.39330  0.63572  0.73677  Biso   1.000  C
  C27      1.0000 0.18048  0.14730  0.41519  Biso   1.000  C
  C28      1.0000 0.14064  0.19981  0.62260  Biso   1.000  C
  C29      1.0000 0.30073  0.58138  0.80344  Biso   1.000  C
  C30      1.0000 0.13112  0.33104  0.64534  Biso   1.000  C
  C31      1.0000 0.83400  0.20960  0.66035  Biso   1.000  C
  C32      1.0000 0.20777  0.45566  0.71918  Biso   1.000  C
  C33      1.0000 0.30280  0.45521  0.77256  Biso   1.000  C
  C34      1.0000 0.12240  0.56286  0.69870  Biso   1.000  C
  C35      1.0000 0.04410  0.43558  0.62230  Biso   1.000  C
  C36      1.0000 0.07860  0.66130  0.00550  Biso   1.000  C
  C37      1.0000 0.33320  0.13210  0.34260  Biso   1.000  C
  C38      1.0000 0.52040  0.58980  0.62150  Biso   1.000  C
  C39      1.0000 0.04130  0.55100  0.64930  Biso   1.000  C
  C40      1.0000 0.64370  0.15191  0.51049  Biso   1.000  C
  N1       1.0000 0.76677  0.22866  0.10060  Biso   1.000  N
  N2       1.0000 0.78782  0.65779  0.30773  Biso   1.000  N
  N3       1.0000 0.89772  0.86786  0.63194  Biso   1.000  N
  N4       1.0000 0.03115  0.84788  0.55187  Biso   1.000  N
  N5       1.0000 0.73707  0.97692  0.11123  Biso   1.000  N
  N6       1.0000 0.65227  0.25085  0.20193  Biso   1.000  N
  N7       1.0000 0.05615  0.94303  0.75739  Biso   1.000  N
  N8       1.0000 0.46710  0.83539  0.42002  Biso   1.000  N
  N9       1.0000 0.23323  0.77134  0.89940  Biso   1.000  N
  N10      1.0000 0.21218  0.34221  0.69227  Biso   1.000  N
  N11      1.0000 0.10228  0.13214  0.36806  Biso   1.000  N
  N12      1.0000 0.96885  0.15212  0.44813  Biso   1.000  N
  N13      1.0000 0.26293  0.02308  0.88877  Biso   1.000  N
  N14      1.0000 0.34773  0.74915  0.79807  Biso   1.000  N
  N15      1.0000 0.94385  0.05697  0.24261  Biso   1.000  N
  N16      1.0000 0.53290  0.16461  0.57998  Biso   1.000  N
