data_image0
_cell_length_a       12.7
_cell_length_b       12.7
_cell_length_c       25.364
_cell_angle_alpha    90
_cell_angle_beta     90
_cell_angle_gamma    90

_symmetry_space_group_name_H-M    P 1
_symmetry_int_tables_number       1

loop_
  _symmetry_equiv_pos_as_xyz
  'x, y, z'

loop_
  _atom_site_label
  _atom_site_occupancy
  _atom_site_fract_x
  _atom_site_fract_y
  _atom_site_fract_z
  _atom_site_thermal_displace_type
  _atom_site_B_iso_or_equiv
  _atom_site_type_symbol
  Zn1      1.0000 0.03855  0.93074  0.43753  Biso   1.000  Zn
  Zn2      1.0000 0.46145  0.56926  0.43753  Biso   1.000  Zn
  Zn3      1.0000 0.56926  0.03855  0.43753  Biso   1.000  Zn
  Zn4      1.0000 0.93074  0.46145  0.43753  Biso   1.000  Zn
  Zn5      1.0000 0.46145  0.93074  0.06247  Biso   1.000  Zn
  Zn6      1.0000 0.03855  0.56926  0.06247  Biso   1.000  Zn
  Zn7      1.0000 0.93074  0.03855  0.06247  Biso   1.000  Zn
  Zn8      1.0000 0.56926  0.46145  0.06247  Biso   1.000  Zn
  Zn9      1.0000 0.96145  0.06926  0.56247  Biso   1.000  Zn
  Zn10     1.0000 0.53855  0.43074  0.56247  Biso   1.000  Zn
  Zn11     1.0000 0.43074  0.96145  0.56247  Biso   1.000  Zn
  Zn12     1.0000 0.06926  0.53855  0.56247  Biso   1.000  Zn
  Zn13     1.0000 0.53855  0.06926  0.93753  Biso   1.000  Zn
  Zn14     1.0000 0.96145  0.43074  0.93753  Biso   1.000  Zn
  Zn15     1.0000 0.06926  0.96145  0.93753  Biso   1.000  Zn
  Zn16     1.0000 0.43074  0.53855  0.93753  Biso   1.000  Zn
  H1       1.0000 0.27670  0.93970  0.46870  Biso   1.000  H
  H2       1.0000 0.07130  0.92700  0.23740  Biso   1.000  H
  H3       1.0000 0.18360  0.93170  0.16560  Biso   1.000  H
  H4       1.0000 0.25600  0.03230  0.64570  Biso   1.000  H
  H5       1.0000 0.13950  0.04490  0.64740  Biso   1.000  H
  H6       1.0000 0.22330  0.56030  0.46870  Biso   1.000  H
  H7       1.0000 0.42870  0.57300  0.23740  Biso   1.000  H
  H8       1.0000 0.31640  0.56830  0.16560  Biso   1.000  H
  H9       1.0000 0.24400  0.46770  0.64570  Biso   1.000  H
  H10      1.0000 0.36050  0.45510  0.64740  Biso   1.000  H
  H11      1.0000 0.56030  0.27670  0.46870  Biso   1.000  H
  H12      1.0000 0.57300  0.07130  0.23740  Biso   1.000  H
  H13      1.0000 0.56830  0.18360  0.16560  Biso   1.000  H
  H14      1.0000 0.46770  0.25600  0.64570  Biso   1.000  H
  H15      1.0000 0.45510  0.13950  0.64740  Biso   1.000  H
  H16      1.0000 0.93970  0.22330  0.46870  Biso   1.000  H
  H17      1.0000 0.92700  0.42870  0.23740  Biso   1.000  H
  H18      1.0000 0.93170  0.31640  0.16560  Biso   1.000  H
  H19      1.0000 0.03230  0.24400  0.64570  Biso   1.000  H
  H20      1.0000 0.04490  0.36050  0.64740  Biso   1.000  H
  H21      1.0000 0.22330  0.93970  0.03130  Biso   1.000  H
  H22      1.0000 0.42870  0.92700  0.26260  Biso   1.000  H
  H23      1.0000 0.31640  0.93170  0.33440  Biso   1.000  H
  H24      1.0000 0.24400  0.03230  0.85430  Biso   1.000  H
  H25      1.0000 0.36050  0.04490  0.85260  Biso   1.000  H
  H26      1.0000 0.27670  0.56030  0.03130  Biso   1.000  H
  H27      1.0000 0.07130  0.57300  0.26260  Biso   1.000  H
  H28      1.0000 0.18360  0.56830  0.33440  Biso   1.000  H
  H29      1.0000 0.25600  0.46770  0.85430  Biso   1.000  H
  H30      1.0000 0.13950  0.45510  0.85260  Biso   1.000  H
  H31      1.0000 0.93970  0.27670  0.03130  Biso   1.000  H
  H32      1.0000 0.92700  0.07130  0.26260  Biso   1.000  H
  H33      1.0000 0.93170  0.18360  0.33440  Biso   1.000  H
  H34      1.0000 0.03230  0.25600  0.85430  Biso   1.000  H
  H35      1.0000 0.04490  0.13950  0.85260  Biso   1.000  H
  H36      1.0000 0.56030  0.22330  0.03130  Biso   1.000  H
  H37      1.0000 0.57300  0.42870  0.26260  Biso   1.000  H
  H38      1.0000 0.56830  0.31640  0.33440  Biso   1.000  H
  H39      1.0000 0.46770  0.24400  0.85430  Biso   1.000  H
  H40      1.0000 0.45510  0.36050  0.85260  Biso   1.000  H
  H41      1.0000 0.72330  0.06030  0.53130  Biso   1.000  H
  H42      1.0000 0.92870  0.07300  0.76260  Biso   1.000  H
  H43      1.0000 0.81640  0.06830  0.83440  Biso   1.000  H
  H44      1.0000 0.74400  0.96770  0.35430  Biso   1.000  H
  H45      1.0000 0.86050  0.95510  0.35260  Biso   1.000  H
  H46      1.0000 0.77670  0.43970  0.53130  Biso   1.000  H
  H47      1.0000 0.57130  0.42700  0.76260  Biso   1.000  H
  H48      1.0000 0.68360  0.43170  0.83440  Biso   1.000  H
  H49      1.0000 0.75600  0.53230  0.35430  Biso   1.000  H
  H50      1.0000 0.63950  0.54490  0.35260  Biso   1.000  H
  H51      1.0000 0.43970  0.72330  0.53130  Biso   1.000  H
  H52      1.0000 0.42700  0.92870  0.76260  Biso   1.000  H
  H53      1.0000 0.43170  0.81640  0.83440  Biso   1.000  H
  H54      1.0000 0.53230  0.74400  0.35430  Biso   1.000  H
  H55      1.0000 0.54490  0.86050  0.35260  Biso   1.000  H
  H56      1.0000 0.06030  0.77670  0.53130  Biso   1.000  H
  H57      1.0000 0.07300  0.57130  0.76260  Biso   1.000  H
  H58      1.0000 0.06830  0.68360  0.83440  Biso   1.000  H
  H59      1.0000 0.96770  0.75600  0.35430  Biso   1.000  H
  H60      1.0000 0.95510  0.63950  0.35260  Biso   1.000  H
  H61      1.0000 0.77670  0.06030  0.96870  Biso   1.000  H
  H62      1.0000 0.57130  0.07300  0.73740  Biso   1.000  H
  H63      1.0000 0.68360  0.06830  0.66560  Biso   1.000  H
  H64      1.0000 0.75600  0.96770  0.14570  Biso   1.000  H
  H65      1.0000 0.63950  0.95510  0.14740  Biso   1.000  H
  H66      1.0000 0.72330  0.43970  0.96870  Biso   1.000  H
  H67      1.0000 0.92870  0.42700  0.73740  Biso   1.000  H
  H68      1.0000 0.81640  0.43170  0.66560  Biso   1.000  H
  H69      1.0000 0.74400  0.53230  0.14570  Biso   1.000  H
  H70      1.0000 0.86050  0.54490  0.14740  Biso   1.000  H
  H71      1.0000 0.06030  0.72330  0.96870  Biso   1.000  H
  H72      1.0000 0.07300  0.92870  0.73740  Biso   1.000  H
  H73      1.0000 0.06830  0.81640  0.66560  Biso   1.000  H
  H74      1.0000 0.96770  0.74400  0.14570  Biso   1.000  H
  H75      1.0000 0.95510  0.86050  0.14740  Biso   1.000  H
  H76      1.0000 0.43970  0.77670  0.96870  Biso   1.000  H
  H77      1.0000 0.42700  0.57130  0.73740  Biso   1.000  H
  H78      1.0000 0.43170  0.68360  0.66560  Biso   1.000  H
  H79      1.0000 0.53230  0.75600  0.14570  Biso   1.000  H
  H80      1.0000 0.54490  0.63950  0.14740  Biso   1.000  H
  C1       1.0000 0.19040  0.00460  0.58245  Biso   1.000  C
  C2       1.0000 0.23700  0.95860  0.49801  Biso   1.000  C
  C3       1.0000 0.18200  0.93060  0.29270  Biso   1.000  C
  C4       1.0000 0.14370  0.92910  0.24280  Biso   1.000  C
  C5       1.0000 0.21100  0.93070  0.19960  Biso   1.000  C
  C6       1.0000 0.10750  0.93110  0.33880  Biso   1.000  C
  C7       1.0000 0.30960  0.49540  0.58245  Biso   1.000  C
  C8       1.0000 0.26300  0.54140  0.49801  Biso   1.000  C
  C9       1.0000 0.31800  0.56940  0.29270  Biso   1.000  C
  C10      1.0000 0.35630  0.57090  0.24280  Biso   1.000  C
  C11      1.0000 0.28900  0.56930  0.19960  Biso   1.000  C
  C12      1.0000 0.39250  0.56890  0.33880  Biso   1.000  C
  C13      1.0000 0.49540  0.19040  0.58245  Biso   1.000  C
  C14      1.0000 0.54140  0.23700  0.49801  Biso   1.000  C
  C15      1.0000 0.56940  0.18200  0.29270  Biso   1.000  C
  C16      1.0000 0.57090  0.14370  0.24280  Biso   1.000  C
  C17      1.0000 0.56930  0.21100  0.19960  Biso   1.000  C
  C18      1.0000 0.56890  0.10750  0.33880  Biso   1.000  C
  C19      1.0000 0.00460  0.30960  0.58245  Biso   1.000  C
  C20      1.0000 0.95860  0.26300  0.49801  Biso   1.000  C
  C21      1.0000 0.93060  0.31800  0.29270  Biso   1.000  C
  C22      1.0000 0.92910  0.35630  0.24280  Biso   1.000  C
  C23      1.0000 0.93070  0.28900  0.19960  Biso   1.000  C
  C24      1.0000 0.93110  0.39250  0.33880  Biso   1.000  C
  C25      1.0000 0.30960  0.00460  0.91755  Biso   1.000  C
  C26      1.0000 0.26300  0.95860  0.00199  Biso   1.000  C
  C27      1.0000 0.31800  0.93060  0.20730  Biso   1.000  C
  C28      1.0000 0.35630  0.92910  0.25720  Biso   1.000  C
  C29      1.0000 0.28900  0.93070  0.30040  Biso   1.000  C
  C30      1.0000 0.39250  0.93110  0.16120  Biso   1.000  C
  C31      1.0000 0.19040  0.49540  0.91755  Biso   1.000  C
  C32      1.0000 0.23700  0.54140  0.00199  Biso   1.000  C
  C33      1.0000 0.18200  0.56940  0.20730  Biso   1.000  C
  C34      1.0000 0.14370  0.57090  0.25720  Biso   1.000  C
  C35      1.0000 0.21100  0.56930  0.30040  Biso   1.000  C
  C36      1.0000 0.10750  0.56890  0.16120  Biso   1.000  C
  C37      1.0000 0.00460  0.19040  0.91755  Biso   1.000  C
  C38      1.0000 0.95860  0.23700  0.00199  Biso   1.000  C
  C39      1.0000 0.93060  0.18200  0.20730  Biso   1.000  C
  C40      1.0000 0.92910  0.14370  0.25720  Biso   1.000  C
  C41      1.0000 0.93070  0.21100  0.30040  Biso   1.000  C
  C42      1.0000 0.93110  0.10750  0.16120  Biso   1.000  C
  C43      1.0000 0.49540  0.30960  0.91755  Biso   1.000  C
  C44      1.0000 0.54140  0.26300  0.00199  Biso   1.000  C
  C45      1.0000 0.56940  0.31800  0.20730  Biso   1.000  C
  C46      1.0000 0.57090  0.35630  0.25720  Biso   1.000  C
  C47      1.0000 0.56930  0.28900  0.30040  Biso   1.000  C
  C48      1.0000 0.56890  0.39250  0.16120  Biso   1.000  C
  C49      1.0000 0.80960  0.99540  0.41755  Biso   1.000  C
  C50      1.0000 0.76300  0.04140  0.50199  Biso   1.000  C
  C51      1.0000 0.81800  0.06940  0.70730  Biso   1.000  C
  C52      1.0000 0.85630  0.07090  0.75720  Biso   1.000  C
  C53      1.0000 0.78900  0.06930  0.80040  Biso   1.000  C
  C54      1.0000 0.89250  0.06890  0.66120  Biso   1.000  C
  C55      1.0000 0.69040  0.50460  0.41755  Biso   1.000  C
  C56      1.0000 0.73700  0.45860  0.50199  Biso   1.000  C
  C57      1.0000 0.68200  0.43060  0.70730  Biso   1.000  C
  C58      1.0000 0.64370  0.42910  0.75720  Biso   1.000  C
  C59      1.0000 0.71100  0.43070  0.80040  Biso   1.000  C
  C60      1.0000 0.60750  0.43110  0.66120  Biso   1.000  C
  C61      1.0000 0.50460  0.80960  0.41755  Biso   1.000  C
  C62      1.0000 0.45860  0.76300  0.50199  Biso   1.000  C
  C63      1.0000 0.43060  0.81800  0.70730  Biso   1.000  C
  C64      1.0000 0.42910  0.85630  0.75720  Biso   1.000  C
  C65      1.0000 0.43070  0.78900  0.80040  Biso   1.000  C
  C66      1.0000 0.43110  0.89250  0.66120  Biso   1.000  C
  C67      1.0000 0.99540  0.69040  0.41755  Biso   1.000  C
  C68      1.0000 0.04140  0.73700  0.50199  Biso   1.000  C
  C69      1.0000 0.06940  0.68200  0.70730  Biso   1.000  C
  C70      1.0000 0.07090  0.64370  0.75720  Biso   1.000  C
  C71      1.0000 0.06930  0.71100  0.80040  Biso   1.000  C
  C72      1.0000 0.06890  0.60750  0.66120  Biso   1.000  C
  C73      1.0000 0.69040  0.99540  0.08245  Biso   1.000  C
  C74      1.0000 0.73700  0.04140  0.99801  Biso   1.000  C
  C75      1.0000 0.68200  0.06940  0.79270  Biso   1.000  C
  C76      1.0000 0.64370  0.07090  0.74280  Biso   1.000  C
  C77      1.0000 0.71100  0.06930  0.69960  Biso   1.000  C
  C78      1.0000 0.60750  0.06890  0.83880  Biso   1.000  C
  C79      1.0000 0.80960  0.50460  0.08245  Biso   1.000  C
  C80      1.0000 0.76300  0.45860  0.99801  Biso   1.000  C
  C81      1.0000 0.81800  0.43060  0.79270  Biso   1.000  C
  C82      1.0000 0.85630  0.42910  0.74280  Biso   1.000  C
  C83      1.0000 0.78900  0.43070  0.69960  Biso   1.000  C
  C84      1.0000 0.89250  0.43110  0.83880  Biso   1.000  C
  C85      1.0000 0.99540  0.80960  0.08245  Biso   1.000  C
  C86      1.0000 0.04140  0.76300  0.99801  Biso   1.000  C
  C87      1.0000 0.06940  0.81800  0.79270  Biso   1.000  C
  C88      1.0000 0.07090  0.85630  0.74280  Biso   1.000  C
  C89      1.0000 0.06930  0.78900  0.69960  Biso   1.000  C
  C90      1.0000 0.06890  0.89250  0.83880  Biso   1.000  C
  C91      1.0000 0.50460  0.69040  0.08245  Biso   1.000  C
  C92      1.0000 0.45860  0.73700  0.99801  Biso   1.000  C
  C93      1.0000 0.43060  0.68200  0.79270  Biso   1.000  C
  C94      1.0000 0.42910  0.64370  0.74280  Biso   1.000  C
  C95      1.0000 0.43070  0.71100  0.69960  Biso   1.000  C
  C96      1.0000 0.43110  0.60750  0.83880  Biso   1.000  C
  N1       1.0000 0.09740  0.00160  0.55140  Biso   1.000  N
  N2       1.0000 0.12620  0.97320  0.49921  Biso   1.000  N
  N3       1.0000 0.27670  0.97800  0.54945  Biso   1.000  N
  N4       1.0000 0.19590  0.02990  0.63020  Biso   1.000  N
  N5       1.0000 0.40260  0.49840  0.55140  Biso   1.000  N
  N6       1.0000 0.37380  0.52680  0.49921  Biso   1.000  N
  N7       1.0000 0.22330  0.52200  0.54945  Biso   1.000  N
  N8       1.0000 0.30410  0.47010  0.63020  Biso   1.000  N
  N9       1.0000 0.49840  0.09740  0.55140  Biso   1.000  N
  N10      1.0000 0.52680  0.12620  0.49921  Biso   1.000  N
  N11      1.0000 0.52200  0.27670  0.54945  Biso   1.000  N
  N12      1.0000 0.47010  0.19590  0.63020  Biso   1.000  N
  N13      1.0000 0.00160  0.40260  0.55140  Biso   1.000  N
  N14      1.0000 0.97320  0.37380  0.49921  Biso   1.000  N
  N15      1.0000 0.97800  0.22330  0.54945  Biso   1.000  N
  N16      1.0000 0.02990  0.30410  0.63020  Biso   1.000  N
  N17      1.0000 0.40260  0.00160  0.94860  Biso   1.000  N
  N18      1.0000 0.37380  0.97320  0.00079  Biso   1.000  N
  N19      1.0000 0.22330  0.97800  0.95055  Biso   1.000  N
  N20      1.0000 0.30410  0.02990  0.86980  Biso   1.000  N
  N21      1.0000 0.09740  0.49840  0.94860  Biso   1.000  N
  N22      1.0000 0.12620  0.52680  0.00079  Biso   1.000  N
  N23      1.0000 0.27670  0.52200  0.95055  Biso   1.000  N
  N24      1.0000 0.19590  0.47010  0.86980  Biso   1.000  N
  N25      1.0000 0.00160  0.09740  0.94860  Biso   1.000  N
  N26      1.0000 0.97320  0.12620  0.00079  Biso   1.000  N
  N27      1.0000 0.97800  0.27670  0.95055  Biso   1.000  N
  N28      1.0000 0.02990  0.19590  0.86980  Biso   1.000  N
  N29      1.0000 0.49840  0.40260  0.94860  Biso   1.000  N
  N30      1.0000 0.52680  0.37380  0.00079  Biso   1.000  N
  N31      1.0000 0.52200  0.22330  0.95055  Biso   1.000  N
  N32      1.0000 0.47010  0.30410  0.86980  Biso   1.000  N
  N33      1.0000 0.90260  0.99840  0.44860  Biso   1.000  N
  N34      1.0000 0.87380  0.02680  0.50079  Biso   1.000  N
  N35      1.0000 0.72330  0.02200  0.45055  Biso   1.000  N
  N36      1.0000 0.80410  0.97010  0.36980  Biso   1.000  N
  N37      1.0000 0.59740  0.50160  0.44860  Biso   1.000  N
  N38      1.0000 0.62620  0.47320  0.50079  Biso   1.000  N
  N39      1.0000 0.77670  0.47800  0.45055  Biso   1.000  N
  N40      1.0000 0.69590  0.52990  0.36980  Biso   1.000  N
  N41      1.0000 0.50160  0.90260  0.44860  Biso   1.000  N
  N42      1.0000 0.47320  0.87380  0.50079  Biso   1.000  N
  N43      1.0000 0.47800  0.72330  0.45055  Biso   1.000  N
  N44      1.0000 0.52990  0.80410  0.36980  Biso   1.000  N
  N45      1.0000 0.99840  0.59740  0.44860  Biso   1.000  N
  N46      1.0000 0.02680  0.62620  0.50079  Biso   1.000  N
  N47      1.0000 0.02200  0.77670  0.45055  Biso   1.000  N
  N48      1.0000 0.97010  0.69590  0.36980  Biso   1.000  N
  N49      1.0000 0.59740  0.99840  0.05140  Biso   1.000  N
  N50      1.0000 0.62620  0.02680  0.99921  Biso   1.000  N
  N51      1.0000 0.77670  0.02200  0.04945  Biso   1.000  N
  N52      1.0000 0.69590  0.97010  0.13020  Biso   1.000  N
  N53      1.0000 0.90260  0.50160  0.05140  Biso   1.000  N
  N54      1.0000 0.87380  0.47320  0.99921  Biso   1.000  N
  N55      1.0000 0.72330  0.47800  0.04945  Biso   1.000  N
  N56      1.0000 0.80410  0.52990  0.13020  Biso   1.000  N
  N57      1.0000 0.99840  0.90260  0.05140  Biso   1.000  N
  N58      1.0000 0.02680  0.87380  0.99921  Biso   1.000  N
  N59      1.0000 0.02200  0.72330  0.04945  Biso   1.000  N
  N60      1.0000 0.97010  0.80410  0.13020  Biso   1.000  N
  N61      1.0000 0.50160  0.59740  0.05140  Biso   1.000  N
  N62      1.0000 0.47320  0.62620  0.99921  Biso   1.000  N
  N63      1.0000 0.47800  0.77670  0.04945  Biso   1.000  N
  N64      1.0000 0.52990  0.69590  0.13020  Biso   1.000  N
  O1       1.0000 0.14640  0.94950  0.38380  Biso   1.000  O
  O2       1.0000 0.01250  0.91190  0.33290  Biso   1.000  O
  O3       1.0000 0.35360  0.55050  0.38380  Biso   1.000  O
  O4       1.0000 0.48750  0.58810  0.33290  Biso   1.000  O
  O5       1.0000 0.55050  0.14640  0.38380  Biso   1.000  O
  O6       1.0000 0.58810  0.01250  0.33290  Biso   1.000  O
  O7       1.0000 0.94950  0.35360  0.38380  Biso   1.000  O
  O8       1.0000 0.91190  0.48750  0.33290  Biso   1.000  O
  O9       1.0000 0.35360  0.94950  0.11620  Biso   1.000  O
  O10      1.0000 0.48750  0.91190  0.16710  Biso   1.000  O
  O11      1.0000 0.14640  0.55050  0.11620  Biso   1.000  O
  O12      1.0000 0.01250  0.58810  0.16710  Biso   1.000  O
  O13      1.0000 0.94950  0.14640  0.11620  Biso   1.000  O
  O14      1.0000 0.91190  0.01250  0.16710  Biso   1.000  O
  O15      1.0000 0.55050  0.35360  0.11620  Biso   1.000  O
  O16      1.0000 0.58810  0.48750  0.16710  Biso   1.000  O
  O17      1.0000 0.85360  0.05050  0.61620  Biso   1.000  O
  O18      1.0000 0.98750  0.08810  0.66710  Biso   1.000  O
  O19      1.0000 0.64640  0.44950  0.61620  Biso   1.000  O
  O20      1.0000 0.51250  0.41190  0.66710  Biso   1.000  O
  O21      1.0000 0.44950  0.85360  0.61620  Biso   1.000  O
  O22      1.0000 0.41190  0.98750  0.66710  Biso   1.000  O
  O23      1.0000 0.05050  0.64640  0.61620  Biso   1.000  O
  O24      1.0000 0.08810  0.51250  0.66710  Biso   1.000  O
  O25      1.0000 0.64640  0.05050  0.88380  Biso   1.000  O
  O26      1.0000 0.51250  0.08810  0.83290  Biso   1.000  O
  O27      1.0000 0.85360  0.44950  0.88380  Biso   1.000  O
  O28      1.0000 0.98750  0.41190  0.83290  Biso   1.000  O
  O29      1.0000 0.05050  0.85360  0.88380  Biso   1.000  O
  O30      1.0000 0.08810  0.98750  0.83290  Biso   1.000  O
  O31      1.0000 0.44950  0.64640  0.88380  Biso   1.000  O
  O32      1.0000 0.41190  0.51250  0.83290  Biso   1.000  O
