data_image0
_cell_length_a       8.60843
_cell_length_b       9.03619
_cell_length_c       9.0362
_cell_angle_alpha    76.8859
_cell_angle_beta     61.554
_cell_angle_gamma    61.554

_symmetry_space_group_name_H-M    P 1
_symmetry_int_tables_number       1

loop_
  _symmetry_equiv_pos_as_xyz
  'x, y, z'

loop_
  _atom_site_label
  _atom_site_occupancy
  _atom_site_fract_x
  _atom_site_fract_y
  _atom_site_fract_z
  _atom_site_thermal_displace_type
  _atom_site_B_iso_or_equiv
  _atom_site_type_symbol
  Sr1      1.0000 0.50000  0.00000  1.00000  Biso   1.000  Sr
  Zr1      1.0000 0.75000  0.50000  0.50000  Biso   1.000  Zr
  Cd1      1.0000 0.00000  0.00000  0.00000  Biso   1.000  Cd
  H1       1.0000 0.40900  0.29500  0.70500  Biso   1.000  H
  H2       1.0000 0.28400  0.20400  0.79600  Biso   1.000  H
  H3       1.0000 0.40900  0.70500  0.29500  Biso   1.000  H
  H4       1.0000 0.28400  0.79600  0.20400  Biso   1.000  H
  H5       1.0000 0.88600  0.70500  0.70500  Biso   1.000  H
  H6       1.0000 0.92000  0.79600  0.79600  Biso   1.000  H
  H7       1.0000 0.29600  0.29500  0.29500  Biso   1.000  H
  H8       1.0000 0.51200  0.20400  0.20400  Biso   1.000  H
  C1       1.0000 0.76990  0.27670  0.27670  Biso   1.000  C
  C2       1.0000 0.98270  0.23130  0.23130  Biso   1.000  C
  C3       1.0000 0.32330  0.72330  0.72330  Biso   1.000  C
  C4       1.0000 0.44530  0.76870  0.76870  Biso   1.000  C
  C5       1.0000 0.95340  0.27670  0.72330  Biso   1.000  C
  C6       1.0000 0.78600  0.23130  0.76870  Biso   1.000  C
  C7       1.0000 0.95340  0.72330  0.27670  Biso   1.000  C
  C8       1.0000 0.78600  0.76870  0.23130  Biso   1.000  C
  O1       1.0000 0.12110  0.12290  0.12290  Biso   1.000  O
  O2       1.0000 0.00090  0.31430  0.31430  Biso   1.000  O
  O3       1.0000 0.73460  0.20320  0.20320  Biso   1.000  O
  O4       1.0000 0.64880  0.38830  0.38830  Biso   1.000  O
  O5       1.0000 0.36690  0.87710  0.87710  Biso   1.000  O
  O6       1.0000 0.62950  0.68570  0.68570  Biso   1.000  O
  O7       1.0000 0.14100  0.79680  0.79680  Biso   1.000  O
  O8       1.0000 0.42540  0.61170  0.61170  Biso   1.000  O
  O9       1.0000 0.75600  0.12290  0.87710  Biso   1.000  O
  O10      1.0000 0.68480  0.31430  0.68570  Biso   1.000  O
  O11      1.0000 0.06220  0.20320  0.79680  Biso   1.000  O
  O12      1.0000 0.96290  0.38830  0.61170  Biso   1.000  O
  O13      1.0000 0.75600  0.87710  0.12290  Biso   1.000  O
  O14      1.0000 0.68480  0.68570  0.31430  Biso   1.000  O
  O15      1.0000 0.06220  0.79680  0.20320  Biso   1.000  O
  O16      1.0000 0.96290  0.61170  0.38830  Biso   1.000  O
  O17      1.0000 0.39500  0.21110  0.78890  Biso   1.000  O
  O18      1.0000 0.39500  0.78890  0.21110  Biso   1.000  O
  O19      1.0000 0.81610  0.78890  0.78890  Biso   1.000  O
  O20      1.0000 0.39390  0.21110  0.21110  Biso   1.000  O
