data_image0
_cell_length_a       8.524
_cell_length_b       17.2139
_cell_length_c       17.2139
_cell_angle_alpha    120
_cell_angle_beta     90
_cell_angle_gamma    90

_symmetry_space_group_name_H-M    P 1
_symmetry_int_tables_number       1

loop_
  _symmetry_equiv_pos_as_xyz
  'x, y, z'

loop_
  _atom_site_label
  _atom_site_occupancy
  _atom_site_fract_x
  _atom_site_fract_y
  _atom_site_fract_z
  _atom_site_thermal_displace_type
  _atom_site_B_iso_or_equiv
  _atom_site_type_symbol
  Ni1      1.0000 0.66667  0.47466  0.47466  Biso   1.000  Ni
  Ni2      1.0000 0.33333  0.00000  0.52534  Biso   1.000  Ni
  Ni3      1.0000 0.00000  0.52534  0.00000  Biso   1.000  Ni
  H1       1.0000 0.33720  0.23450  0.53360  Biso   1.000  H
  H2       1.0000 0.54740  0.19250  0.30650  Biso   1.000  H
  H3       1.0000 0.46930  0.04390  0.23600  Biso   1.000  H
  H4       1.0000 0.96200  0.54830  0.58540  Biso   1.000  H
  H5       1.0000 0.23000  0.51110  0.71350  Biso   1.000  H
  H6       1.0000 0.10230  0.58470  0.73480  Biso   1.000  H
  H7       1.0000 0.22970  0.56400  0.66120  Biso   1.000  H
  H8       1.0000 0.14350  0.37970  0.64970  Biso   1.000  H
  H9       1.0000 0.08010  0.33750  0.55130  Biso   1.000  H
  H10      1.0000 0.96230  0.37230  0.63190  Biso   1.000  H
  H11      1.0000 0.00387  0.29910  0.76550  Biso   1.000  H
  H12      1.0000 0.21407  0.11400  0.80750  Biso   1.000  H
  H13      1.0000 0.13597  0.19210  0.95610  Biso   1.000  H
  H14      1.0000 0.62867  0.03710  0.45170  Biso   1.000  H
  H15      1.0000 0.89667  0.20240  0.48890  Biso   1.000  H
  H16      1.0000 0.76897  0.15010  0.41530  Biso   1.000  H
  H17      1.0000 0.89637  0.09720  0.43600  Biso   1.000  H
  H18      1.0000 0.81017  0.27000  0.62030  Biso   1.000  H
  H19      1.0000 0.74677  0.21380  0.66250  Biso   1.000  H
  H20      1.0000 0.62897  0.25960  0.62770  Biso   1.000  H
  H21      1.0000 0.67053  0.46640  0.70090  Biso   1.000  H
  H22      1.0000 0.88073  0.69350  0.88600  Biso   1.000  H
  H23      1.0000 0.80263  0.76400  0.80790  Biso   1.000  H
  H24      1.0000 0.29533  0.41460  0.96290  Biso   1.000  H
  H25      1.0000 0.56333  0.28650  0.79760  Biso   1.000  H
  H26      1.0000 0.43563  0.26520  0.84990  Biso   1.000  H
  H27      1.0000 0.56303  0.33880  0.90280  Biso   1.000  H
  H28      1.0000 0.47683  0.35030  0.73000  Biso   1.000  H
  H29      1.0000 0.41343  0.44870  0.78620  Biso   1.000  H
  H30      1.0000 0.29563  0.36810  0.74040  Biso   1.000  H
  H31      1.0000 0.66280  0.70090  0.46640  Biso   1.000  H
  H32      1.0000 0.45260  0.88600  0.69350  Biso   1.000  H
  H33      1.0000 0.53070  0.80790  0.76400  Biso   1.000  H
  H34      1.0000 0.03800  0.96290  0.41460  Biso   1.000  H
  H35      1.0000 0.77000  0.79760  0.28650  Biso   1.000  H
  H36      1.0000 0.89770  0.84990  0.26520  Biso   1.000  H
  H37      1.0000 0.77030  0.90280  0.33880  Biso   1.000  H
  H38      1.0000 0.85650  0.73000  0.35030  Biso   1.000  H
  H39      1.0000 0.91990  0.78620  0.44870  Biso   1.000  H
  H40      1.0000 0.03770  0.74040  0.36810  Biso   1.000  H
  H41      1.0000 0.99613  0.53360  0.23450  Biso   1.000  H
  H42      1.0000 0.78593  0.30650  0.19250  Biso   1.000  H
  H43      1.0000 0.86403  0.23600  0.04390  Biso   1.000  H
  H44      1.0000 0.37133  0.58540  0.54830  Biso   1.000  H
  H45      1.0000 0.10333  0.71350  0.51110  Biso   1.000  H
  H46      1.0000 0.23103  0.73480  0.58470  Biso   1.000  H
  H47      1.0000 0.10363  0.66120  0.56400  Biso   1.000  H
  H48      1.0000 0.18983  0.64970  0.37970  Biso   1.000  H
  H49      1.0000 0.25323  0.55130  0.33750  Biso   1.000  H
  H50      1.0000 0.37103  0.63190  0.37230  Biso   1.000  H
  H51      1.0000 0.32947  0.76550  0.29910  Biso   1.000  H
  H52      1.0000 0.11927  0.80750  0.11400  Biso   1.000  H
  H53      1.0000 0.19737  0.95610  0.19210  Biso   1.000  H
  H54      1.0000 0.70467  0.45170  0.03710  Biso   1.000  H
  H55      1.0000 0.43667  0.48890  0.20240  Biso   1.000  H
  H56      1.0000 0.56437  0.41530  0.15010  Biso   1.000  H
  H57      1.0000 0.43697  0.43600  0.09720  Biso   1.000  H
  H58      1.0000 0.52317  0.62030  0.27000  Biso   1.000  H
  H59      1.0000 0.58657  0.66250  0.21380  Biso   1.000  H
  H60      1.0000 0.70437  0.62770  0.25960  Biso   1.000  H
  C1       1.0000 0.45150  0.22816  0.42734  Biso   1.000  C
  C2       1.0000 0.36380  0.19608  0.47390  Biso   1.000  C
  C3       1.0000 0.35830  0.04792  0.34192  Biso   1.000  C
  C4       1.0000 0.49040  0.17110  0.33793  Biso   1.000  C
  C5       1.0000 0.31640  0.10707  0.43140  Biso   1.000  C
  C6       1.0000 0.44350  0.08190  0.29600  Biso   1.000  C
  C7       1.0000 0.50230  0.32410  0.47358  Biso   1.000  C
  C8       1.0000 0.96160  0.49000  0.57550  Biso   1.000  C
  C9       1.0000 0.16490  0.53840  0.68830  Biso   1.000  C
  C10      1.0000 0.06210  0.38250  0.61260  Biso   1.000  C
  C11      1.0000 0.11817  0.19918  0.77184  Biso   1.000  C
  C12      1.0000 0.03047  0.27782  0.80392  Biso   1.000  C
  C13      1.0000 0.02497  0.29400  0.95208  Biso   1.000  C
  C14      1.0000 0.15707  0.16683  0.82890  Biso   1.000  C
  C15      1.0000 0.98307  0.32433  0.89293  Biso   1.000  C
  C16      1.0000 0.11017  0.21410  0.91810  Biso   1.000  C
  C17      1.0000 0.16897  0.14948  0.67590  Biso   1.000  C
  C18      1.0000 0.62827  0.08550  0.51000  Biso   1.000  C
  C19      1.0000 0.83157  0.14990  0.46160  Biso   1.000  C
  C20      1.0000 0.72877  0.23010  0.61750  Biso   1.000  C
  C21      1.0000 0.78483  0.57266  0.80082  Biso   1.000  C
  C22      1.0000 0.69713  0.52610  0.72218  Biso   1.000  C
  C23      1.0000 0.69163  0.65808  0.70600  Biso   1.000  C
  C24      1.0000 0.82373  0.66207  0.83317  Biso   1.000  C
  C25      1.0000 0.64973  0.56860  0.67567  Biso   1.000  C
  C26      1.0000 0.77683  0.70400  0.78590  Biso   1.000  C
  C27      1.0000 0.83563  0.52642  0.85052  Biso   1.000  C
  C28      1.0000 0.29493  0.42450  0.91450  Biso   1.000  C
  C29      1.0000 0.49823  0.31170  0.85010  Biso   1.000  C
  C30      1.0000 0.39543  0.38740  0.76990  Biso   1.000  C
  C31      1.0000 0.54850  0.80082  0.57266  Biso   1.000  C
  C32      1.0000 0.63620  0.72218  0.52610  Biso   1.000  C
  C33      1.0000 0.64170  0.70600  0.65808  Biso   1.000  C
  C34      1.0000 0.50960  0.83317  0.66207  Biso   1.000  C
  C35      1.0000 0.68360  0.67567  0.56860  Biso   1.000  C
  C36      1.0000 0.55650  0.78590  0.70400  Biso   1.000  C
  C37      1.0000 0.49770  0.85052  0.52642  Biso   1.000  C
  C38      1.0000 0.03840  0.91450  0.42450  Biso   1.000  C
  C39      1.0000 0.83510  0.85010  0.31170  Biso   1.000  C
  C40      1.0000 0.93790  0.76990  0.38740  Biso   1.000  C
  C41      1.0000 0.88183  0.42734  0.22816  Biso   1.000  C
  C42      1.0000 0.96953  0.47390  0.19608  Biso   1.000  C
  C43      1.0000 0.97503  0.34192  0.04792  Biso   1.000  C
  C44      1.0000 0.84293  0.33793  0.17110  Biso   1.000  C
  C45      1.0000 0.01693  0.43140  0.10707  Biso   1.000  C
  C46      1.0000 0.88983  0.29600  0.08190  Biso   1.000  C
  C47      1.0000 0.83103  0.47358  0.32410  Biso   1.000  C
  C48      1.0000 0.37173  0.57550  0.49000  Biso   1.000  C
  C49      1.0000 0.16843  0.68830  0.53840  Biso   1.000  C
  C50      1.0000 0.27123  0.61260  0.38250  Biso   1.000  C
  C51      1.0000 0.21517  0.77184  0.19918  Biso   1.000  C
  C52      1.0000 0.30287  0.80392  0.27782  Biso   1.000  C
  C53      1.0000 0.30837  0.95208  0.29400  Biso   1.000  C
  C54      1.0000 0.17627  0.82890  0.16683  Biso   1.000  C
  C55      1.0000 0.35027  0.89293  0.32433  Biso   1.000  C
  C56      1.0000 0.22317  0.91810  0.21410  Biso   1.000  C
  C57      1.0000 0.16437  0.67590  0.14948  Biso   1.000  C
  C58      1.0000 0.70507  0.51000  0.08550  Biso   1.000  C
  C59      1.0000 0.50177  0.46160  0.14990  Biso   1.000  C
  C60      1.0000 0.60457  0.61750  0.23010  Biso   1.000  C
  N1       1.0000 0.06260  0.47080  0.62055  Biso   1.000  N
  N2       1.0000 0.72927  0.14975  0.52920  Biso   1.000  N
  N3       1.0000 0.39593  0.37945  0.85025  Biso   1.000  N
  N4       1.0000 0.93740  0.85025  0.37945  Biso   1.000  N
  N5       1.0000 0.27073  0.62055  0.47080  Biso   1.000  N
  N6       1.0000 0.60407  0.52920  0.14975  Biso   1.000  N
  O1       1.0000 0.47070  0.37235  0.55732  Biso   1.000  O
  O2       1.0000 0.22910  0.07668  0.47723  Biso   1.000  O
  O3       1.0000 0.57350  0.35116  0.42865  Biso   1.000  O
  O4       1.0000 0.86390  0.43632  0.52015  Biso   1.000  O
  O5       1.0000 0.13737  0.18497  0.62765  Biso   1.000  O
  O6       1.0000 0.89577  0.40055  0.92332  Biso   1.000  O
  O7       1.0000 0.24017  0.07749  0.64884  Biso   1.000  O
  O8       1.0000 0.53057  0.08383  0.56368  Biso   1.000  O
  O9       1.0000 0.80403  0.44268  0.81503  Biso   1.000  O
  O10      1.0000 0.56243  0.52277  0.59945  Biso   1.000  O
  O11      1.0000 0.90683  0.57135  0.92251  Biso   1.000  O
  O12      1.0000 0.19723  0.47985  0.91617  Biso   1.000  O
  O13      1.0000 0.52930  0.81503  0.44268  Biso   1.000  O
  O14      1.0000 0.77090  0.59945  0.52277  Biso   1.000  O
  O15      1.0000 0.42650  0.92251  0.57135  Biso   1.000  O
  O16      1.0000 0.13610  0.91617  0.47985  Biso   1.000  O
  O17      1.0000 0.86263  0.55732  0.37235  Biso   1.000  O
  O18      1.0000 0.10423  0.47723  0.07668  Biso   1.000  O
  O19      1.0000 0.75983  0.42865  0.35116  Biso   1.000  O
  O20      1.0000 0.46943  0.52015  0.43632  Biso   1.000  O
  O21      1.0000 0.19597  0.62765  0.18497  Biso   1.000  O
  O22      1.0000 0.43757  0.92332  0.40055  Biso   1.000  O
  O23      1.0000 0.09317  0.64884  0.07749  Biso   1.000  O
  O24      1.0000 0.80277  0.56368  0.08383  Biso   1.000  O
