data_image0
_cell_length_a       13.8039
_cell_length_b       16.8679
_cell_length_c       20.7639
_cell_angle_alpha    90
_cell_angle_beta     90
_cell_angle_gamma    90

_symmetry_space_group_name_H-M    "P 1"
_symmetry_int_tables_number       1

loop_
  _symmetry_equiv_pos_as_xyz
  'x, y, z'

loop_
  _atom_site_label
  _atom_site_occupancy
  _atom_site_fract_x
  _atom_site_fract_y
  _atom_site_fract_z
  _atom_site_thermal_displace_type
  _atom_site_B_iso_or_equiv
  _atom_site_type_symbol
  Ni1      1.0000 0.88000  0.20366  0.07707  Biso   1.000  Ni
  Ni2      1.0000 0.03669  0.20287  0.41362  Biso   1.000  Ni
  N1       1.0000 0.82975  0.20902  0.17056  Biso   1.000  N
  C1       1.0000 0.81010  0.21249  0.22406  Biso   1.000  C
  N2       1.0000 0.90130  0.21513  0.37065  Biso   1.000  N
  C2       1.0000 0.84720  0.21475  0.32899  Biso   1.000  C
  N3       1.0000 0.77980  0.21490  0.28413  Biso   1.000  N
  N4       1.0000 0.01937  0.19252  0.11780  Biso   1.000  N
  C3       1.0000 0.07050  0.18631  0.16083  Biso   1.000  C
  N5       1.0000 0.09432  0.19501  0.32062  Biso   1.000  N
  C4       1.0000 0.11020  0.18910  0.26666  Biso   1.000  C
  N6       1.0000 0.13690  0.18000  0.20623  Biso   1.000  N
  N7       1.0000 0.93595  0.20419  0.98276  Biso   1.000  N
  C5       1.0000 0.99750  0.23723  0.95700  Biso   1.000  C
  N8       1.0000 0.23384  0.28460  0.94791  Biso   1.000  N
  C6       1.0000 0.15190  0.27914  0.93853  Biso   1.000  C
  N9       1.0000 0.06011  0.27730  0.92273  Biso   1.000  N
  N10      1.0000 0.90103  0.32539  0.07437  Biso   1.000  N
  C7       1.0000 0.94070  0.38342  0.06327  Biso   1.000  C
  N11      1.0000 0.97955  0.58229  0.08092  Biso   1.000  N
  C8       1.0000 0.98070  0.51636  0.06723  Biso   1.000  C
  N12      1.0000 0.99380  0.44429  0.04606  Biso   1.000  N
  N13      1.0000 0.17380  0.19125  0.45429  Biso   1.000  N
  C9       1.0000 0.25700  0.19064  0.45697  Biso   1.000  C
  N14      1.0000 0.46693  0.28415  0.49491  Biso   1.000  N
  C10      1.0000 0.40880  0.23985  0.47890  Biso   1.000  C
  N15      1.0000 0.35210  0.18295  0.45775  Biso   1.000  N
  N16      1.0000 0.94120  0.82375  0.08913  Biso   1.000  N
  C11      1.0000 0.89820  0.88191  0.09151  Biso   1.000  C
  N17      1.0000 0.86916  0.08224  0.07311  Biso   1.000  N
  C12      1.0000 0.86230  0.01541  0.08300  Biso   1.000  C
  N18      1.0000 0.83901  0.94188  0.09644  Biso   1.000  N
  Ni3      1.0000 0.62000  0.79634  0.57707  Biso   1.000  Ni
  Ni4      1.0000 0.46331  0.79713  0.91362  Biso   1.000  Ni
  N19      1.0000 0.67025  0.79098  0.67056  Biso   1.000  N
  C13      1.0000 0.68990  0.78751  0.72406  Biso   1.000  C
  N20      1.0000 0.59870  0.78487  0.87065  Biso   1.000  N
  C14      1.0000 0.65280  0.78525  0.82899  Biso   1.000  C
  N21      1.0000 0.72020  0.78510  0.78413  Biso   1.000  N
  N22      1.0000 0.48063  0.80748  0.61780  Biso   1.000  N
  C15      1.0000 0.42950  0.81369  0.66083  Biso   1.000  C
  N23      1.0000 0.40568  0.80499  0.82062  Biso   1.000  N
  C16      1.0000 0.38980  0.81090  0.76666  Biso   1.000  C
  N24      1.0000 0.36310  0.82000  0.70623  Biso   1.000  N
  N25      1.0000 0.56405  0.79581  0.48276  Biso   1.000  N
  C17      1.0000 0.50250  0.76277  0.45700  Biso   1.000  C
  N26      1.0000 0.26616  0.71540  0.44791  Biso   1.000  N
  C18      1.0000 0.34810  0.72086  0.43853  Biso   1.000  C
  N27      1.0000 0.43989  0.72270  0.42273  Biso   1.000  N
  N28      1.0000 0.59897  0.67461  0.57437  Biso   1.000  N
  C19      1.0000 0.55930  0.61658  0.56327  Biso   1.000  C
  N29      1.0000 0.52045  0.41771  0.58092  Biso   1.000  N
  C20      1.0000 0.51930  0.48364  0.56723  Biso   1.000  C
  N30      1.0000 0.50620  0.55571  0.54606  Biso   1.000  N
  N31      1.0000 0.32620  0.80875  0.95429  Biso   1.000  N
  C21      1.0000 0.24300  0.80936  0.95697  Biso   1.000  C
  N32      1.0000 0.03307  0.71585  0.99491  Biso   1.000  N
  C22      1.0000 0.09120  0.76015  0.97890  Biso   1.000  C
  N33      1.0000 0.14790  0.81705  0.95775  Biso   1.000  N
  N34      1.0000 0.55880  0.17625  0.58913  Biso   1.000  N
  C23      1.0000 0.60180  0.11809  0.59151  Biso   1.000  C
  N35      1.0000 0.63084  0.91776  0.57311  Biso   1.000  N
  C24      1.0000 0.63770  0.98459  0.58300  Biso   1.000  C
  N36      1.0000 0.66099  0.05812  0.59644  Biso   1.000  N
  Ni5      1.0000 0.12000  0.70366  0.42293  Biso   1.000  Ni
  Ni6      1.0000 0.96331  0.70287  0.08638  Biso   1.000  Ni
  N37      1.0000 0.17025  0.70902  0.32944  Biso   1.000  N
  C25      1.0000 0.18990  0.71249  0.27594  Biso   1.000  C
  N38      1.0000 0.09870  0.71513  0.12935  Biso   1.000  N
  C26      1.0000 0.15280  0.71475  0.17101  Biso   1.000  C
  N39      1.0000 0.22020  0.71490  0.21587  Biso   1.000  N
  N40      1.0000 0.98063  0.69252  0.38220  Biso   1.000  N
  C27      1.0000 0.92950  0.68631  0.33917  Biso   1.000  C
  N41      1.0000 0.90568  0.69501  0.17938  Biso   1.000  N
  C28      1.0000 0.88980  0.68910  0.23334  Biso   1.000  C
  N42      1.0000 0.86310  0.68000  0.29377  Biso   1.000  N
  N43      1.0000 0.06405  0.70419  0.51724  Biso   1.000  N
  C29      1.0000 0.00250  0.73723  0.54300  Biso   1.000  C
  N44      1.0000 0.76616  0.78460  0.55209  Biso   1.000  N
  C30      1.0000 0.84810  0.77914  0.56147  Biso   1.000  C
  N45      1.0000 0.93989  0.77730  0.57727  Biso   1.000  N
  N46      1.0000 0.09897  0.82539  0.42563  Biso   1.000  N
  C31      1.0000 0.05930  0.88342  0.43673  Biso   1.000  C
  N47      1.0000 0.02045  0.08229  0.41908  Biso   1.000  N
  C32      1.0000 0.01930  0.01636  0.43277  Biso   1.000  C
  N48      1.0000 0.00620  0.94429  0.45394  Biso   1.000  N
  N49      1.0000 0.82620  0.69125  0.04571  Biso   1.000  N
  C33      1.0000 0.74300  0.69064  0.04303  Biso   1.000  C
  N50      1.0000 0.53307  0.78415  0.00509  Biso   1.000  N
  C34      1.0000 0.59120  0.73985  0.02110  Biso   1.000  C
  N51      1.0000 0.64790  0.68295  0.04225  Biso   1.000  N
  N52      1.0000 0.05880  0.32375  0.41087  Biso   1.000  N
  C35      1.0000 0.10180  0.38191  0.40849  Biso   1.000  C
  N53      1.0000 0.13084  0.58224  0.42689  Biso   1.000  N
  C36      1.0000 0.13770  0.51541  0.41700  Biso   1.000  C
  N54      1.0000 0.16099  0.44188  0.40356  Biso   1.000  N
  Ni7      1.0000 0.38000  0.29634  0.92293  Biso   1.000  Ni
  Ni8      1.0000 0.53669  0.29713  0.58638  Biso   1.000  Ni
  N55      1.0000 0.32975  0.29098  0.82944  Biso   1.000  N
  C37      1.0000 0.31010  0.28751  0.77594  Biso   1.000  C
  N56      1.0000 0.40130  0.28487  0.62935  Biso   1.000  N
  C38      1.0000 0.34720  0.28525  0.67101  Biso   1.000  C
  N57      1.0000 0.27980  0.28510  0.71587  Biso   1.000  N
  N58      1.0000 0.51937  0.30748  0.88220  Biso   1.000  N
  C39      1.0000 0.57050  0.31369  0.83917  Biso   1.000  C
  N59      1.0000 0.59432  0.30499  0.67938  Biso   1.000  N
  C40      1.0000 0.61020  0.31090  0.73334  Biso   1.000  C
  N60      1.0000 0.63690  0.32000  0.79377  Biso   1.000  N
  N61      1.0000 0.43595  0.29581  0.01724  Biso   1.000  N
  C41      1.0000 0.49750  0.26277  0.04300  Biso   1.000  C
  N62      1.0000 0.73384  0.21540  0.05209  Biso   1.000  N
  C42      1.0000 0.65190  0.22086  0.06147  Biso   1.000  C
  N63      1.0000 0.56011  0.22270  0.07727  Biso   1.000  N
  N64      1.0000 0.40103  0.17461  0.92563  Biso   1.000  N
  C43      1.0000 0.44070  0.11658  0.93673  Biso   1.000  C
  N65      1.0000 0.47955  0.91771  0.91908  Biso   1.000  N
  C44      1.0000 0.48070  0.98364  0.93277  Biso   1.000  C
  N66      1.0000 0.49380  0.05571  0.95394  Biso   1.000  N
  N67      1.0000 0.67380  0.30875  0.54571  Biso   1.000  N
  C45      1.0000 0.75700  0.30936  0.54303  Biso   1.000  C
  N68      1.0000 0.96693  0.21585  0.50509  Biso   1.000  N
  C46      1.0000 0.90880  0.26015  0.52110  Biso   1.000  C
  N69      1.0000 0.85210  0.31705  0.54225  Biso   1.000  N
  N70      1.0000 0.44120  0.67625  0.91087  Biso   1.000  N
  C47      1.0000 0.39820  0.61809  0.90849  Biso   1.000  C
  N71      1.0000 0.36916  0.41776  0.92689  Biso   1.000  N
  C48      1.0000 0.36230  0.48459  0.91700  Biso   1.000  C
  N72      1.0000 0.33901  0.55812  0.90356  Biso   1.000  N
