data_image0
_cell_length_a       14.3759
_cell_length_b       16.9055
_cell_length_c       21.6345
_cell_angle_alpha    90
_cell_angle_beta     90
_cell_angle_gamma    90

_symmetry_space_group_name_H-M    "P 1"
_symmetry_int_tables_number       1

loop_
  _symmetry_equiv_pos_as_xyz
  'x, y, z'

loop_
  _atom_site_label
  _atom_site_occupancy
  _atom_site_fract_x
  _atom_site_fract_y
  _atom_site_fract_z
  _atom_site_thermal_displace_type
  _atom_site_B_iso_or_equiv
  _atom_site_type_symbol
  Mn1      1.0000 0.86564  0.26698  0.92976  Biso   1.000  Mn
  Mn2      1.0000 0.02926  0.26813  0.59713  Biso   1.000  Mn
  N1       1.0000 0.82460  0.24525  0.83291  Biso   1.000  N
  C1       1.0000 0.80738  0.24739  0.78137  Biso   1.000  C
  N2       1.0000 0.88957  0.25275  0.63893  Biso   1.000  N
  C2       1.0000 0.84101  0.25229  0.68033  Biso   1.000  C
  N3       1.0000 0.77825  0.25231  0.72431  Biso   1.000  N
  N4       1.0000 0.00937  0.28571  0.89030  Biso   1.000  N
  C3       1.0000 0.05678  0.29346  0.84729  Biso   1.000  C
  N5       1.0000 0.08225  0.28250  0.69329  Biso   1.000  N
  C4       1.0000 0.09436  0.29050  0.74561  Biso   1.000  C
  N6       1.0000 0.11792  0.30235  0.80356  Biso   1.000  N
  N7       1.0000 0.91182  0.28122  0.02794  Biso   1.000  N
  C5       1.0000 0.98263  0.28141  0.05249  Biso   1.000  C
  N8       1.0000 0.21323  0.24893  0.05106  Biso   1.000  N
  C6       1.0000 0.13827  0.26413  0.06499  Biso   1.000  C
  N9       1.0000 0.05678  0.28472  0.08638  Biso   1.000  N
  N10      1.0000 0.84272  0.39457  0.92332  Biso   1.000  N
  C7       1.0000 0.83611  0.46166  0.91466  Biso   1.000  C
  N11      1.0000 0.93347  0.64142  0.89921  Biso   1.000  N
  C8       1.0000 0.88283  0.58903  0.90223  Biso   1.000  C
  N12      1.0000 0.81725  0.53544  0.90398  Biso   1.000  N
  N13      1.0000 0.16888  0.28722  0.55574  Biso   1.000  N
  C9       1.0000 0.24724  0.29819  0.55070  Biso   1.000  C
  N14      1.0000 0.45769  0.25093  0.49248  Biso   1.000  N
  C10      1.0000 0.39621  0.27885  0.51765  Biso   1.000  C
  N15      1.0000 0.33529  0.31750  0.55019  Biso   1.000  N
  N16      1.0000 0.99230  0.89773  0.91553  Biso   1.000  N
  C11      1.0000 0.96242  0.95097  0.94299  Biso   1.000  C
  N17      1.0000 0.89219  0.14049  0.94461  Biso   1.000  N
  C12      1.0000 0.91087  0.07662  0.95801  Biso   1.000  C
  N18      1.0000 0.93048  0.00589  0.97957  Biso   1.000  N
  Mn3      1.0000 0.63436  0.73302  0.42976  Biso   1.000  Mn
  Mn4      1.0000 0.47074  0.73187  0.09713  Biso   1.000  Mn
  N19      1.0000 0.67540  0.75475  0.33291  Biso   1.000  N
  C13      1.0000 0.69262  0.75261  0.28137  Biso   1.000  C
  N20      1.0000 0.61043  0.74725  0.13893  Biso   1.000  N
  C14      1.0000 0.65899  0.74771  0.18033  Biso   1.000  C
  N21      1.0000 0.72175  0.74769  0.22431  Biso   1.000  N
  N22      1.0000 0.49063  0.71429  0.39030  Biso   1.000  N
  C15      1.0000 0.44322  0.70654  0.34729  Biso   1.000  C
  N23      1.0000 0.41775  0.71750  0.19329  Biso   1.000  N
  C16      1.0000 0.40564  0.70950  0.24561  Biso   1.000  C
  N24      1.0000 0.38208  0.69765  0.30356  Biso   1.000  N
  N25      1.0000 0.58818  0.71878  0.52794  Biso   1.000  N
  C17      1.0000 0.51737  0.71859  0.55249  Biso   1.000  C
  N26      1.0000 0.28677  0.75107  0.55106  Biso   1.000  N
  C18      1.0000 0.36173  0.73587  0.56499  Biso   1.000  C
  N27      1.0000 0.44322  0.71528  0.58638  Biso   1.000  N
  N28      1.0000 0.65728  0.60543  0.42332  Biso   1.000  N
  C19      1.0000 0.66389  0.53834  0.41466  Biso   1.000  C
  N29      1.0000 0.56653  0.35858  0.39921  Biso   1.000  N
  C20      1.0000 0.61717  0.41097  0.40223  Biso   1.000  C
  N30      1.0000 0.68275  0.46456  0.40398  Biso   1.000  N
  N31      1.0000 0.33112  0.71278  0.05574  Biso   1.000  N
  C21      1.0000 0.25276  0.70181  0.05070  Biso   1.000  C
  N32      1.0000 0.04231  0.74907  0.99248  Biso   1.000  N
  C22      1.0000 0.10379  0.72115  0.01765  Biso   1.000  C
  N33      1.0000 0.16471  0.68250  0.05019  Biso   1.000  N
  N34      1.0000 0.50770  0.10227  0.41553  Biso   1.000  N
  C23      1.0000 0.53758  0.04903  0.44299  Biso   1.000  C
  N35      1.0000 0.60781  0.85951  0.44461  Biso   1.000  N
  C24      1.0000 0.58913  0.92338  0.45801  Biso   1.000  C
  N36      1.0000 0.56952  0.99411  0.47957  Biso   1.000  N
  Mn5      1.0000 0.13436  0.76698  0.57024  Biso   1.000  Mn
  Mn6      1.0000 0.97074  0.76813  0.90287  Biso   1.000  Mn
  N37      1.0000 0.17540  0.74525  0.66709  Biso   1.000  N
  C25      1.0000 0.19262  0.74739  0.71863  Biso   1.000  C
  N38      1.0000 0.11043  0.75275  0.86107  Biso   1.000  N
  C26      1.0000 0.15899  0.75229  0.81967  Biso   1.000  C
  N39      1.0000 0.22175  0.75231  0.77569  Biso   1.000  N
  N40      1.0000 0.99063  0.78571  0.60970  Biso   1.000  N
  C27      1.0000 0.94322  0.79346  0.65271  Biso   1.000  C
  N41      1.0000 0.91775  0.78250  0.80671  Biso   1.000  N
  C28      1.0000 0.90564  0.79050  0.75439  Biso   1.000  C
  N42      1.0000 0.88208  0.80235  0.69644  Biso   1.000  N
  N43      1.0000 0.08818  0.78122  0.47206  Biso   1.000  N
  C29      1.0000 0.01737  0.78141  0.44751  Biso   1.000  C
  N44      1.0000 0.78677  0.74893  0.44894  Biso   1.000  N
  C30      1.0000 0.86173  0.76413  0.43501  Biso   1.000  C
  N45      1.0000 0.94322  0.78472  0.41362  Biso   1.000  N
  N46      1.0000 0.15728  0.89457  0.57668  Biso   1.000  N
  C31      1.0000 0.16389  0.96166  0.58534  Biso   1.000  C
  N47      1.0000 0.06653  0.14142  0.60079  Biso   1.000  N
  C32      1.0000 0.11717  0.08903  0.59777  Biso   1.000  C
  N48      1.0000 0.18275  0.03544  0.59602  Biso   1.000  N
  N49      1.0000 0.83112  0.78722  0.94426  Biso   1.000  N
  C33      1.0000 0.75276  0.79819  0.94930  Biso   1.000  C
  N50      1.0000 0.54231  0.75093  0.00752  Biso   1.000  N
  C34      1.0000 0.60379  0.77885  0.98235  Biso   1.000  C
  N51      1.0000 0.66471  0.81750  0.94981  Biso   1.000  N
  N52      1.0000 0.00770  0.39773  0.58447  Biso   1.000  N
  C35      1.0000 0.03758  0.45097  0.55701  Biso   1.000  C
  N53      1.0000 0.10781  0.64049  0.55539  Biso   1.000  N
  C36      1.0000 0.08913  0.57662  0.54199  Biso   1.000  C
  N54      1.0000 0.06952  0.50589  0.52043  Biso   1.000  N
  Mn7      1.0000 0.36564  0.23302  0.07024  Biso   1.000  Mn
  Mn8      1.0000 0.52926  0.23187  0.40287  Biso   1.000  Mn
  N55      1.0000 0.32460  0.25475  0.16709  Biso   1.000  N
  C37      1.0000 0.30738  0.25261  0.21863  Biso   1.000  C
  N56      1.0000 0.38957  0.24725  0.36107  Biso   1.000  N
  C38      1.0000 0.34101  0.24771  0.31967  Biso   1.000  C
  N57      1.0000 0.27825  0.24769  0.27569  Biso   1.000  N
  N58      1.0000 0.50937  0.21429  0.10970  Biso   1.000  N
  C39      1.0000 0.55678  0.20654  0.15271  Biso   1.000  C
  N59      1.0000 0.58225  0.21750  0.30671  Biso   1.000  N
  C40      1.0000 0.59436  0.20950  0.25439  Biso   1.000  C
  N60      1.0000 0.61792  0.19765  0.19644  Biso   1.000  N
  N61      1.0000 0.41182  0.21878  0.97206  Biso   1.000  N
  C41      1.0000 0.48263  0.21859  0.94751  Biso   1.000  C
  N62      1.0000 0.71323  0.25107  0.94894  Biso   1.000  N
  C42      1.0000 0.63827  0.23587  0.93501  Biso   1.000  C
  N63      1.0000 0.55678  0.21528  0.91362  Biso   1.000  N
  N64      1.0000 0.34272  0.10543  0.07668  Biso   1.000  N
  C43      1.0000 0.33611  0.03834  0.08534  Biso   1.000  C
  N65      1.0000 0.43347  0.85858  0.10079  Biso   1.000  N
  C44      1.0000 0.38283  0.91097  0.09777  Biso   1.000  C
  N66      1.0000 0.31725  0.96456  0.09602  Biso   1.000  N
  N67      1.0000 0.66888  0.21278  0.44426  Biso   1.000  N
  C45      1.0000 0.74724  0.20181  0.44930  Biso   1.000  C
  N68      1.0000 0.95769  0.24907  0.50752  Biso   1.000  N
  C46      1.0000 0.89621  0.22115  0.48235  Biso   1.000  C
  N69      1.0000 0.83529  0.18250  0.44981  Biso   1.000  N
  N70      1.0000 0.49230  0.60227  0.08447  Biso   1.000  N
  C47      1.0000 0.46242  0.54903  0.05701  Biso   1.000  C
  N71      1.0000 0.39219  0.35951  0.05539  Biso   1.000  N
  C48      1.0000 0.41087  0.42338  0.04199  Biso   1.000  C
  N72      1.0000 0.43048  0.49411  0.02043  Biso   1.000  N
