data_image0
_cell_length_a       14.1192
_cell_length_b       16.6545
_cell_length_c       21.5833
_cell_angle_alpha    90
_cell_angle_beta     90
_cell_angle_gamma    90

_symmetry_space_group_name_H-M    "P 1"
_symmetry_int_tables_number       1

loop_
  _symmetry_equiv_pos_as_xyz
  'x, y, z'

loop_
  _atom_site_label
  _atom_site_occupancy
  _atom_site_fract_x
  _atom_site_fract_y
  _atom_site_fract_z
  _atom_site_thermal_displace_type
  _atom_site_B_iso_or_equiv
  _atom_site_type_symbol
  Ni1      1.0000 0.87412  0.26898  0.92333  Biso   1.000  Ni
  Ni2      1.0000 0.03689  0.27003  0.59868  Biso   1.000  Ni
  N1       1.0000 0.82828  0.24661  0.83444  Biso   1.000  N
  C1       1.0000 0.81292  0.24443  0.78232  Biso   1.000  C
  N2       1.0000 0.90876  0.26021  0.64386  Biso   1.000  N
  C2       1.0000 0.85480  0.25198  0.68262  Biso   1.000  C
  N3       1.0000 0.78759  0.24196  0.72372  Biso   1.000  N
  N4       1.0000 0.00951  0.28265  0.88231  Biso   1.000  N
  C3       1.0000 0.06061  0.29096  0.84102  Biso   1.000  C
  N5       1.0000 0.09470  0.28591  0.68718  Biso   1.000  N
  C4       1.0000 0.10436  0.29129  0.73988  Biso   1.000  C
  N6       1.0000 0.12621  0.30044  0.79905  Biso   1.000  N
  N7       1.0000 0.92965  0.28747  0.01218  Biso   1.000  N
  C5       1.0000 0.99610  0.27688  0.04147  Biso   1.000  C
  N8       1.0000 0.23122  0.24300  0.05110  Biso   1.000  N
  C6       1.0000 0.15260  0.25339  0.06152  Biso   1.000  C
  N9       1.0000 0.06498  0.26501  0.08064  Biso   1.000  N
  N10      1.0000 0.85386  0.39063  0.91399  Biso   1.000  N
  C7       1.0000 0.84548  0.45899  0.90747  Biso   1.000  C
  N11      1.0000 0.93269  0.64787  0.89451  Biso   1.000  N
  C8       1.0000 0.88600  0.59187  0.89712  Biso   1.000  C
  N12      1.0000 0.82277  0.53420  0.89886  Biso   1.000  N
  N13      1.0000 0.16972  0.28185  0.55690  Biso   1.000  N
  C9       1.0000 0.25000  0.29044  0.55047  Biso   1.000  C
  N14      1.0000 0.46217  0.24945  0.48260  Biso   1.000  N
  C10      1.0000 0.40050  0.27342  0.51205  Biso   1.000  C
  N15      1.0000 0.34070  0.30698  0.55055  Biso   1.000  N
  N16      1.0000 0.97840  0.89321  0.91585  Biso   1.000  N
  C11      1.0000 0.95240  0.95099  0.94128  Biso   1.000  C
  N17      1.0000 0.89536  0.14770  0.93890  Biso   1.000  N
  C12      1.0000 0.90974  0.08249  0.95352  Biso   1.000  C
  N18      1.0000 0.92532  0.01057  0.97607  Biso   1.000  N
  Ni3      1.0000 0.62588  0.73102  0.42333  Biso   1.000  Ni
  Ni4      1.0000 0.46311  0.72997  0.09868  Biso   1.000  Ni
  N19      1.0000 0.67172  0.75339  0.33444  Biso   1.000  N
  C13      1.0000 0.68708  0.75557  0.28232  Biso   1.000  C
  N20      1.0000 0.59124  0.73979  0.14386  Biso   1.000  N
  C14      1.0000 0.64520  0.74802  0.18262  Biso   1.000  C
  N21      1.0000 0.71241  0.75804  0.22372  Biso   1.000  N
  N22      1.0000 0.49049  0.71735  0.38231  Biso   1.000  N
  C15      1.0000 0.43939  0.70904  0.34102  Biso   1.000  C
  N23      1.0000 0.40530  0.71409  0.18718  Biso   1.000  N
  C16      1.0000 0.39564  0.70871  0.23988  Biso   1.000  C
  N24      1.0000 0.37379  0.69956  0.29905  Biso   1.000  N
  N25      1.0000 0.57035  0.71253  0.51218  Biso   1.000  N
  C17      1.0000 0.50390  0.72312  0.54147  Biso   1.000  C
  N26      1.0000 0.26878  0.75700  0.55110  Biso   1.000  N
  C18      1.0000 0.34740  0.74661  0.56152  Biso   1.000  C
  N27      1.0000 0.43502  0.73499  0.58064  Biso   1.000  N
  N28      1.0000 0.64614  0.60937  0.41399  Biso   1.000  N
  C19      1.0000 0.65452  0.54101  0.40747  Biso   1.000  C
  N29      1.0000 0.56731  0.35213  0.39451  Biso   1.000  N
  C20      1.0000 0.61400  0.40813  0.39712  Biso   1.000  C
  N30      1.0000 0.67723  0.46580  0.39886  Biso   1.000  N
  N31      1.0000 0.33028  0.71815  0.05690  Biso   1.000  N
  C21      1.0000 0.25000  0.70956  0.05047  Biso   1.000  C
  N32      1.0000 0.03783  0.75055  0.98260  Biso   1.000  N
  C22      1.0000 0.09950  0.72658  0.01205  Biso   1.000  C
  N33      1.0000 0.15930  0.69302  0.05055  Biso   1.000  N
  N34      1.0000 0.52160  0.10679  0.41585  Biso   1.000  N
  C23      1.0000 0.54760  0.04901  0.44128  Biso   1.000  C
  N35      1.0000 0.60464  0.85230  0.43890  Biso   1.000  N
  C24      1.0000 0.59026  0.91751  0.45352  Biso   1.000  C
  N36      1.0000 0.57468  0.98943  0.47607  Biso   1.000  N
  Ni5      1.0000 0.12588  0.76898  0.57667  Biso   1.000  Ni
  Ni6      1.0000 0.96311  0.77003  0.90132  Biso   1.000  Ni
  N37      1.0000 0.17172  0.74661  0.66556  Biso   1.000  N
  C25      1.0000 0.18708  0.74443  0.71768  Biso   1.000  C
  N38      1.0000 0.09124  0.76021  0.85614  Biso   1.000  N
  C26      1.0000 0.14520  0.75198  0.81738  Biso   1.000  C
  N39      1.0000 0.21241  0.74196  0.77628  Biso   1.000  N
  N40      1.0000 0.99049  0.78265  0.61769  Biso   1.000  N
  C27      1.0000 0.93939  0.79096  0.65898  Biso   1.000  C
  N41      1.0000 0.90530  0.78591  0.81282  Biso   1.000  N
  C28      1.0000 0.89564  0.79129  0.76012  Biso   1.000  C
  N42      1.0000 0.87379  0.80044  0.70095  Biso   1.000  N
  N43      1.0000 0.07035  0.78747  0.48782  Biso   1.000  N
  C29      1.0000 0.00390  0.77688  0.45853  Biso   1.000  C
  N44      1.0000 0.76878  0.74300  0.44890  Biso   1.000  N
  C30      1.0000 0.84740  0.75339  0.43848  Biso   1.000  C
  N45      1.0000 0.93502  0.76501  0.41936  Biso   1.000  N
  N46      1.0000 0.14614  0.89063  0.58601  Biso   1.000  N
  C31      1.0000 0.15452  0.95899  0.59253  Biso   1.000  C
  N47      1.0000 0.06731  0.14787  0.60549  Biso   1.000  N
  C32      1.0000 0.11400  0.09187  0.60288  Biso   1.000  C
  N48      1.0000 0.17723  0.03420  0.60114  Biso   1.000  N
  N49      1.0000 0.83028  0.78185  0.94310  Biso   1.000  N
  C33      1.0000 0.75000  0.79044  0.94953  Biso   1.000  C
  N50      1.0000 0.53783  0.74945  0.01740  Biso   1.000  N
  C34      1.0000 0.59950  0.77342  0.98795  Biso   1.000  C
  N51      1.0000 0.65930  0.80698  0.94945  Biso   1.000  N
  N52      1.0000 0.02160  0.39321  0.58415  Biso   1.000  N
  C35      1.0000 0.04760  0.45099  0.55872  Biso   1.000  C
  N53      1.0000 0.10464  0.64770  0.56110  Biso   1.000  N
  C36      1.0000 0.09026  0.58249  0.54648  Biso   1.000  C
  N54      1.0000 0.07468  0.51057  0.52393  Biso   1.000  N
  Ni7      1.0000 0.37412  0.23102  0.07667  Biso   1.000  Ni
  Ni8      1.0000 0.53689  0.22997  0.40132  Biso   1.000  Ni
  N55      1.0000 0.32828  0.25339  0.16556  Biso   1.000  N
  C37      1.0000 0.31292  0.25557  0.21768  Biso   1.000  C
  N56      1.0000 0.40876  0.23979  0.35614  Biso   1.000  N
  C38      1.0000 0.35480  0.24802  0.31738  Biso   1.000  C
  N57      1.0000 0.28759  0.25804  0.27628  Biso   1.000  N
  N58      1.0000 0.50951  0.21735  0.11769  Biso   1.000  N
  C39      1.0000 0.56061  0.20904  0.15898  Biso   1.000  C
  N59      1.0000 0.59470  0.21409  0.31282  Biso   1.000  N
  C40      1.0000 0.60436  0.20871  0.26012  Biso   1.000  C
  N60      1.0000 0.62621  0.19956  0.20095  Biso   1.000  N
  N61      1.0000 0.42965  0.21253  0.98782  Biso   1.000  N
  C41      1.0000 0.49610  0.22312  0.95853  Biso   1.000  C
  N62      1.0000 0.73122  0.25700  0.94890  Biso   1.000  N
  C42      1.0000 0.65260  0.24661  0.93848  Biso   1.000  C
  N63      1.0000 0.56498  0.23499  0.91936  Biso   1.000  N
  N64      1.0000 0.35386  0.10937  0.08601  Biso   1.000  N
  C43      1.0000 0.34548  0.04101  0.09253  Biso   1.000  C
  N65      1.0000 0.43269  0.85213  0.10549  Biso   1.000  N
  C44      1.0000 0.38600  0.90813  0.10288  Biso   1.000  C
  N66      1.0000 0.32277  0.96580  0.10114  Biso   1.000  N
  N67      1.0000 0.66972  0.21815  0.44310  Biso   1.000  N
  C45      1.0000 0.75000  0.20956  0.44953  Biso   1.000  C
  N68      1.0000 0.96217  0.25055  0.51740  Biso   1.000  N
  C46      1.0000 0.90050  0.22658  0.48795  Biso   1.000  C
  N69      1.0000 0.84070  0.19302  0.44945  Biso   1.000  N
  N70      1.0000 0.47840  0.60679  0.08415  Biso   1.000  N
  C47      1.0000 0.45240  0.54901  0.05872  Biso   1.000  C
  N71      1.0000 0.39536  0.35230  0.06110  Biso   1.000  N
  C48      1.0000 0.40974  0.41751  0.04648  Biso   1.000  C
  N72      1.0000 0.42532  0.48943  0.02393  Biso   1.000  N
