data_image0
_cell_length_a       12.2315
_cell_length_b       12.4428
_cell_length_c       17.7483
_cell_angle_alpha    90
_cell_angle_beta     90
_cell_angle_gamma    112.51

_symmetry_space_group_name_H-M    P 1
_symmetry_int_tables_number       1

loop_
  _symmetry_equiv_pos_as_xyz
  'x, y, z'

loop_
  _atom_site_label
  _atom_site_occupancy
  _atom_site_fract_x
  _atom_site_fract_y
  _atom_site_fract_z
  _atom_site_thermal_displace_type
  _atom_site_B_iso_or_equiv
  _atom_site_type_symbol
  Ni1      1.0000 0.15437  0.06103  0.29552  Biso   1.000  Ni
  Ni2      1.0000 0.34563  0.93897  0.79552  Biso   1.000  Ni
  Ni3      1.0000 0.84563  0.93897  0.70448  Biso   1.000  Ni
  Ni4      1.0000 0.65437  0.06103  0.20448  Biso   1.000  Ni
  Ni5      1.0000 0.00000  0.50000  0.50000  Biso   1.000  Ni
  Ni6      1.0000 0.50000  0.50000  0.00000  Biso   1.000  Ni
  H1       1.0000 0.74720  0.37610  0.32130  Biso   1.000  H
  H2       1.0000 0.46910  0.41060  0.21570  Biso   1.000  H
  H3       1.0000 0.65020  0.64210  0.37600  Biso   1.000  H
  H4       1.0000 0.43360  0.58880  0.23310  Biso   1.000  H
  H5       1.0000 0.51030  0.68470  0.29330  Biso   1.000  H
  H6       1.0000 0.35120  0.73140  0.27060  Biso   1.000  H
  H7       1.0000 0.06890  0.71410  0.39630  Biso   1.000  H
  H8       1.0000 0.21150  0.48380  0.42760  Biso   1.000  H
  H9       1.0000 0.93980  0.66150  0.52000  Biso   1.000  H
  H10      1.0000 0.01650  0.68750  0.58230  Biso   1.000  H
  H11      1.0000 0.34940  0.09060  0.37490  Biso   1.000  H
  H12      1.0000 0.32730  0.19680  0.38570  Biso   1.000  H
  H13      1.0000 0.31350  0.14700  0.19280  Biso   1.000  H
  H14      1.0000 0.28300  0.01510  0.18330  Biso   1.000  H
  H15      1.0000 0.02810  0.10860  0.37830  Biso   1.000  H
  H16      1.0000 0.08070  0.07700  0.43640  Biso   1.000  H
  H17      1.0000 0.92320  0.94930  0.25660  Biso   1.000  H
  H18      1.0000 0.98700  0.98730  0.18550  Biso   1.000  H
  H19      1.0000 0.75280  0.62390  0.82130  Biso   1.000  H
  H20      1.0000 0.03090  0.58940  0.71570  Biso   1.000  H
  H21      1.0000 0.84980  0.35790  0.87600  Biso   1.000  H
  H22      1.0000 0.06640  0.41120  0.73310  Biso   1.000  H
  H23      1.0000 0.98970  0.31530  0.79330  Biso   1.000  H
  H24      1.0000 0.14880  0.26860  0.77060  Biso   1.000  H
  H25      1.0000 0.43110  0.28590  0.89630  Biso   1.000  H
  H26      1.0000 0.28850  0.51620  0.92760  Biso   1.000  H
  H27      1.0000 0.56020  0.33850  0.02000  Biso   1.000  H
  H28      1.0000 0.48350  0.31250  0.08230  Biso   1.000  H
  H29      1.0000 0.15060  0.90940  0.87490  Biso   1.000  H
  H30      1.0000 0.17270  0.80320  0.88570  Biso   1.000  H
  H31      1.0000 0.18650  0.85300  0.69280  Biso   1.000  H
  H32      1.0000 0.21700  0.98490  0.68330  Biso   1.000  H
  H33      1.0000 0.47190  0.89140  0.87830  Biso   1.000  H
  H34      1.0000 0.41930  0.92300  0.93640  Biso   1.000  H
  H35      1.0000 0.57680  0.05070  0.75660  Biso   1.000  H
  H36      1.0000 0.51300  0.01270  0.68550  Biso   1.000  H
  H37      1.0000 0.25280  0.62390  0.67870  Biso   1.000  H
  H38      1.0000 0.53090  0.58940  0.78430  Biso   1.000  H
  H39      1.0000 0.34980  0.35790  0.62400  Biso   1.000  H
  H40      1.0000 0.56640  0.41120  0.76690  Biso   1.000  H
  H41      1.0000 0.48970  0.31530  0.70670  Biso   1.000  H
  H42      1.0000 0.64880  0.26860  0.72940  Biso   1.000  H
  H43      1.0000 0.93110  0.28590  0.60370  Biso   1.000  H
  H44      1.0000 0.78850  0.51620  0.57240  Biso   1.000  H
  H45      1.0000 0.06020  0.33850  0.48000  Biso   1.000  H
  H46      1.0000 0.98350  0.31250  0.41770  Biso   1.000  H
  H47      1.0000 0.65060  0.90940  0.62510  Biso   1.000  H
  H48      1.0000 0.67270  0.80320  0.61430  Biso   1.000  H
  H49      1.0000 0.68650  0.85300  0.80720  Biso   1.000  H
  H50      1.0000 0.71700  0.98490  0.81670  Biso   1.000  H
  H51      1.0000 0.97190  0.89140  0.62170  Biso   1.000  H
  H52      1.0000 0.91930  0.92300  0.56360  Biso   1.000  H
  H53      1.0000 0.07680  0.05070  0.74340  Biso   1.000  H
  H54      1.0000 0.01300  0.01270  0.81450  Biso   1.000  H
  H55      1.0000 0.24720  0.37610  0.17870  Biso   1.000  H
  H56      1.0000 0.96910  0.41060  0.28430  Biso   1.000  H
  H57      1.0000 0.15020  0.64210  0.12400  Biso   1.000  H
  H58      1.0000 0.93360  0.58880  0.26690  Biso   1.000  H
  H59      1.0000 0.01030  0.68470  0.20670  Biso   1.000  H
  H60      1.0000 0.85120  0.73140  0.22940  Biso   1.000  H
  H61      1.0000 0.56890  0.71410  0.10370  Biso   1.000  H
  H62      1.0000 0.71150  0.48380  0.07240  Biso   1.000  H
  H63      1.0000 0.43980  0.66150  0.98000  Biso   1.000  H
  H64      1.0000 0.51650  0.68750  0.91770  Biso   1.000  H
  H65      1.0000 0.84940  0.09060  0.12510  Biso   1.000  H
  H66      1.0000 0.82730  0.19680  0.11430  Biso   1.000  H
  H67      1.0000 0.81350  0.14700  0.30720  Biso   1.000  H
  H68      1.0000 0.78300  0.01510  0.31670  Biso   1.000  H
  H69      1.0000 0.52810  0.10860  0.12170  Biso   1.000  H
  H70      1.0000 0.58070  0.07700  0.06360  Biso   1.000  H
  H71      1.0000 0.42320  0.94930  0.24340  Biso   1.000  H
  H72      1.0000 0.48700  0.98730  0.31450  Biso   1.000  H
  C1       1.0000 0.80810  0.55350  0.41710  Biso   1.000  C
  C2       1.0000 0.71360  0.51560  0.35820  Biso   1.000  C
  C3       1.0000 0.69620  0.41680  0.31460  Biso   1.000  C
  C4       1.0000 0.60590  0.37700  0.26180  Biso   1.000  C
  C5       1.0000 0.53170  0.43740  0.25140  Biso   1.000  C
  C6       1.0000 0.54980  0.53720  0.29340  Biso   1.000  C
  C7       1.0000 0.63950  0.57480  0.34690  Biso   1.000  C
  C8       1.0000 0.58730  0.26880  0.21830  Biso   1.000  C
  C9       1.0000 0.46770  0.60030  0.28450  Biso   1.000  C
  C10      1.0000 0.29580  0.60170  0.34810  Biso   1.000  C
  C11      1.0000 0.29480  0.69630  0.30910  Biso   1.000  C
  C12      1.0000 0.20810  0.73950  0.32780  Biso   1.000  C
  C13      1.0000 0.12670  0.68370  0.38310  Biso   1.000  C
  C14      1.0000 0.21020  0.55020  0.40180  Biso   1.000  C
  C15      1.0000 0.20710  0.84630  0.28930  Biso   1.000  C
  C16      1.0000 0.69190  0.44650  0.91710  Biso   1.000  C
  C17      1.0000 0.78640  0.48440  0.85820  Biso   1.000  C
  C18      1.0000 0.80380  0.58320  0.81460  Biso   1.000  C
  C19      1.0000 0.89410  0.62300  0.76180  Biso   1.000  C
  C20      1.0000 0.96830  0.56260  0.75140  Biso   1.000  C
  C21      1.0000 0.95020  0.46280  0.79340  Biso   1.000  C
  C22      1.0000 0.86050  0.42520  0.84690  Biso   1.000  C
  C23      1.0000 0.91270  0.73120  0.71830  Biso   1.000  C
  C24      1.0000 0.03230  0.39970  0.78450  Biso   1.000  C
  C25      1.0000 0.20420  0.39830  0.84810  Biso   1.000  C
  C26      1.0000 0.20520  0.30370  0.80910  Biso   1.000  C
  C27      1.0000 0.29190  0.26050  0.82780  Biso   1.000  C
  C28      1.0000 0.37330  0.31630  0.88310  Biso   1.000  C
  C29      1.0000 0.28980  0.44980  0.90180  Biso   1.000  C
  C30      1.0000 0.29290  0.15370  0.78930  Biso   1.000  C
  C31      1.0000 0.19190  0.44650  0.58290  Biso   1.000  C
  C32      1.0000 0.28640  0.48440  0.64180  Biso   1.000  C
  C33      1.0000 0.30380  0.58320  0.68540  Biso   1.000  C
  C34      1.0000 0.39410  0.62300  0.73820  Biso   1.000  C
  C35      1.0000 0.46830  0.56260  0.74860  Biso   1.000  C
  C36      1.0000 0.45020  0.46280  0.70660  Biso   1.000  C
  C37      1.0000 0.36050  0.42520  0.65310  Biso   1.000  C
  C38      1.0000 0.41270  0.73120  0.78170  Biso   1.000  C
  C39      1.0000 0.53230  0.39970  0.71550  Biso   1.000  C
  C40      1.0000 0.70420  0.39830  0.65190  Biso   1.000  C
  C41      1.0000 0.70520  0.30370  0.69090  Biso   1.000  C
  C42      1.0000 0.79190  0.26050  0.67220  Biso   1.000  C
  C43      1.0000 0.87330  0.31630  0.61690  Biso   1.000  C
  C44      1.0000 0.78980  0.44980  0.59820  Biso   1.000  C
  C45      1.0000 0.79290  0.15370  0.71070  Biso   1.000  C
  C46      1.0000 0.30810  0.55350  0.08290  Biso   1.000  C
  C47      1.0000 0.21360  0.51560  0.14180  Biso   1.000  C
  C48      1.0000 0.19620  0.41680  0.18540  Biso   1.000  C
  C49      1.0000 0.10590  0.37700  0.23820  Biso   1.000  C
  C50      1.0000 0.03170  0.43740  0.24860  Biso   1.000  C
  C51      1.0000 0.04980  0.53720  0.20660  Biso   1.000  C
  C52      1.0000 0.13950  0.57480  0.15310  Biso   1.000  C
  C53      1.0000 0.08730  0.26880  0.28170  Biso   1.000  C
  C54      1.0000 0.96770  0.60030  0.21550  Biso   1.000  C
  C55      1.0000 0.79580  0.60170  0.15190  Biso   1.000  C
  C56      1.0000 0.79480  0.69630  0.19090  Biso   1.000  C
  C57      1.0000 0.70810  0.73950  0.17220  Biso   1.000  C
  C58      1.0000 0.62670  0.68370  0.11690  Biso   1.000  C
  C59      1.0000 0.71020  0.55020  0.09820  Biso   1.000  C
  C60      1.0000 0.70710  0.84630  0.21070  Biso   1.000  C
  N1       1.0000 0.12570  0.58870  0.41917  Biso   1.000  N
  N2       1.0000 0.37430  0.41130  0.91917  Biso   1.000  N
  N3       1.0000 0.87430  0.41130  0.58083  Biso   1.000  N
  N4       1.0000 0.62570  0.58870  0.08083  Biso   1.000  N
  O1       1.0000 0.87100  0.49440  0.42386  Biso   1.000  O
  O2       1.0000 0.81770  0.64070  0.45718  Biso   1.000  O
  O3       1.0000 0.50160  0.23160  0.17201  Biso   1.000  O
  O4       1.0000 0.66090  0.22220  0.22983  Biso   1.000  O
  O5       1.0000 0.37660  0.55120  0.33958  Biso   1.000  O
  O6       1.0000 0.14940  0.89840  0.32061  Biso   1.000  O
  O7       1.0000 0.26560  0.87570  0.22859  Biso   1.000  O
  O8       1.0000 0.00990  0.66060  0.53885  Biso   1.000  O
  O9       1.0000 0.30950  0.13310  0.35451  Biso   1.000  O
  O10      1.0000 0.25030  0.07470  0.19764  Biso   1.000  O
  O11      1.0000 0.04760  0.05530  0.38930  Biso   1.000  O
  O12      1.0000 0.00230  0.98260  0.23515  Biso   1.000  O
  O13      1.0000 0.62900  0.50560  0.92386  Biso   1.000  O
  O14      1.0000 0.68230  0.35930  0.95718  Biso   1.000  O
  O15      1.0000 0.99840  0.76840  0.67201  Biso   1.000  O
  O16      1.0000 0.83910  0.77780  0.72983  Biso   1.000  O
  O17      1.0000 0.12340  0.44880  0.83958  Biso   1.000  O
  O18      1.0000 0.35060  0.10160  0.82061  Biso   1.000  O
  O19      1.0000 0.23440  0.12430  0.72859  Biso   1.000  O
  O20      1.0000 0.49010  0.33940  0.03885  Biso   1.000  O
  O21      1.0000 0.19050  0.86690  0.85451  Biso   1.000  O
  O22      1.0000 0.24970  0.92530  0.69764  Biso   1.000  O
  O23      1.0000 0.45240  0.94470  0.88930  Biso   1.000  O
  O24      1.0000 0.49770  0.01740  0.73515  Biso   1.000  O
  O25      1.0000 0.12900  0.50560  0.57614  Biso   1.000  O
  O26      1.0000 0.18230  0.35930  0.54282  Biso   1.000  O
  O27      1.0000 0.49840  0.76840  0.82799  Biso   1.000  O
  O28      1.0000 0.33910  0.77780  0.77017  Biso   1.000  O
  O29      1.0000 0.62340  0.44880  0.66042  Biso   1.000  O
  O30      1.0000 0.85060  0.10160  0.67939  Biso   1.000  O
  O31      1.0000 0.73440  0.12430  0.77141  Biso   1.000  O
  O32      1.0000 0.99010  0.33940  0.46115  Biso   1.000  O
  O33      1.0000 0.69050  0.86690  0.64549  Biso   1.000  O
  O34      1.0000 0.74970  0.92530  0.80236  Biso   1.000  O
  O35      1.0000 0.95240  0.94470  0.61070  Biso   1.000  O
  O36      1.0000 0.99770  0.01740  0.76485  Biso   1.000  O
  O37      1.0000 0.37100  0.49440  0.07614  Biso   1.000  O
  O38      1.0000 0.31770  0.64070  0.04282  Biso   1.000  O
  O39      1.0000 0.00160  0.23160  0.32799  Biso   1.000  O
  O40      1.0000 0.16090  0.22220  0.27017  Biso   1.000  O
  O41      1.0000 0.87660  0.55120  0.16042  Biso   1.000  O
  O42      1.0000 0.64940  0.89840  0.17939  Biso   1.000  O
  O43      1.0000 0.76560  0.87570  0.27141  Biso   1.000  O
  O44      1.0000 0.50990  0.66060  0.96115  Biso   1.000  O
  O45      1.0000 0.80950  0.13310  0.14549  Biso   1.000  O
  O46      1.0000 0.75030  0.07470  0.30236  Biso   1.000  O
  O47      1.0000 0.54760  0.05530  0.11070  Biso   1.000  O
  O48      1.0000 0.50230  0.98260  0.26485  Biso   1.000  O
