data_image0
_cell_length_a       11.6416
_cell_length_b       14.9517
_cell_length_c       16.6108
_cell_angle_alpha    90
_cell_angle_beta     93.893
_cell_angle_gamma    90

_symmetry_space_group_name_H-M    P 1
_symmetry_int_tables_number       1

loop_
  _symmetry_equiv_pos_as_xyz
  'x, y, z'

loop_
  _atom_site_label
  _atom_site_occupancy
  _atom_site_fract_x
  _atom_site_fract_y
  _atom_site_fract_z
  _atom_site_thermal_displace_type
  _atom_site_B_iso_or_equiv
  _atom_site_type_symbol
  Cu1      1.0000 0.39677  0.03630  0.00865  Biso   1.000  Cu
  Cu2      1.0000 0.10323  0.53630  0.49135  Biso   1.000  Cu
  Cu3      1.0000 0.60323  0.96370  0.99135  Biso   1.000  Cu
  Cu4      1.0000 0.89677  0.46370  0.50865  Biso   1.000  Cu
  Cu5      1.0000 0.50000  0.50000  0.00000  Biso   1.000  Cu
  Cu6      1.0000 0.00000  0.00000  0.50000  Biso   1.000  Cu
  H1       1.0000 0.25460  0.49470  0.73600  Biso   1.000  H
  H2       1.0000 0.95220  0.36230  0.74430  Biso   1.000  H
  H3       1.0000 0.18330  0.35680  0.93730  Biso   1.000  H
  H4       1.0000 0.00800  0.26790  0.93870  Biso   1.000  H
  H5       1.0000 0.92950  0.25410  0.85590  Biso   1.000  H
  H6       1.0000 0.79270  0.20400  0.92990  Biso   1.000  H
  H7       1.0000 0.48290  0.30410  0.98240  Biso   1.000  H
  H8       1.0000 0.73730  0.47120  0.94970  Biso   1.000  H
  H9       1.0000 0.22010  0.14410  0.04880  Biso   1.000  H
  H10      1.0000 0.17560  0.09350  0.97900  Biso   1.000  H
  H11      1.0000 0.24540  0.99470  0.76400  Biso   1.000  H
  H12      1.0000 0.54780  0.86230  0.75570  Biso   1.000  H
  H13      1.0000 0.31670  0.85680  0.56270  Biso   1.000  H
  H14      1.0000 0.49200  0.76790  0.56130  Biso   1.000  H
  H15      1.0000 0.57050  0.75410  0.64410  Biso   1.000  H
  H16      1.0000 0.70730  0.70400  0.57010  Biso   1.000  H
  H17      1.0000 0.01710  0.80410  0.51760  Biso   1.000  H
  H18      1.0000 0.76270  0.97120  0.55030  Biso   1.000  H
  H19      1.0000 0.27990  0.64410  0.45120  Biso   1.000  H
  H20      1.0000 0.32440  0.59350  0.52100  Biso   1.000  H
  H21      1.0000 0.74540  0.50530  0.26400  Biso   1.000  H
  H22      1.0000 0.04780  0.63770  0.25570  Biso   1.000  H
  H23      1.0000 0.81670  0.64320  0.06270  Biso   1.000  H
  H24      1.0000 0.99200  0.73210  0.06130  Biso   1.000  H
  H25      1.0000 0.07050  0.74590  0.14410  Biso   1.000  H
  H26      1.0000 0.20730  0.79600  0.07010  Biso   1.000  H
  H27      1.0000 0.51710  0.69590  0.01760  Biso   1.000  H
  H28      1.0000 0.26270  0.52880  0.05030  Biso   1.000  H
  H29      1.0000 0.77990  0.85590  0.95120  Biso   1.000  H
  H30      1.0000 0.82440  0.90650  0.02100  Biso   1.000  H
  H31      1.0000 0.75460  0.00530  0.23600  Biso   1.000  H
  H32      1.0000 0.45220  0.13770  0.24430  Biso   1.000  H
  H33      1.0000 0.68330  0.14320  0.43730  Biso   1.000  H
  H34      1.0000 0.50800  0.23210  0.43870  Biso   1.000  H
  H35      1.0000 0.42950  0.24590  0.35590  Biso   1.000  H
  H36      1.0000 0.29270  0.29600  0.42990  Biso   1.000  H
  H37      1.0000 0.98290  0.19590  0.48240  Biso   1.000  H
  H38      1.0000 0.23730  0.02880  0.44970  Biso   1.000  H
  H39      1.0000 0.72010  0.35590  0.54880  Biso   1.000  H
  H40      1.0000 0.67560  0.40650  0.47900  Biso   1.000  H
  C1       1.0000 0.34520  0.46327  0.88460  Biso   1.000  C
  C2       1.0000 0.23450  0.43068  0.84303  Biso   1.000  C
  C3       1.0000 0.20360  0.45870  0.76439  Biso   1.000  C
  C4       1.0000 0.09740  0.43333  0.72785  Biso   1.000  C
  C5       1.0000 0.02460  0.37948  0.76961  Biso   1.000  C
  C6       1.0000 0.05490  0.35027  0.84704  Biso   1.000  C
  C7       1.0000 0.16120  0.37629  0.88406  Biso   1.000  C
  C8       1.0000 0.06140  0.46167  0.64356  Biso   1.000  C
  C9       1.0000 0.96980  0.29892  0.89150  Biso   1.000  C
  C10      1.0000 0.78360  0.34097  0.93520  Biso   1.000  C
  C11      1.0000 0.74400  0.25337  0.93913  Biso   1.000  C
  C12      1.0000 0.62930  0.24109  0.95725  Biso   1.000  C
  C13      1.0000 0.56090  0.31377  0.97120  Biso   1.000  C
  C14      1.0000 0.70930  0.41159  0.95152  Biso   1.000  C
  C15      1.0000 0.58210  0.14888  0.96552  Biso   1.000  C
  C16      1.0000 0.15480  0.96327  0.61540  Biso   1.000  C
  C17      1.0000 0.26550  0.93068  0.65697  Biso   1.000  C
  C18      1.0000 0.29640  0.95870  0.73561  Biso   1.000  C
  C19      1.0000 0.40260  0.93333  0.77215  Biso   1.000  C
  C20      1.0000 0.47540  0.87948  0.73039  Biso   1.000  C
  C21      1.0000 0.44510  0.85027  0.65296  Biso   1.000  C
  C22      1.0000 0.33880  0.87629  0.61594  Biso   1.000  C
  C23      1.0000 0.43860  0.96167  0.85644  Biso   1.000  C
  C24      1.0000 0.53020  0.79892  0.60850  Biso   1.000  C
  C25      1.0000 0.71640  0.84097  0.56480  Biso   1.000  C
  C26      1.0000 0.75600  0.75337  0.56087  Biso   1.000  C
  C27      1.0000 0.87070  0.74109  0.54275  Biso   1.000  C
  C28      1.0000 0.93910  0.81377  0.52880  Biso   1.000  C
  C29      1.0000 0.79070  0.91159  0.54848  Biso   1.000  C
  C30      1.0000 0.91790  0.64888  0.53448  Biso   1.000  C
  C31      1.0000 0.65480  0.53673  0.11540  Biso   1.000  C
  C32      1.0000 0.76550  0.56932  0.15697  Biso   1.000  C
  C33      1.0000 0.79640  0.54130  0.23561  Biso   1.000  C
  C34      1.0000 0.90260  0.56667  0.27215  Biso   1.000  C
  C35      1.0000 0.97540  0.62052  0.23039  Biso   1.000  C
  C36      1.0000 0.94510  0.64973  0.15296  Biso   1.000  C
  C37      1.0000 0.83880  0.62371  0.11594  Biso   1.000  C
  C38      1.0000 0.93860  0.53833  0.35644  Biso   1.000  C
  C39      1.0000 0.03020  0.70108  0.10850  Biso   1.000  C
  C40      1.0000 0.21640  0.65903  0.06480  Biso   1.000  C
  C41      1.0000 0.25600  0.74663  0.06087  Biso   1.000  C
  C42      1.0000 0.37070  0.75891  0.04275  Biso   1.000  C
  C43      1.0000 0.43910  0.68623  0.02880  Biso   1.000  C
  C44      1.0000 0.29070  0.58841  0.04848  Biso   1.000  C
  C45      1.0000 0.41790  0.85112  0.03448  Biso   1.000  C
  C46      1.0000 0.84520  0.03673  0.38460  Biso   1.000  C
  C47      1.0000 0.73450  0.06932  0.34303  Biso   1.000  C
  C48      1.0000 0.70360  0.04130  0.26439  Biso   1.000  C
  C49      1.0000 0.59740  0.06667  0.22785  Biso   1.000  C
  C50      1.0000 0.52460  0.12052  0.26961  Biso   1.000  C
  C51      1.0000 0.55490  0.14973  0.34704  Biso   1.000  C
  C52      1.0000 0.66120  0.12371  0.38406  Biso   1.000  C
  C53      1.0000 0.56140  0.03833  0.14356  Biso   1.000  C
  C54      1.0000 0.46980  0.20108  0.39150  Biso   1.000  C
  C55      1.0000 0.28360  0.15903  0.43520  Biso   1.000  C
  C56      1.0000 0.24400  0.24663  0.43913  Biso   1.000  C
  C57      1.0000 0.12930  0.25891  0.45725  Biso   1.000  C
  C58      1.0000 0.06090  0.18623  0.47120  Biso   1.000  C
  C59      1.0000 0.20930  0.08841  0.45152  Biso   1.000  C
  C60      1.0000 0.08210  0.35112  0.46552  Biso   1.000  C
  N1       1.0000 0.60092  0.39788  0.96949  Biso   1.000  N
  N2       1.0000 0.89908  0.89788  0.53051  Biso   1.000  N
  N3       1.0000 0.39908  0.60212  0.03051  Biso   1.000  N
  N4       1.0000 0.10092  0.10212  0.46949  Biso   1.000  N
  O1       1.0000 0.36413  0.43605  0.95785  Biso   1.000  O
  O2       1.0000 0.41010  0.51411  0.85084  Biso   1.000  O
  O3       1.0000 0.95938  0.44263  0.61906  Biso   1.000  O
  O4       1.0000 0.13442  0.50216  0.60473  Biso   1.000  O
  O5       1.0000 0.89008  0.36650  0.91687  Biso   1.000  O
  O6       1.0000 0.47630  0.14515  0.97754  Biso   1.000  O
  O7       1.0000 0.65020  0.08518  0.96175  Biso   1.000  O
  O8       1.0000 0.23180  0.09576  0.01840  Biso   1.000  O
  O9       1.0000 0.13587  0.93605  0.54215  Biso   1.000  O
  O10      1.0000 0.08990  0.01411  0.64916  Biso   1.000  O
  O11      1.0000 0.54062  0.94263  0.88094  Biso   1.000  O
  O12      1.0000 0.36558  0.00216  0.89527  Biso   1.000  O
  O13      1.0000 0.60992  0.86650  0.58313  Biso   1.000  O
  O14      1.0000 0.02370  0.64515  0.52246  Biso   1.000  O
  O15      1.0000 0.84980  0.58518  0.53825  Biso   1.000  O
  O16      1.0000 0.26820  0.59576  0.48160  Biso   1.000  O
  O17      1.0000 0.63587  0.56395  0.04215  Biso   1.000  O
  O18      1.0000 0.58990  0.48589  0.14916  Biso   1.000  O
  O19      1.0000 0.04062  0.55737  0.38094  Biso   1.000  O
  O20      1.0000 0.86558  0.49784  0.39527  Biso   1.000  O
  O21      1.0000 0.10992  0.63350  0.08313  Biso   1.000  O
  O22      1.0000 0.52370  0.85485  0.02246  Biso   1.000  O
  O23      1.0000 0.34980  0.91482  0.03825  Biso   1.000  O
  O24      1.0000 0.76820  0.90424  0.98160  Biso   1.000  O
  O25      1.0000 0.86413  0.06395  0.45785  Biso   1.000  O
  O26      1.0000 0.91010  0.98589  0.35084  Biso   1.000  O
  O27      1.0000 0.45938  0.05737  0.11906  Biso   1.000  O
  O28      1.0000 0.63442  0.99784  0.10473  Biso   1.000  O
  O29      1.0000 0.39008  0.13350  0.41687  Biso   1.000  O
  O30      1.0000 0.97630  0.35485  0.47754  Biso   1.000  O
  O31      1.0000 0.15020  0.41482  0.46175  Biso   1.000  O
  O32      1.0000 0.73180  0.40424  0.51840  Biso   1.000  O
