data_image0
_cell_length_a       12.5175
_cell_length_b       17.86
_cell_length_c       12.3435
_cell_angle_alpha    90
_cell_angle_beta     112.601
_cell_angle_gamma    90

_symmetry_space_group_name_H-M    "P 1"
_symmetry_int_tables_number       1

loop_
  _symmetry_equiv_pos_as_xyz
  'x, y, z'

loop_
  _atom_site_label
  _atom_site_occupancy
  _atom_site_fract_x
  _atom_site_fract_y
  _atom_site_fract_z
  _atom_site_thermal_displace_type
  _atom_site_B_iso_or_equiv
  _atom_site_type_symbol
  O1       1.0000 0.16262  0.96162  0.50766  Biso   1.000  O
  H1       1.0000 0.15230  0.97800  0.44200  Biso   1.000  H
  H2       1.0000 0.19140  0.91790  0.52090  Biso   1.000  H
  O2       1.0000 0.99822  0.07750  0.37195  Biso   1.000  O
  O3       1.0000 0.14158  0.04259  0.31590  Biso   1.000  O
  C1       1.0000 0.05550  0.08329  0.30790  Biso   1.000  C
  C2       1.0000 0.01610  0.14214  0.21280  Biso   1.000  C
  C3       1.0000 0.91840  0.18521  0.19730  Biso   1.000  C
  H3       1.0000 0.87880  0.17870  0.24870  Biso   1.000  H
  C4       1.0000 0.87820  0.23790  0.10680  Biso   1.000  C
  C5       1.0000 0.93860  0.24859  0.03320  Biso   1.000  C
  H4       1.0000 0.91220  0.28450  0.97190  Biso   1.000  H
  C6       1.0000 0.03770  0.20640  0.05020  Biso   1.000  C
  C7       1.0000 0.07600  0.15366  0.13970  Biso   1.000  C
  H5       1.0000 0.14360  0.12520  0.15120  Biso   1.000  H
  C8       1.0000 0.77160  0.28265  0.09070  Biso   1.000  C
  O4       1.0000 0.73383  0.32823  0.00439  Biso   1.000  O
  O5       1.0000 0.72582  0.27172  0.16384  Biso   1.000  O
  C9       1.0000 0.10060  0.21637  0.96920  Biso   1.000  C
  H6       1.0000 0.08880  0.26750  0.93580  Biso   1.000  H
  H7       1.0000 0.18460  0.20770  0.01140  Biso   1.000  H
  O6       1.0000 0.05110  0.16110  0.87773  Biso   1.000  O
  C10      1.0000 0.10180  0.15274  0.79820  Biso   1.000  C
  C11      1.0000 0.05060  0.09924  0.71210  Biso   1.000  C
  H8       1.0000 0.98430  0.07350  0.71250  Biso   1.000  H
  N1       1.0000 0.09035  0.08235  0.62886  Biso   1.000  N
  C12      1.0000 0.18440  0.11884  0.62930  Biso   1.000  C
  H9       1.0000 0.21410  0.10660  0.57130  Biso   1.000  H
  C13      1.0000 0.23970  0.17380  0.71150  Biso   1.000  C
  C14      1.0000 0.19660  0.19260  0.79730  Biso   1.000  C
  H10      1.0000 0.23090  0.23120  0.85270  Biso   1.000  H
  C15      1.0000 0.34670  0.21287  0.71080  Biso   1.000  C
  O7       1.0000 0.39737  0.18194  0.65209  Biso   1.000  O
  O8       1.0000 0.37613  0.27250  0.76881  Biso   1.000  O
  Co1      1.0000 0.56249  0.29553  0.15740  Biso   1.000  Co
  O9       1.0000 0.55651  0.39011  0.04687  Biso   1.000  O
  H11      1.0000 0.61150  0.37720  0.02020  Biso   1.000  H
  H12      1.0000 0.56910  0.43740  0.07430  Biso   1.000  H
  O10      1.0000 0.57802  0.19632  0.25733  Biso   1.000  O
  H13      1.0000 0.63810  0.20070  0.32680  Biso   1.000  H
  H14      1.0000 0.51130  0.19850  0.26910  Biso   1.000  H
  O11      1.0000 0.63327  0.35721  0.31270  Biso   1.000  O
  H15      1.0000 0.69890  0.38430  0.33430  Biso   1.000  H
  H16      1.0000 0.58350  0.37990  0.33870  Biso   1.000  H
  O12      1.0000 0.48430  0.23410  0.00340  Biso   1.000  O
  H17      1.0000 0.50000  0.18560  0.99720  Biso   1.000  H
  H18      1.0000 0.45650  0.25550  0.93200  Biso   1.000  H
  O13      1.0000 0.83738  0.46162  0.99234  Biso   1.000  O
  H19      1.0000 0.84770  0.47800  0.05800  Biso   1.000  H
  H20      1.0000 0.80860  0.41790  0.97910  Biso   1.000  H
  O14      1.0000 0.00178  0.57750  0.12805  Biso   1.000  O
  O15      1.0000 0.85842  0.54259  0.18410  Biso   1.000  O
  C16      1.0000 0.94450  0.58329  0.19210  Biso   1.000  C
  C17      1.0000 0.98390  0.64214  0.28720  Biso   1.000  C
  C18      1.0000 0.08160  0.68521  0.30270  Biso   1.000  C
  H21      1.0000 0.12120  0.67870  0.25130  Biso   1.000  H
  C19      1.0000 0.12180  0.73790  0.39320  Biso   1.000  C
  C20      1.0000 0.06140  0.74859  0.46680  Biso   1.000  C
  H22      1.0000 0.08780  0.78450  0.52810  Biso   1.000  H
  C21      1.0000 0.96230  0.70640  0.44980  Biso   1.000  C
  C22      1.0000 0.92400  0.65366  0.36030  Biso   1.000  C
  H23      1.0000 0.85640  0.62520  0.34880  Biso   1.000  H
  C23      1.0000 0.22840  0.78265  0.40930  Biso   1.000  C
  O16      1.0000 0.26617  0.82823  0.49561  Biso   1.000  O
  O17      1.0000 0.27418  0.77172  0.33616  Biso   1.000  O
  C24      1.0000 0.89940  0.71637  0.53080  Biso   1.000  C
  H24      1.0000 0.91120  0.76750  0.56420  Biso   1.000  H
  H25      1.0000 0.81540  0.70770  0.48860  Biso   1.000  H
  O18      1.0000 0.94890  0.66110  0.62227  Biso   1.000  O
  C25      1.0000 0.89820  0.65274  0.70180  Biso   1.000  C
  C26      1.0000 0.94940  0.59924  0.78790  Biso   1.000  C
  H26      1.0000 0.01570  0.57350  0.78750  Biso   1.000  H
  N2       1.0000 0.90965  0.58235  0.87114  Biso   1.000  N
  C27      1.0000 0.81560  0.61884  0.87070  Biso   1.000  C
  H27      1.0000 0.78590  0.60660  0.92870  Biso   1.000  H
  C28      1.0000 0.76030  0.67380  0.78850  Biso   1.000  C
  C29      1.0000 0.80340  0.69260  0.70270  Biso   1.000  C
  H28      1.0000 0.76910  0.73120  0.64730  Biso   1.000  H
  C30      1.0000 0.65330  0.71287  0.78920  Biso   1.000  C
  O19      1.0000 0.60263  0.68194  0.84791  Biso   1.000  O
  O20      1.0000 0.62387  0.77250  0.73119  Biso   1.000  O
  Co2      1.0000 0.43751  0.79553  0.34260  Biso   1.000  Co
  O21      1.0000 0.44349  0.89011  0.45313  Biso   1.000  O
  H29      1.0000 0.38850  0.87720  0.47980  Biso   1.000  H
  H30      1.0000 0.43090  0.93740  0.42570  Biso   1.000  H
  O22      1.0000 0.42198  0.69632  0.24267  Biso   1.000  O
  H31      1.0000 0.36190  0.70070  0.17320  Biso   1.000  H
  H32      1.0000 0.48870  0.69850  0.23090  Biso   1.000  H
  O23      1.0000 0.36673  0.85721  0.18730  Biso   1.000  O
  H33      1.0000 0.30110  0.88430  0.16570  Biso   1.000  H
  H34      1.0000 0.41650  0.87990  0.16130  Biso   1.000  H
  O24      1.0000 0.51570  0.73410  0.49660  Biso   1.000  O
  H35      1.0000 0.50000  0.68560  0.50280  Biso   1.000  H
  H36      1.0000 0.54350  0.75550  0.56800  Biso   1.000  H
  O25      1.0000 0.83738  0.03838  0.49234  Biso   1.000  O
  H37      1.0000 0.84770  0.02200  0.55800  Biso   1.000  H
  H38      1.0000 0.80860  0.08210  0.47910  Biso   1.000  H
  O26      1.0000 0.00178  0.92250  0.62805  Biso   1.000  O
  O27      1.0000 0.85842  0.95741  0.68410  Biso   1.000  O
  C31      1.0000 0.94450  0.91671  0.69210  Biso   1.000  C
  C32      1.0000 0.98390  0.85786  0.78720  Biso   1.000  C
  C33      1.0000 0.08160  0.81479  0.80270  Biso   1.000  C
  H39      1.0000 0.12120  0.82130  0.75130  Biso   1.000  H
  C34      1.0000 0.12180  0.76210  0.89320  Biso   1.000  C
  C35      1.0000 0.06140  0.75141  0.96680  Biso   1.000  C
  H40      1.0000 0.08780  0.71550  0.02810  Biso   1.000  H
  C36      1.0000 0.96230  0.79360  0.94980  Biso   1.000  C
  C37      1.0000 0.92400  0.84634  0.86030  Biso   1.000  C
  H41      1.0000 0.85640  0.87480  0.84880  Biso   1.000  H
  C38      1.0000 0.22840  0.71735  0.90930  Biso   1.000  C
  O28      1.0000 0.26617  0.67177  0.99561  Biso   1.000  O
  O29      1.0000 0.27418  0.72828  0.83616  Biso   1.000  O
  C39      1.0000 0.89940  0.78363  0.03080  Biso   1.000  C
  H42      1.0000 0.91120  0.73250  0.06420  Biso   1.000  H
  H43      1.0000 0.81540  0.79230  0.98860  Biso   1.000  H
  O30      1.0000 0.94890  0.83890  0.12227  Biso   1.000  O
  C40      1.0000 0.89820  0.84726  0.20180  Biso   1.000  C
  C41      1.0000 0.94940  0.90076  0.28790  Biso   1.000  C
  H44      1.0000 0.01570  0.92650  0.28750  Biso   1.000  H
  N3       1.0000 0.90965  0.91765  0.37114  Biso   1.000  N
  C42      1.0000 0.81560  0.88116  0.37070  Biso   1.000  C
  H45      1.0000 0.78590  0.89340  0.42870  Biso   1.000  H
  C43      1.0000 0.76030  0.82620  0.28850  Biso   1.000  C
  C44      1.0000 0.80340  0.80740  0.20270  Biso   1.000  C
  H46      1.0000 0.76910  0.76880  0.14730  Biso   1.000  H
  C45      1.0000 0.65330  0.78713  0.28920  Biso   1.000  C
  O31      1.0000 0.60263  0.81806  0.34791  Biso   1.000  O
  O32      1.0000 0.62387  0.72750  0.23119  Biso   1.000  O
  Co3      1.0000 0.43751  0.70447  0.84260  Biso   1.000  Co
  O33      1.0000 0.44349  0.60989  0.95313  Biso   1.000  O
  H47      1.0000 0.38850  0.62280  0.97980  Biso   1.000  H
  H48      1.0000 0.43090  0.56260  0.92570  Biso   1.000  H
  O34      1.0000 0.42198  0.80368  0.74267  Biso   1.000  O
  H49      1.0000 0.36190  0.79930  0.67320  Biso   1.000  H
  H50      1.0000 0.48870  0.80150  0.73090  Biso   1.000  H
  O35      1.0000 0.36673  0.64279  0.68730  Biso   1.000  O
  H51      1.0000 0.30110  0.61570  0.66570  Biso   1.000  H
  H52      1.0000 0.41650  0.62010  0.66130  Biso   1.000  H
  O36      1.0000 0.51570  0.76590  0.99660  Biso   1.000  O
  H53      1.0000 0.50000  0.81440  0.00280  Biso   1.000  H
  H54      1.0000 0.54350  0.74450  0.06800  Biso   1.000  H
  O37      1.0000 0.16262  0.53838  0.00766  Biso   1.000  O
  H55      1.0000 0.15230  0.52200  0.94200  Biso   1.000  H
  H56      1.0000 0.19140  0.58210  0.02090  Biso   1.000  H
  O38      1.0000 0.99822  0.42250  0.87195  Biso   1.000  O
  O39      1.0000 0.14158  0.45741  0.81590  Biso   1.000  O
  C46      1.0000 0.05550  0.41671  0.80790  Biso   1.000  C
  C47      1.0000 0.01610  0.35786  0.71280  Biso   1.000  C
  C48      1.0000 0.91840  0.31479  0.69730  Biso   1.000  C
  H57      1.0000 0.87880  0.32130  0.74870  Biso   1.000  H
  C49      1.0000 0.87820  0.26210  0.60680  Biso   1.000  C
  C50      1.0000 0.93860  0.25141  0.53320  Biso   1.000  C
  H58      1.0000 0.91220  0.21550  0.47190  Biso   1.000  H
  C51      1.0000 0.03770  0.29360  0.55020  Biso   1.000  C
  C52      1.0000 0.07600  0.34634  0.63970  Biso   1.000  C
  H59      1.0000 0.14360  0.37480  0.65120  Biso   1.000  H
  C53      1.0000 0.77160  0.21735  0.59070  Biso   1.000  C
  O40      1.0000 0.73383  0.17177  0.50439  Biso   1.000  O
  O41      1.0000 0.72582  0.22828  0.66384  Biso   1.000  O
  C54      1.0000 0.10060  0.28363  0.46920  Biso   1.000  C
  H60      1.0000 0.08880  0.23250  0.43580  Biso   1.000  H
  H61      1.0000 0.18460  0.29230  0.51140  Biso   1.000  H
  O42      1.0000 0.05110  0.33890  0.37773  Biso   1.000  O
  C55      1.0000 0.10180  0.34726  0.29820  Biso   1.000  C
  C56      1.0000 0.05060  0.40076  0.21210  Biso   1.000  C
  H62      1.0000 0.98430  0.42650  0.21250  Biso   1.000  H
  N4       1.0000 0.09035  0.41765  0.12886  Biso   1.000  N
  C57      1.0000 0.18440  0.38116  0.12930  Biso   1.000  C
  H63      1.0000 0.21410  0.39340  0.07130  Biso   1.000  H
  C58      1.0000 0.23970  0.32620  0.21150  Biso   1.000  C
  C59      1.0000 0.19660  0.30740  0.29730  Biso   1.000  C
  H64      1.0000 0.23090  0.26880  0.35270  Biso   1.000  H
  C60      1.0000 0.34670  0.28713  0.21080  Biso   1.000  C
  O43      1.0000 0.39737  0.31806  0.15209  Biso   1.000  O
  O44      1.0000 0.37613  0.22750  0.26881  Biso   1.000  O
  Co4      1.0000 0.56249  0.20447  0.65740  Biso   1.000  Co
  O45      1.0000 0.55651  0.10989  0.54687  Biso   1.000  O
  H65      1.0000 0.61150  0.12280  0.52020  Biso   1.000  H
  H66      1.0000 0.56910  0.06260  0.57430  Biso   1.000  H
  O46      1.0000 0.57802  0.30368  0.75733  Biso   1.000  O
  H67      1.0000 0.63810  0.29930  0.82680  Biso   1.000  H
  H68      1.0000 0.51130  0.30150  0.76910  Biso   1.000  H
  O47      1.0000 0.63327  0.14279  0.81270  Biso   1.000  O
  H69      1.0000 0.69890  0.11570  0.83430  Biso   1.000  H
  H70      1.0000 0.58350  0.12010  0.83870  Biso   1.000  H
  O48      1.0000 0.48430  0.26590  0.50340  Biso   1.000  O
  H71      1.0000 0.50000  0.31440  0.49720  Biso   1.000  H
  H72      1.0000 0.45650  0.24450  0.43200  Biso   1.000  H
  Co5      1.0000 0.00000  0.00000  0.50000  Biso   1.000  Co
  Co6      1.0000 0.00000  0.50000  0.00000  Biso   1.000  Co
