data_image0
_cell_length_a       18.742
_cell_length_b       22.8595
_cell_length_c       29.669
_cell_angle_alpha    104.858
_cell_angle_beta     90
_cell_angle_gamma    90

_symmetry_space_group_name_H-M    P 1
_symmetry_int_tables_number       1

loop_
  _symmetry_equiv_pos_as_xyz
  'x, y, z'

loop_
  _atom_site_label
  _atom_site_occupancy
  _atom_site_fract_x
  _atom_site_fract_y
  _atom_site_fract_z
  _atom_site_thermal_displace_type
  _atom_site_B_iso_or_equiv
  _atom_site_type_symbol
  Cu1      1.0000 0.80246  0.22112  0.52979  Biso   1.000  Cu
  Cu2      1.0000 0.73333  0.31813  0.51514  Biso   1.000  Cu
  Cu3      1.0000 0.30749  0.30210  0.50116  Biso   1.000  Cu
  Cu4      1.0000 0.24017  0.20595  0.51496  Biso   1.000  Cu
  Cu5      1.0000 0.50263  0.49259  0.19473  Biso   1.000  Cu
  Cu6      1.0000 0.50034  0.46390  0.27595  Biso   1.000  Cu
  Cu7      1.0000 0.30246  0.27888  0.97021  Biso   1.000  Cu
  Cu8      1.0000 0.23333  0.18187  0.98486  Biso   1.000  Cu
  Cu9      1.0000 0.80749  0.19790  0.99884  Biso   1.000  Cu
  Cu10     1.0000 0.74017  0.29405  0.98504  Biso   1.000  Cu
  Cu11     1.0000 0.00263  0.00741  0.30527  Biso   1.000  Cu
  Cu12     1.0000 0.00034  0.03610  0.22405  Biso   1.000  Cu
  Cu13     1.0000 0.19754  0.77888  0.47021  Biso   1.000  Cu
  Cu14     1.0000 0.26667  0.68187  0.48486  Biso   1.000  Cu
  Cu15     1.0000 0.69251  0.69790  0.49884  Biso   1.000  Cu
  Cu16     1.0000 0.75983  0.79405  0.48504  Biso   1.000  Cu
  Cu17     1.0000 0.49737  0.50741  0.80527  Biso   1.000  Cu
  Cu18     1.0000 0.49966  0.53610  0.72405  Biso   1.000  Cu
  Cu19     1.0000 0.69754  0.72112  0.02979  Biso   1.000  Cu
  Cu20     1.0000 0.76667  0.81813  0.01514  Biso   1.000  Cu
  Cu21     1.0000 0.19251  0.80210  0.00116  Biso   1.000  Cu
  Cu22     1.0000 0.25983  0.70595  0.01496  Biso   1.000  Cu
  Cu23     1.0000 0.99737  0.99259  0.69473  Biso   1.000  Cu
  Cu24     1.0000 0.99966  0.96390  0.77595  Biso   1.000  Cu
  H1       1.0000 0.13250  0.89050  0.14280  Biso   1.000  H
  H2       1.0000 0.13680  0.85560  0.27060  Biso   1.000  H
  H3       1.0000 0.23560  0.74340  0.16110  Biso   1.000  H
  H4       1.0000 0.29260  0.72210  0.21890  Biso   1.000  H
  H5       1.0000 0.22200  0.68170  0.20970  Biso   1.000  H
  H6       1.0000 0.21970  0.72780  0.32220  Biso   1.000  H
  H7       1.0000 0.34370  0.59440  0.34820  Biso   1.000  H
  H8       1.0000 0.33430  0.61910  0.21750  Biso   1.000  H
  H9       1.0000 0.66370  0.36950  0.12440  Biso   1.000  H
  H10      1.0000 0.79840  0.24290  0.14770  Biso   1.000  H
  H11      1.0000 0.67920  0.34230  0.25370  Biso   1.000  H
  H12      1.0000 0.70690  0.26500  0.28220  Biso   1.000  H
  H13      1.0000 0.77070  0.31260  0.29370  Biso   1.000  H
  H14      1.0000 0.84600  0.17800  0.25830  Biso   1.000  H
  H15      1.0000 0.86910  0.14790  0.38640  Biso   1.000  H
  H16      1.0000 0.74290  0.28360  0.36860  Biso   1.000  H
  H17      1.0000 0.02240  0.27540  0.53150  Biso   1.000  H
  H18      1.0000 0.13290  0.41740  0.50830  Biso   1.000  H
  H19      1.0000 0.91820  0.42420  0.51600  Biso   1.000  H
  H20      1.0000 0.05740  0.50940  0.52870  Biso   1.000  H
  H21      1.0000 0.05870  0.48040  0.47370  Biso   1.000  H
  H22      1.0000 0.63220  0.09280  0.51110  Biso   1.000  H
  H23      1.0000 0.52210  0.24190  0.50630  Biso   1.000  H
  H24      1.0000 0.41780  0.08500  0.49900  Biso   1.000  H
  H25      1.0000 0.56050  0.99810  0.47510  Biso   1.000  H
  H26      1.0000 0.55330  0.01490  0.53040  Biso   1.000  H
  H27      1.0000 0.63250  0.60950  0.35720  Biso   1.000  H
  H28      1.0000 0.63680  0.64440  0.22940  Biso   1.000  H
  H29      1.0000 0.73560  0.75660  0.33890  Biso   1.000  H
  H30      1.0000 0.79260  0.77790  0.28110  Biso   1.000  H
  H31      1.0000 0.72200  0.81830  0.29030  Biso   1.000  H
  H32      1.0000 0.71970  0.77220  0.17780  Biso   1.000  H
  H33      1.0000 0.84370  0.90560  0.15180  Biso   1.000  H
  H34      1.0000 0.83430  0.88090  0.28250  Biso   1.000  H
  H35      1.0000 0.16370  0.13050  0.37560  Biso   1.000  H
  H36      1.0000 0.29840  0.25710  0.35230  Biso   1.000  H
  H37      1.0000 0.17920  0.15770  0.24630  Biso   1.000  H
  H38      1.0000 0.20690  0.23500  0.21780  Biso   1.000  H
  H39      1.0000 0.27070  0.18740  0.20630  Biso   1.000  H
  H40      1.0000 0.34600  0.32200  0.24170  Biso   1.000  H
  H41      1.0000 0.36910  0.35210  0.11360  Biso   1.000  H
  H42      1.0000 0.24290  0.21640  0.13140  Biso   1.000  H
  H43      1.0000 0.52240  0.22460  0.96850  Biso   1.000  H
  H44      1.0000 0.63290  0.08260  0.99170  Biso   1.000  H
  H45      1.0000 0.41820  0.07580  0.98400  Biso   1.000  H
  H46      1.0000 0.55740  0.99060  0.97130  Biso   1.000  H
  H47      1.0000 0.55870  0.01960  0.02630  Biso   1.000  H
  H48      1.0000 0.13220  0.40720  0.98890  Biso   1.000  H
  H49      1.0000 0.02210  0.25810  0.99370  Biso   1.000  H
  H50      1.0000 0.91780  0.41500  0.00100  Biso   1.000  H
  H51      1.0000 0.06050  0.50190  0.02490  Biso   1.000  H
  H52      1.0000 0.05330  0.48510  0.96960  Biso   1.000  H
  H53      1.0000 0.86750  0.10950  0.85720  Biso   1.000  H
  H54      1.0000 0.86320  0.14440  0.72940  Biso   1.000  H
  H55      1.0000 0.76440  0.25660  0.83890  Biso   1.000  H
  H56      1.0000 0.70740  0.27790  0.78110  Biso   1.000  H
  H57      1.0000 0.77800  0.31830  0.79030  Biso   1.000  H
  H58      1.0000 0.78030  0.27220  0.67780  Biso   1.000  H
  H59      1.0000 0.65630  0.40560  0.65180  Biso   1.000  H
  H60      1.0000 0.66570  0.38090  0.78250  Biso   1.000  H
  H61      1.0000 0.33630  0.63050  0.87560  Biso   1.000  H
  H62      1.0000 0.20160  0.75710  0.85230  Biso   1.000  H
  H63      1.0000 0.32080  0.65770  0.74630  Biso   1.000  H
  H64      1.0000 0.29310  0.73500  0.71780  Biso   1.000  H
  H65      1.0000 0.22930  0.68740  0.70630  Biso   1.000  H
  H66      1.0000 0.15400  0.82200  0.74170  Biso   1.000  H
  H67      1.0000 0.13090  0.85210  0.61360  Biso   1.000  H
  H68      1.0000 0.25710  0.71640  0.63140  Biso   1.000  H
  H69      1.0000 0.97760  0.72460  0.46850  Biso   1.000  H
  H70      1.0000 0.86710  0.58260  0.49170  Biso   1.000  H
  H71      1.0000 0.08180  0.57580  0.48400  Biso   1.000  H
  H72      1.0000 0.94260  0.49060  0.47130  Biso   1.000  H
  H73      1.0000 0.94130  0.51960  0.52630  Biso   1.000  H
  H74      1.0000 0.36780  0.90720  0.48890  Biso   1.000  H
  H75      1.0000 0.47790  0.75810  0.49370  Biso   1.000  H
  H76      1.0000 0.58220  0.91500  0.50100  Biso   1.000  H
  H77      1.0000 0.43950  0.00190  0.52490  Biso   1.000  H
  H78      1.0000 0.44670  0.98510  0.46960  Biso   1.000  H
  H79      1.0000 0.36750  0.39050  0.64280  Biso   1.000  H
  H80      1.0000 0.36320  0.35560  0.77060  Biso   1.000  H
  H81      1.0000 0.26440  0.24340  0.66110  Biso   1.000  H
  H82      1.0000 0.20740  0.22210  0.71890  Biso   1.000  H
  H83      1.0000 0.27800  0.18170  0.70970  Biso   1.000  H
  H84      1.0000 0.28030  0.22780  0.82220  Biso   1.000  H
  H85      1.0000 0.15630  0.09440  0.84820  Biso   1.000  H
  H86      1.0000 0.16570  0.11910  0.71750  Biso   1.000  H
  H87      1.0000 0.83630  0.86950  0.62440  Biso   1.000  H
  H88      1.0000 0.70160  0.74290  0.64770  Biso   1.000  H
  H89      1.0000 0.82080  0.84230  0.75370  Biso   1.000  H
  H90      1.0000 0.79310  0.76500  0.78220  Biso   1.000  H
  H91      1.0000 0.72930  0.81260  0.79370  Biso   1.000  H
  H92      1.0000 0.65400  0.67800  0.75830  Biso   1.000  H
  H93      1.0000 0.63090  0.64790  0.88640  Biso   1.000  H
  H94      1.0000 0.75710  0.78360  0.86860  Biso   1.000  H
  H95      1.0000 0.47760  0.77540  0.03150  Biso   1.000  H
  H96      1.0000 0.36710  0.91740  0.00830  Biso   1.000  H
  H97      1.0000 0.58180  0.92420  0.01600  Biso   1.000  H
  H98      1.0000 0.44260  0.00940  0.02870  Biso   1.000  H
  H99      1.0000 0.44130  0.98040  0.97370  Biso   1.000  H
  H100     1.0000 0.86780  0.59280  0.01110  Biso   1.000  H
  H101     1.0000 0.97790  0.74190  0.00630  Biso   1.000  H
  H102     1.0000 0.08220  0.58500  0.99900  Biso   1.000  H
  H103     1.0000 0.93950  0.49810  0.97510  Biso   1.000  H
  H104     1.0000 0.94670  0.51490  0.03040  Biso   1.000  H
  C1       1.0000 0.20120  0.79349  0.09398  Biso   1.000  C
  C2       1.0000 0.18470  0.81364  0.14438  Biso   1.000  C
  C3       1.0000 0.14682  0.86574  0.16245  Biso   1.000  C
  C4       1.0000 0.12934  0.88236  0.20969  Biso   1.000  C
  C5       1.0000 0.08370  0.93613  0.23018  Biso   1.000  C
  C6       1.0000 0.15000  0.84570  0.23858  Biso   1.000  C
  C7       1.0000 0.19030  0.79455  0.21920  Biso   1.000  C
  C8       1.0000 0.20770  0.77854  0.17333  Biso   1.000  C
  C9       1.0000 0.25000  0.71014  0.23415  Biso   1.000  C
  C10      1.0000 0.27270  0.67961  0.26656  Biso   1.000  C
  C11      1.0000 0.25230  0.69539  0.31151  Biso   1.000  C
  C12      1.0000 0.27930  0.66378  0.34236  Biso   1.000  C
  C13      1.0000 0.26003  0.68646  0.39306  Biso   1.000  C
  C14      1.0000 0.32620  0.61576  0.32689  Biso   1.000  C
  C15      1.0000 0.34775  0.59876  0.28045  Biso   1.000  C
  C16      1.0000 0.32080  0.63030  0.24943  Biso   1.000  C
  C17      1.0000 0.40235  0.55227  0.26381  Biso   1.000  C
  C18      1.0000 0.60333  0.40618  0.20785  Biso   1.000  C
  C19      1.0000 0.66117  0.36113  0.19088  Biso   1.000  C
  C20      1.0000 0.68251  0.34734  0.14478  Biso   1.000  C
  C21      1.0000 0.73096  0.30152  0.12826  Biso   1.000  C
  C22      1.0000 0.74974  0.28365  0.07772  Biso   1.000  C
  C23      1.0000 0.76320  0.27303  0.15873  Biso   1.000  C
  C24      1.0000 0.74400  0.28854  0.20562  Biso   1.000  C
  C25      1.0000 0.69283  0.33214  0.22182  Biso   1.000  C
  C26      1.0000 0.75930  0.26938  0.28016  Biso   1.000  C
  C27      1.0000 0.79110  0.23578  0.30854  Biso   1.000  C
  C28      1.0000 0.83510  0.18879  0.29067  Biso   1.000  C
  C29      1.0000 0.86436  0.15627  0.31981  Biso   1.000  C
  C30      1.0000 0.91600  0.10507  0.29936  Biso   1.000  C
  C31      1.0000 0.84875  0.17045  0.36683  Biso   1.000  C
  C32      1.0000 0.80331  0.21762  0.38463  Biso   1.000  C
  C33      1.0000 0.77420  0.25081  0.35597  Biso   1.000  C
  C34      1.0000 0.78722  0.23689  0.43577  Biso   1.000  C
  C35      1.0000 0.88905  0.31775  0.52773  Biso   1.000  C
  C36      1.0000 0.95915  0.34644  0.52439  Biso   1.000  C
  C37      1.0000 0.02320  0.31434  0.52566  Biso   1.000  C
  C38      1.0000 0.08782  0.34088  0.51821  Biso   1.000  C
  C39      1.0000 0.15591  0.30758  0.51633  Biso   1.000  C
  C40      1.0000 0.08910  0.39796  0.51162  Biso   1.000  C
  C41      1.0000 0.02320  0.42696  0.51000  Biso   1.000  C
  C42      1.0000 0.96130  0.40247  0.51664  Biso   1.000  C
  C43      1.0000 0.02980  0.48430  0.50225  Biso   1.000  C
  C44      1.0000 0.65703  0.20864  0.51457  Biso   1.000  C
  C45      1.0000 0.58800  0.11183  0.50818  Biso   1.000  C
  C46      1.0000 0.58719  0.17242  0.50889  Biso   1.000  C
  C47      1.0000 0.52338  0.20023  0.50592  Biso   1.000  C
  C48      1.0000 0.46068  0.16749  0.50240  Biso   1.000  C
  C49      1.0000 0.39004  0.19916  0.50212  Biso   1.000  C
  C50      1.0000 0.46110  0.10723  0.50125  Biso   1.000  C
  C51      1.0000 0.52737  0.07917  0.50344  Biso   1.000  C
  C52      1.0000 0.52900  0.01783  0.50138  Biso   1.000  C
  C53      1.0000 0.70120  0.70651  0.40602  Biso   1.000  C
  C54      1.0000 0.68470  0.68636  0.35562  Biso   1.000  C
  C55      1.0000 0.64682  0.63426  0.33755  Biso   1.000  C
  C56      1.0000 0.62934  0.61764  0.29031  Biso   1.000  C
  C57      1.0000 0.58370  0.56387  0.26982  Biso   1.000  C
  C58      1.0000 0.65000  0.65430  0.26142  Biso   1.000  C
  C59      1.0000 0.69030  0.70545  0.28080  Biso   1.000  C
  C60      1.0000 0.70770  0.72146  0.32667  Biso   1.000  C
  C61      1.0000 0.75000  0.78986  0.26585  Biso   1.000  C
  C62      1.0000 0.77270  0.82039  0.23344  Biso   1.000  C
  C63      1.0000 0.75230  0.80461  0.18849  Biso   1.000  C
  C64      1.0000 0.77930  0.83622  0.15764  Biso   1.000  C
  C65      1.0000 0.76003  0.81354  0.10694  Biso   1.000  C
  C66      1.0000 0.82620  0.88424  0.17311  Biso   1.000  C
  C67      1.0000 0.84775  0.90124  0.21955  Biso   1.000  C
  C68      1.0000 0.82080  0.86970  0.25057  Biso   1.000  C
  C69      1.0000 0.90235  0.94773  0.23619  Biso   1.000  C
  C70      1.0000 0.10333  0.09382  0.29215  Biso   1.000  C
  C71      1.0000 0.16117  0.13887  0.30912  Biso   1.000  C
  C72      1.0000 0.18251  0.15266  0.35522  Biso   1.000  C
  C73      1.0000 0.23096  0.19848  0.37174  Biso   1.000  C
  C74      1.0000 0.24974  0.21635  0.42228  Biso   1.000  C
  C75      1.0000 0.26320  0.22697  0.34127  Biso   1.000  C
  C76      1.0000 0.24400  0.21146  0.29438  Biso   1.000  C
  C77      1.0000 0.19283  0.16786  0.27818  Biso   1.000  C
  C78      1.0000 0.25930  0.23062  0.21984  Biso   1.000  C
  C79      1.0000 0.29110  0.26422  0.19146  Biso   1.000  C
  C80      1.0000 0.33510  0.31121  0.20933  Biso   1.000  C
  C81      1.0000 0.36436  0.34373  0.18019  Biso   1.000  C
  C82      1.0000 0.41600  0.39493  0.20064  Biso   1.000  C
  C83      1.0000 0.34875  0.32955  0.13317  Biso   1.000  C
  C84      1.0000 0.30331  0.28238  0.11537  Biso   1.000  C
  C85      1.0000 0.27420  0.24919  0.14403  Biso   1.000  C
  C86      1.0000 0.28722  0.26311  0.06423  Biso   1.000  C
  C87      1.0000 0.38905  0.18225  0.97227  Biso   1.000  C
  C88      1.0000 0.45915  0.15356  0.97561  Biso   1.000  C
  C89      1.0000 0.52320  0.18566  0.97434  Biso   1.000  C
  C90      1.0000 0.58782  0.15912  0.98179  Biso   1.000  C
  C91      1.0000 0.65591  0.19242  0.98367  Biso   1.000  C
  C92      1.0000 0.58910  0.10204  0.98838  Biso   1.000  C
  C93      1.0000 0.52320  0.07304  0.99000  Biso   1.000  C
  C94      1.0000 0.46130  0.09753  0.98336  Biso   1.000  C
  C95      1.0000 0.52980  0.01570  0.99775  Biso   1.000  C
  C96      1.0000 0.15703  0.29136  0.98543  Biso   1.000  C
  C97      1.0000 0.08800  0.38817  0.99182  Biso   1.000  C
  C98      1.0000 0.08719  0.32758  0.99111  Biso   1.000  C
  C99      1.0000 0.02338  0.29977  0.99408  Biso   1.000  C
  C100     1.0000 0.96068  0.33251  0.99760  Biso   1.000  C
  C101     1.0000 0.89004  0.30084  0.99788  Biso   1.000  C
  C102     1.0000 0.96110  0.39277  0.99875  Biso   1.000  C
  C103     1.0000 0.02737  0.42083  0.99656  Biso   1.000  C
  C104     1.0000 0.02900  0.48217  0.99862  Biso   1.000  C
  C105     1.0000 0.79880  0.20651  0.90602  Biso   1.000  C
  C106     1.0000 0.81530  0.18636  0.85562  Biso   1.000  C
  C107     1.0000 0.85318  0.13426  0.83755  Biso   1.000  C
  C108     1.0000 0.87066  0.11764  0.79031  Biso   1.000  C
  C109     1.0000 0.91630  0.06387  0.76982  Biso   1.000  C
  C110     1.0000 0.85000  0.15430  0.76142  Biso   1.000  C
  C111     1.0000 0.80970  0.20545  0.78080  Biso   1.000  C
  C112     1.0000 0.79230  0.22146  0.82667  Biso   1.000  C
  C113     1.0000 0.75000  0.28986  0.76585  Biso   1.000  C
  C114     1.0000 0.72730  0.32039  0.73344  Biso   1.000  C
  C115     1.0000 0.74770  0.30461  0.68849  Biso   1.000  C
  C116     1.0000 0.72070  0.33622  0.65764  Biso   1.000  C
  C117     1.0000 0.73997  0.31354  0.60694  Biso   1.000  C
  C118     1.0000 0.67380  0.38424  0.67311  Biso   1.000  C
  C119     1.0000 0.65225  0.40124  0.71955  Biso   1.000  C
  C120     1.0000 0.67920  0.36970  0.75057  Biso   1.000  C
  C121     1.0000 0.59765  0.44773  0.73619  Biso   1.000  C
  C122     1.0000 0.39667  0.59382  0.79215  Biso   1.000  C
  C123     1.0000 0.33883  0.63887  0.80912  Biso   1.000  C
  C124     1.0000 0.31749  0.65266  0.85522  Biso   1.000  C
  C125     1.0000 0.26904  0.69848  0.87174  Biso   1.000  C
  C126     1.0000 0.25026  0.71635  0.92228  Biso   1.000  C
  C127     1.0000 0.23680  0.72697  0.84127  Biso   1.000  C
  C128     1.0000 0.25600  0.71146  0.79438  Biso   1.000  C
  C129     1.0000 0.30717  0.66786  0.77818  Biso   1.000  C
  C130     1.0000 0.24070  0.73062  0.71984  Biso   1.000  C
  C131     1.0000 0.20890  0.76422  0.69146  Biso   1.000  C
  C132     1.0000 0.16490  0.81121  0.70933  Biso   1.000  C
  C133     1.0000 0.13564  0.84373  0.68019  Biso   1.000  C
  C134     1.0000 0.08400  0.89493  0.70064  Biso   1.000  C
  C135     1.0000 0.15125  0.82955  0.63317  Biso   1.000  C
  C136     1.0000 0.19669  0.78238  0.61537  Biso   1.000  C
  C137     1.0000 0.22580  0.74919  0.64403  Biso   1.000  C
  C138     1.0000 0.21278  0.76311  0.56423  Biso   1.000  C
  C139     1.0000 0.11095  0.68225  0.47227  Biso   1.000  C
  C140     1.0000 0.04085  0.65356  0.47561  Biso   1.000  C
  C141     1.0000 0.97680  0.68566  0.47434  Biso   1.000  C
  C142     1.0000 0.91218  0.65912  0.48179  Biso   1.000  C
  C143     1.0000 0.84409  0.69242  0.48367  Biso   1.000  C
  C144     1.0000 0.91090  0.60204  0.48838  Biso   1.000  C
  C145     1.0000 0.97680  0.57304  0.49000  Biso   1.000  C
  C146     1.0000 0.03870  0.59753  0.48336  Biso   1.000  C
  C147     1.0000 0.97020  0.51570  0.49775  Biso   1.000  C
  C148     1.0000 0.34297  0.79136  0.48543  Biso   1.000  C
  C149     1.0000 0.41200  0.88817  0.49182  Biso   1.000  C
  C150     1.0000 0.41281  0.82758  0.49111  Biso   1.000  C
  C151     1.0000 0.47662  0.79977  0.49408  Biso   1.000  C
  C152     1.0000 0.53932  0.83251  0.49760  Biso   1.000  C
  C153     1.0000 0.60996  0.80084  0.49788  Biso   1.000  C
  C154     1.0000 0.53890  0.89277  0.49875  Biso   1.000  C
  C155     1.0000 0.47263  0.92083  0.49656  Biso   1.000  C
  C156     1.0000 0.47100  0.98217  0.49862  Biso   1.000  C
  C157     1.0000 0.29880  0.29349  0.59398  Biso   1.000  C
  C158     1.0000 0.31530  0.31364  0.64438  Biso   1.000  C
  C159     1.0000 0.35318  0.36574  0.66245  Biso   1.000  C
  C160     1.0000 0.37066  0.38236  0.70969  Biso   1.000  C
  C161     1.0000 0.41630  0.43613  0.73018  Biso   1.000  C
  C162     1.0000 0.35000  0.34570  0.73858  Biso   1.000  C
  C163     1.0000 0.30970  0.29455  0.71920  Biso   1.000  C
  C164     1.0000 0.29230  0.27854  0.67333  Biso   1.000  C
  C165     1.0000 0.25000  0.21014  0.73415  Biso   1.000  C
  C166     1.0000 0.22730  0.17961  0.76656  Biso   1.000  C
  C167     1.0000 0.24770  0.19539  0.81151  Biso   1.000  C
  C168     1.0000 0.22070  0.16378  0.84236  Biso   1.000  C
  C169     1.0000 0.23997  0.18646  0.89306  Biso   1.000  C
  C170     1.0000 0.17380  0.11576  0.82689  Biso   1.000  C
  C171     1.0000 0.15225  0.09876  0.78045  Biso   1.000  C
  C172     1.0000 0.17920  0.13030  0.74943  Biso   1.000  C
  C173     1.0000 0.09765  0.05227  0.76381  Biso   1.000  C
  C174     1.0000 0.89667  0.90618  0.70785  Biso   1.000  C
  C175     1.0000 0.83883  0.86113  0.69088  Biso   1.000  C
  C176     1.0000 0.81749  0.84734  0.64478  Biso   1.000  C
  C177     1.0000 0.76904  0.80152  0.62826  Biso   1.000  C
  C178     1.0000 0.75026  0.78365  0.57772  Biso   1.000  C
  C179     1.0000 0.73680  0.77303  0.65873  Biso   1.000  C
  C180     1.0000 0.75600  0.78854  0.70562  Biso   1.000  C
  C181     1.0000 0.80717  0.83214  0.72182  Biso   1.000  C
  C182     1.0000 0.74070  0.76938  0.78016  Biso   1.000  C
  C183     1.0000 0.70890  0.73578  0.80854  Biso   1.000  C
  C184     1.0000 0.66490  0.68879  0.79067  Biso   1.000  C
  C185     1.0000 0.63564  0.65627  0.81981  Biso   1.000  C
  C186     1.0000 0.58400  0.60507  0.79936  Biso   1.000  C
  C187     1.0000 0.65125  0.67045  0.86683  Biso   1.000  C
  C188     1.0000 0.69669  0.71762  0.88463  Biso   1.000  C
  C189     1.0000 0.72580  0.75081  0.85597  Biso   1.000  C
  C190     1.0000 0.71278  0.73689  0.93577  Biso   1.000  C
  C191     1.0000 0.61095  0.81775  0.02773  Biso   1.000  C
  C192     1.0000 0.54085  0.84644  0.02439  Biso   1.000  C
  C193     1.0000 0.47680  0.81434  0.02566  Biso   1.000  C
  C194     1.0000 0.41218  0.84088  0.01821  Biso   1.000  C
  C195     1.0000 0.34409  0.80758  0.01633  Biso   1.000  C
  C196     1.0000 0.41090  0.89796  0.01162  Biso   1.000  C
  C197     1.0000 0.47680  0.92696  0.01000  Biso   1.000  C
  C198     1.0000 0.53870  0.90247  0.01664  Biso   1.000  C
  C199     1.0000 0.47020  0.98430  0.00225  Biso   1.000  C
  C200     1.0000 0.84297  0.70864  0.01457  Biso   1.000  C
  C201     1.0000 0.91200  0.61183  0.00818  Biso   1.000  C
  C202     1.0000 0.91281  0.67242  0.00889  Biso   1.000  C
  C203     1.0000 0.97662  0.70023  0.00592  Biso   1.000  C
  C204     1.0000 0.03932  0.66749  0.00240  Biso   1.000  C
  C205     1.0000 0.10996  0.69916  0.00212  Biso   1.000  C
  C206     1.0000 0.03890  0.60723  0.00125  Biso   1.000  C
  C207     1.0000 0.97263  0.57917  0.00344  Biso   1.000  C
  C208     1.0000 0.97100  0.51783  0.00138  Biso   1.000  C
  O1       1.0000 0.23246  0.74295  0.07979  Biso   1.000  O
  O2       1.0000 0.18305  0.82863  0.06852  Biso   1.000  O
  O3       1.0000 0.06657  0.96846  0.20300  Biso   1.000  O
  O4       1.0000 0.06673  0.94453  0.27195  Biso   1.000  O
  O5       1.0000 0.20970  0.76036  0.25152  Biso   1.000  O
  O6       1.0000 0.28051  0.65252  0.41906  Biso   1.000  O
  O7       1.0000 0.22681  0.73463  0.40558  Biso   1.000  O
  O8       1.0000 0.42249  0.52231  0.29220  Biso   1.000  O
  O9       1.0000 0.42375  0.54436  0.22288  Biso   1.000  O
  O10      1.0000 0.58065  0.41164  0.24826  Biso   1.000  O
  O11      1.0000 0.58210  0.43589  0.17984  Biso   1.000  O
  O12      1.0000 0.72359  0.31407  0.05266  Biso   1.000  O
  O13      1.0000 0.79036  0.23780  0.06475  Biso   1.000  O
  O14      1.0000 0.77740  0.25551  0.23428  Biso   1.000  O
  O15      1.0000 0.93240  0.09717  0.25752  Biso   1.000  O
  O16      1.0000 0.93679  0.07440  0.32646  Biso   1.000  O
  O17      1.0000 0.74963  0.28264  0.45004  Biso   1.000  O
  O18      1.0000 0.81401  0.20428  0.46043  Biso   1.000  O
  O19      1.0000 0.83559  0.34671  0.52142  Biso   1.000  O
  O20      1.0000 0.88967  0.26581  0.53647  Biso   1.000  O
  O21      1.0000 0.15377  0.25547  0.52350  Biso   1.000  O
  O22      1.0000 0.21028  0.33317  0.50536  Biso   1.000  O
  O23      1.0000 0.71156  0.18086  0.51997  Biso   1.000  O
  O24      1.0000 0.65072  0.26281  0.51266  Biso   1.000  O
  O25      1.0000 0.39284  0.25346  0.49978  Biso   1.000  O
  O26      1.0000 0.33503  0.16899  0.50414  Biso   1.000  O
  O27      1.0000 0.35770  0.38373  0.48579  Biso   1.000  O
  O28      1.0000 0.19211  0.12470  0.52958  Biso   1.000  O
  O29      1.0000 0.85246  0.14255  0.54451  Biso   1.000  O
  O30      1.0000 0.68133  0.39621  0.50054  Biso   1.000  O
  O31      1.0000 0.50014  0.43230  0.33955  Biso   1.000  O
  O32      1.0000 0.50377  0.52430  0.13047  Biso   1.000  O
  O33      1.0000 0.73246  0.75705  0.42021  Biso   1.000  O
  O34      1.0000 0.68305  0.67137  0.43148  Biso   1.000  O
  O35      1.0000 0.56657  0.53154  0.29700  Biso   1.000  O
  O36      1.0000 0.56673  0.55547  0.22805  Biso   1.000  O
  O37      1.0000 0.70970  0.73964  0.24848  Biso   1.000  O
  O38      1.0000 0.78051  0.84748  0.08094  Biso   1.000  O
  O39      1.0000 0.72681  0.76537  0.09442  Biso   1.000  O
  O40      1.0000 0.92249  0.97769  0.20780  Biso   1.000  O
  O41      1.0000 0.92375  0.95564  0.27712  Biso   1.000  O
  O42      1.0000 0.08065  0.08836  0.25174  Biso   1.000  O
  O43      1.0000 0.08210  0.06411  0.32016  Biso   1.000  O
  O44      1.0000 0.22359  0.18593  0.44734  Biso   1.000  O
  O45      1.0000 0.29036  0.26220  0.43525  Biso   1.000  O
  O46      1.0000 0.27740  0.24449  0.26572  Biso   1.000  O
  O47      1.0000 0.43240  0.40283  0.24248  Biso   1.000  O
  O48      1.0000 0.43679  0.42560  0.17354  Biso   1.000  O
  O49      1.0000 0.24963  0.21736  0.04996  Biso   1.000  O
  O50      1.0000 0.31401  0.29572  0.03957  Biso   1.000  O
  O51      1.0000 0.33559  0.15329  0.97858  Biso   1.000  O
  O52      1.0000 0.38967  0.23419  0.96353  Biso   1.000  O
  O53      1.0000 0.65377  0.24453  0.97650  Biso   1.000  O
  O54      1.0000 0.71028  0.16683  0.99464  Biso   1.000  O
  O55      1.0000 0.21156  0.31914  0.98003  Biso   1.000  O
  O56      1.0000 0.15072  0.23719  0.98734  Biso   1.000  O
  O57      1.0000 0.89284  0.24654  0.00022  Biso   1.000  O
  O58      1.0000 0.83503  0.33101  0.99586  Biso   1.000  O
  O59      1.0000 0.85770  0.11627  0.01421  Biso   1.000  O
  O60      1.0000 0.69211  0.37530  0.97042  Biso   1.000  O
  O61      1.0000 0.35246  0.35745  0.95549  Biso   1.000  O
  O62      1.0000 0.18133  0.10379  0.99946  Biso   1.000  O
  O63      1.0000 0.00014  0.06770  0.16045  Biso   1.000  O
  O64      1.0000 0.00377  0.97570  0.36953  Biso   1.000  O
  O65      1.0000 0.76754  0.25705  0.92021  Biso   1.000  O
  O66      1.0000 0.81695  0.17137  0.93148  Biso   1.000  O
  O67      1.0000 0.93343  0.03154  0.79700  Biso   1.000  O
  O68      1.0000 0.93327  0.05547  0.72805  Biso   1.000  O
  O69      1.0000 0.79030  0.23964  0.74848  Biso   1.000  O
  O70      1.0000 0.71949  0.34748  0.58094  Biso   1.000  O
  O71      1.0000 0.77319  0.26537  0.59442  Biso   1.000  O
  O72      1.0000 0.57751  0.47769  0.70780  Biso   1.000  O
  O73      1.0000 0.57625  0.45564  0.77712  Biso   1.000  O
  O74      1.0000 0.41935  0.58836  0.75174  Biso   1.000  O
  O75      1.0000 0.41790  0.56411  0.82016  Biso   1.000  O
  O76      1.0000 0.27641  0.68593  0.94734  Biso   1.000  O
  O77      1.0000 0.20964  0.76220  0.93525  Biso   1.000  O
  O78      1.0000 0.22260  0.74449  0.76572  Biso   1.000  O
  O79      1.0000 0.06760  0.90283  0.74248  Biso   1.000  O
  O80      1.0000 0.06321  0.92560  0.67354  Biso   1.000  O
  O81      1.0000 0.25037  0.71736  0.54996  Biso   1.000  O
  O82      1.0000 0.18599  0.79572  0.53957  Biso   1.000  O
  O83      1.0000 0.16441  0.65329  0.47858  Biso   1.000  O
  O84      1.0000 0.11033  0.73419  0.46353  Biso   1.000  O
  O85      1.0000 0.84623  0.74453  0.47650  Biso   1.000  O
  O86      1.0000 0.78972  0.66683  0.49464  Biso   1.000  O
  O87      1.0000 0.28844  0.81914  0.48003  Biso   1.000  O
  O88      1.0000 0.34928  0.73719  0.48734  Biso   1.000  O
  O89      1.0000 0.60716  0.74654  0.50022  Biso   1.000  O
  O90      1.0000 0.66497  0.83101  0.49586  Biso   1.000  O
  O91      1.0000 0.64230  0.61627  0.51421  Biso   1.000  O
  O92      1.0000 0.80789  0.87530  0.47042  Biso   1.000  O
  O93      1.0000 0.14754  0.85745  0.45549  Biso   1.000  O
  O94      1.0000 0.31867  0.60379  0.49946  Biso   1.000  O
  O95      1.0000 0.49986  0.56770  0.66045  Biso   1.000  O
  O96      1.0000 0.49623  0.47570  0.86953  Biso   1.000  O
  O97      1.0000 0.26754  0.24295  0.57979  Biso   1.000  O
  O98      1.0000 0.31695  0.32863  0.56852  Biso   1.000  O
  O99      1.0000 0.43343  0.46846  0.70300  Biso   1.000  O
  O100     1.0000 0.43327  0.44453  0.77195  Biso   1.000  O
  O101     1.0000 0.29030  0.26036  0.75152  Biso   1.000  O
  O102     1.0000 0.21949  0.15252  0.91906  Biso   1.000  O
  O103     1.0000 0.27319  0.23463  0.90558  Biso   1.000  O
  O104     1.0000 0.07751  0.02231  0.79220  Biso   1.000  O
  O105     1.0000 0.07625  0.04436  0.72288  Biso   1.000  O
  O106     1.0000 0.91935  0.91164  0.74826  Biso   1.000  O
  O107     1.0000 0.91790  0.93589  0.67984  Biso   1.000  O
  O108     1.0000 0.77641  0.81407  0.55266  Biso   1.000  O
  O109     1.0000 0.70964  0.73780  0.56475  Biso   1.000  O
  O110     1.0000 0.72260  0.75551  0.73428  Biso   1.000  O
  O111     1.0000 0.56760  0.59717  0.75752  Biso   1.000  O
  O112     1.0000 0.56321  0.57440  0.82646  Biso   1.000  O
  O113     1.0000 0.75037  0.78264  0.95004  Biso   1.000  O
  O114     1.0000 0.68599  0.70428  0.96043  Biso   1.000  O
  O115     1.0000 0.66441  0.84671  0.02142  Biso   1.000  O
  O116     1.0000 0.61033  0.76581  0.03647  Biso   1.000  O
  O117     1.0000 0.34623  0.75547  0.02350  Biso   1.000  O
  O118     1.0000 0.28972  0.83317  0.00536  Biso   1.000  O
  O119     1.0000 0.78844  0.68086  0.01997  Biso   1.000  O
  O120     1.0000 0.84928  0.76281  0.01266  Biso   1.000  O
  O121     1.0000 0.10716  0.75346  0.99978  Biso   1.000  O
  O122     1.0000 0.16497  0.66899  0.00414  Biso   1.000  O
  O123     1.0000 0.14230  0.88373  0.98579  Biso   1.000  O
  O124     1.0000 0.30789  0.62470  0.02958  Biso   1.000  O
  O125     1.0000 0.64754  0.64255  0.04451  Biso   1.000  O
  O126     1.0000 0.81867  0.89621  0.00054  Biso   1.000  O
  O127     1.0000 0.99986  0.93230  0.83955  Biso   1.000  O
  O128     1.0000 0.99623  0.02430  0.63047  Biso   1.000  O
