data_image0
_cell_length_a       15.8189
_cell_length_b       15.8189
_cell_length_c       15.8189
_cell_angle_alpha    100.845
_cell_angle_beta     113.949
_cell_angle_gamma    113.949

_symmetry_space_group_name_H-M    P 1
_symmetry_int_tables_number       1

loop_
  _symmetry_equiv_pos_as_xyz
  'x, y, z'

loop_
  _atom_site_label
  _atom_site_occupancy
  _atom_site_fract_x
  _atom_site_fract_y
  _atom_site_fract_z
  _atom_site_thermal_displace_type
  _atom_site_B_iso_or_equiv
  _atom_site_type_symbol
  Co1      1.0000 0.49315  0.59117  0.02280  Biso   1.000  Co
  Co2      1.0000 0.00685  0.02965  0.09802  Biso   1.000  Co
  Co3      1.0000 0.43163  0.02280  0.02965  Biso   1.000  Co
  Co4      1.0000 0.06837  0.09802  0.59117  Biso   1.000  Co
  Co5      1.0000 0.50685  0.40883  0.97720  Biso   1.000  Co
  Co6      1.0000 0.99315  0.97035  0.90198  Biso   1.000  Co
  Co7      1.0000 0.56837  0.97720  0.97035  Biso   1.000  Co
  Co8      1.0000 0.93163  0.90198  0.40883  Biso   1.000  Co
  H1       1.0000 0.58520  0.78580  0.99720  Biso   1.000  H
  H2       1.0000 0.52450  0.52130  0.73180  Biso   1.000  H
  H3       1.0000 0.64490  0.55400  0.80750  Biso   1.000  H
  H4       1.0000 0.64520  0.68350  0.75970  Biso   1.000  H
  H5       1.0000 0.69330  0.72210  0.87720  Biso   1.000  H
  H6       1.0000 0.57250  0.68940  0.80170  Biso   1.000  H
  H7       1.0000 0.30190  0.88880  0.10790  Biso   1.000  H
  H8       1.0000 0.29220  0.62290  0.14850  Biso   1.000  H
  H9       1.0000 0.36480  0.60570  0.12030  Biso   1.000  H
  H10      1.0000 0.91480  0.91200  0.20060  Biso   1.000  H
  H11      1.0000 0.97550  0.70730  0.99680  Biso   1.000  H
  H12      1.0000 0.85510  0.66260  0.90910  Biso   1.000  H
  H13      1.0000 0.85480  0.61450  0.03830  Biso   1.000  H
  H14      1.0000 0.80670  0.68390  0.02880  Biso   1.000  H
  H15      1.0000 0.92750  0.72920  0.11690  Biso   1.000  H
  H16      1.0000 0.19810  0.30600  0.58690  Biso   1.000  H
  H17      1.0000 0.20780  0.35630  0.33070  Biso   1.000  H
  H18      1.0000 0.13520  0.25550  0.24090  Biso   1.000  H
  H19      1.0000 0.21140  0.99720  0.91200  Biso   1.000  H
  H20      1.0000 0.21050  0.73180  0.70730  Biso   1.000  H
  H21      1.0000 0.25350  0.80750  0.66260  Biso   1.000  H
  H22      1.0000 0.07620  0.75970  0.61450  Biso   1.000  H
  H23      1.0000 0.15510  0.87720  0.68390  Biso   1.000  H
  H24      1.0000 0.11230  0.80170  0.72920  Biso   1.000  H
  H25      1.0000 0.21910  0.10790  0.30600  Biso   1.000  H
  H26      1.0000 0.52560  0.14850  0.35630  Biso   1.000  H
  H27      1.0000 0.51460  0.12030  0.25550  Biso   1.000  H
  H28      1.0000 0.28860  0.20060  0.78580  Biso   1.000  H
  H29      1.0000 0.28950  0.99680  0.52130  Biso   1.000  H
  H30      1.0000 0.24650  0.90910  0.55400  Biso   1.000  H
  H31      1.0000 0.42380  0.03830  0.68350  Biso   1.000  H
  H32      1.0000 0.34490  0.02880  0.72210  Biso   1.000  H
  H33      1.0000 0.38770  0.11690  0.68940  Biso   1.000  H
  H34      1.0000 0.28090  0.58690  0.88880  Biso   1.000  H
  H35      1.0000 0.97440  0.33070  0.62290  Biso   1.000  H
  H36      1.0000 0.98540  0.24090  0.60570  Biso   1.000  H
  H37      1.0000 0.41480  0.21420  0.00280  Biso   1.000  H
  H38      1.0000 0.47550  0.47870  0.26820  Biso   1.000  H
  H39      1.0000 0.35510  0.44600  0.19250  Biso   1.000  H
  H40      1.0000 0.35480  0.31650  0.24030  Biso   1.000  H
  H41      1.0000 0.30670  0.27790  0.12280  Biso   1.000  H
  H42      1.0000 0.42750  0.31060  0.19830  Biso   1.000  H
  H43      1.0000 0.69810  0.11120  0.89210  Biso   1.000  H
  H44      1.0000 0.70780  0.37710  0.85150  Biso   1.000  H
  H45      1.0000 0.63520  0.39430  0.87970  Biso   1.000  H
  H46      1.0000 0.08520  0.08800  0.79940  Biso   1.000  H
  H47      1.0000 0.02450  0.29270  0.00320  Biso   1.000  H
  H48      1.0000 0.14490  0.33740  0.09090  Biso   1.000  H
  H49      1.0000 0.14520  0.38550  0.96170  Biso   1.000  H
  H50      1.0000 0.19330  0.31610  0.97120  Biso   1.000  H
  H51      1.0000 0.07250  0.27080  0.88310  Biso   1.000  H
  H52      1.0000 0.80190  0.69400  0.41310  Biso   1.000  H
  H53      1.0000 0.79220  0.64370  0.66930  Biso   1.000  H
  H54      1.0000 0.86480  0.74450  0.75910  Biso   1.000  H
  H55      1.0000 0.78860  0.00280  0.08800  Biso   1.000  H
  H56      1.0000 0.78950  0.26820  0.29270  Biso   1.000  H
  H57      1.0000 0.74650  0.19250  0.33740  Biso   1.000  H
  H58      1.0000 0.92380  0.24030  0.38550  Biso   1.000  H
  H59      1.0000 0.84490  0.12280  0.31610  Biso   1.000  H
  H60      1.0000 0.88770  0.19830  0.27080  Biso   1.000  H
  H61      1.0000 0.78090  0.89210  0.69400  Biso   1.000  H
  H62      1.0000 0.47440  0.85150  0.64370  Biso   1.000  H
  H63      1.0000 0.48540  0.87970  0.74450  Biso   1.000  H
  H64      1.0000 0.71140  0.79940  0.21420  Biso   1.000  H
  H65      1.0000 0.71050  0.00320  0.47870  Biso   1.000  H
  H66      1.0000 0.75350  0.09090  0.44600  Biso   1.000  H
  H67      1.0000 0.57620  0.96170  0.31650  Biso   1.000  H
  H68      1.0000 0.65510  0.97120  0.27790  Biso   1.000  H
  H69      1.0000 0.61230  0.88310  0.31060  Biso   1.000  H
  H70      1.0000 0.71910  0.41310  0.11120  Biso   1.000  H
  H71      1.0000 0.02560  0.66930  0.37710  Biso   1.000  H
  H72      1.0000 0.01460  0.75910  0.39430  Biso   1.000  H
  C1       1.0000 0.53945  0.79004  0.01827  Biso   1.000  C
  C2       1.0000 0.43175  0.75727  0.07202  Biso   1.000  C
  C3       1.0000 0.36086  0.72226  0.10660  Biso   1.000  C
  C4       1.0000 0.55848  0.54337  0.87497  Biso   1.000  C
  C5       1.0000 0.58829  0.56751  0.80022  Biso   1.000  C
  C6       1.0000 0.62840  0.67540  0.81060  Biso   1.000  C
  C7       1.0000 0.44964  0.84354  0.05440  Biso   1.000  C
  C8       1.0000 0.33712  0.85621  0.09907  Biso   1.000  C
  C9       1.0000 0.96055  0.97882  0.25059  Biso   1.000  C
  C10      1.0000 0.06825  0.14027  0.32552  Biso   1.000  C
  C11      1.0000 0.13914  0.24574  0.36140  Biso   1.000  C
  C12      1.0000 0.94152  0.81649  0.98489  Biso   1.000  C
  C13      1.0000 0.91171  0.71193  0.97922  Biso   1.000  C
  C14      1.0000 0.87160  0.68220  0.04700  Biso   1.000  C
  C15      1.0000 0.05036  0.10476  0.39390  Biso   1.000  C
  C16      1.0000 0.16288  0.26195  0.51909  Biso   1.000  C
  C17      1.0000 0.22823  0.01827  0.97882  Biso   1.000  C
  C18      1.0000 0.31475  0.07202  0.14027  Biso   1.000  C
  C19      1.0000 0.38434  0.10660  0.24574  Biso   1.000  C
  C20      1.0000 0.33160  0.87497  0.81649  Biso   1.000  C
  C21      1.0000 0.23271  0.80022  0.71193  Biso   1.000  C
  C22      1.0000 0.13520  0.81060  0.68220  Biso   1.000  C
  C23      1.0000 0.21086  0.05440  0.10476  Biso   1.000  C
  C24      1.0000 0.24286  0.09907  0.26195  Biso   1.000  C
  C25      1.0000 0.27177  0.25059  0.79004  Biso   1.000  C
  C26      1.0000 0.18525  0.32552  0.75727  Biso   1.000  C
  C27      1.0000 0.11566  0.36140  0.72226  Biso   1.000  C
  C28      1.0000 0.16840  0.98489  0.54337  Biso   1.000  C
  C29      1.0000 0.26729  0.97922  0.56751  Biso   1.000  C
  C30      1.0000 0.36480  0.04700  0.67540  Biso   1.000  C
  C31      1.0000 0.28914  0.39390  0.84354  Biso   1.000  C
  C32      1.0000 0.25714  0.51909  0.85621  Biso   1.000  C
  C33      1.0000 0.46055  0.20996  0.98173  Biso   1.000  C
  C34      1.0000 0.56825  0.24273  0.92798  Biso   1.000  C
  C35      1.0000 0.63914  0.27774  0.89340  Biso   1.000  C
  C36      1.0000 0.44152  0.45663  0.12503  Biso   1.000  C
  C37      1.0000 0.41171  0.43249  0.19978  Biso   1.000  C
  C38      1.0000 0.37160  0.32460  0.18940  Biso   1.000  C
  C39      1.0000 0.55036  0.15646  0.94560  Biso   1.000  C
  C40      1.0000 0.66288  0.14379  0.90093  Biso   1.000  C
  C41      1.0000 0.03945  0.02118  0.74941  Biso   1.000  C
  C42      1.0000 0.93175  0.85973  0.67448  Biso   1.000  C
  C43      1.0000 0.86086  0.75426  0.63860  Biso   1.000  C
  C44      1.0000 0.05848  0.18351  0.01511  Biso   1.000  C
  C45      1.0000 0.08829  0.28807  0.02078  Biso   1.000  C
  C46      1.0000 0.12840  0.31780  0.95300  Biso   1.000  C
  C47      1.0000 0.94964  0.89524  0.60610  Biso   1.000  C
  C48      1.0000 0.83712  0.73805  0.48091  Biso   1.000  C
  C49      1.0000 0.77177  0.98173  0.02118  Biso   1.000  C
  C50      1.0000 0.68525  0.92798  0.85973  Biso   1.000  C
  C51      1.0000 0.61566  0.89340  0.75426  Biso   1.000  C
  C52      1.0000 0.66840  0.12503  0.18351  Biso   1.000  C
  C53      1.0000 0.76729  0.19978  0.28807  Biso   1.000  C
  C54      1.0000 0.86480  0.18940  0.31780  Biso   1.000  C
  C55      1.0000 0.78914  0.94560  0.89524  Biso   1.000  C
  C56      1.0000 0.75714  0.90093  0.73805  Biso   1.000  C
  C57      1.0000 0.72823  0.74941  0.20996  Biso   1.000  C
  C58      1.0000 0.81475  0.67448  0.24273  Biso   1.000  C
  C59      1.0000 0.88434  0.63860  0.27774  Biso   1.000  C
  C60      1.0000 0.83160  0.01511  0.45663  Biso   1.000  C
  C61      1.0000 0.73271  0.02078  0.43249  Biso   1.000  C
  C62      1.0000 0.63520  0.95300  0.32460  Biso   1.000  C
  C63      1.0000 0.71086  0.60610  0.15646  Biso   1.000  C
  C64      1.0000 0.74286  0.48091  0.14379  Biso   1.000  C
  N1       1.0000 0.49048  0.72230  0.04790  Biso   1.000  N
  N2       1.0000 0.33635  0.64055  0.12762  Biso   1.000  N
  N3       1.0000 0.31418  0.77498  0.11926  Biso   1.000  N
  N4       1.0000 0.51901  0.86503  0.02044  Biso   1.000  N
  N5       1.0000 0.40380  0.89723  0.06783  Biso   1.000  N
  N6       1.0000 0.00952  0.05742  0.23182  Biso   1.000  N
  N7       1.0000 0.16365  0.29127  0.30420  Biso   1.000  N
  N8       1.0000 0.18582  0.30508  0.46080  Biso   1.000  N
  N9       1.0000 0.98099  0.00143  0.34602  Biso   1.000  N
  N10      1.0000 0.09620  0.16403  0.49343  Biso   1.000  N
  N11      1.0000 0.32560  0.04790  0.05742  Biso   1.000  N
  N12      1.0000 0.48707  0.12762  0.29127  Biso   1.000  N
  N13      1.0000 0.34428  0.11926  0.30508  Biso   1.000  N
  N14      1.0000 0.15541  0.02044  0.00143  Biso   1.000  N
  N15      1.0000 0.17060  0.06783  0.16403  Biso   1.000  N
  N16      1.0000 0.17440  0.23182  0.72230  Biso   1.000  N
  N17      1.0000 0.01293  0.30420  0.64055  Biso   1.000  N
  N18      1.0000 0.15572  0.46080  0.77498  Biso   1.000  N
  N19      1.0000 0.34459  0.34602  0.86503  Biso   1.000  N
  N20      1.0000 0.32940  0.49343  0.89723  Biso   1.000  N
  N21      1.0000 0.50952  0.27770  0.95210  Biso   1.000  N
  N22      1.0000 0.66365  0.35945  0.87238  Biso   1.000  N
  N23      1.0000 0.68582  0.22502  0.88074  Biso   1.000  N
  N24      1.0000 0.48099  0.13497  0.97956  Biso   1.000  N
  N25      1.0000 0.59620  0.10277  0.93217  Biso   1.000  N
  N26      1.0000 0.99048  0.94258  0.76818  Biso   1.000  N
  N27      1.0000 0.83635  0.70873  0.69580  Biso   1.000  N
  N28      1.0000 0.81418  0.69492  0.53920  Biso   1.000  N
  N29      1.0000 0.01901  0.99857  0.65398  Biso   1.000  N
  N30      1.0000 0.90380  0.83597  0.50657  Biso   1.000  N
  N31      1.0000 0.67440  0.95210  0.94258  Biso   1.000  N
  N32      1.0000 0.51293  0.87238  0.70873  Biso   1.000  N
  N33      1.0000 0.65572  0.88074  0.69492  Biso   1.000  N
  N34      1.0000 0.84459  0.97956  0.99857  Biso   1.000  N
  N35      1.0000 0.82940  0.93217  0.83597  Biso   1.000  N
  N36      1.0000 0.82560  0.76818  0.27770  Biso   1.000  N
  N37      1.0000 0.98707  0.69580  0.35945  Biso   1.000  N
  N38      1.0000 0.84428  0.53920  0.22502  Biso   1.000  N
  N39      1.0000 0.65541  0.65398  0.13497  Biso   1.000  N
  N40      1.0000 0.67060  0.50657  0.10277  Biso   1.000  N
  O1       1.0000 0.53633  0.59896  0.91719  Biso   1.000  O
  O2       1.0000 0.55528  0.46655  0.88933  Biso   1.000  O
  O3       1.0000 0.96367  0.88086  0.06263  Biso   1.000  O
  O4       1.0000 0.94472  0.83405  0.91127  Biso   1.000  O
  O5       1.0000 0.31823  0.91719  0.88086  Biso   1.000  O
  O6       1.0000 0.42278  0.88933  0.83405  Biso   1.000  O
  O7       1.0000 0.18177  0.06263  0.59896  Biso   1.000  O
  O8       1.0000 0.07722  0.91127  0.46655  Biso   1.000  O
  O9       1.0000 0.46367  0.40104  0.08281  Biso   1.000  O
  O10      1.0000 0.44472  0.53345  0.11067  Biso   1.000  O
  O11      1.0000 0.03633  0.11914  0.93737  Biso   1.000  O
  O12      1.0000 0.05528  0.16595  0.08873  Biso   1.000  O
  O13      1.0000 0.68177  0.08281  0.11914  Biso   1.000  O
  O14      1.0000 0.57722  0.11067  0.16595  Biso   1.000  O
  O15      1.0000 0.81823  0.93737  0.40104  Biso   1.000  O
  O16      1.0000 0.92278  0.08873  0.53345  Biso   1.000  O
