data_image0
_cell_length_a       8.7076
_cell_length_b       15.686
_cell_length_c       19.368
_cell_angle_alpha    90
_cell_angle_beta     90
_cell_angle_gamma    90

_symmetry_space_group_name_H-M    P 1
_symmetry_int_tables_number       1

loop_
  _symmetry_equiv_pos_as_xyz
  'x, y, z'

loop_
  _atom_site_label
  _atom_site_occupancy
  _atom_site_fract_x
  _atom_site_fract_y
  _atom_site_fract_z
  _atom_site_thermal_displace_type
  _atom_site_B_iso_or_equiv
  _atom_site_type_symbol
  Zn1      1.0000 0.44295  0.03777  0.74239  Biso   1.000  Zn
  Zn2      1.0000 0.05705  0.96223  0.24239  Biso   1.000  Zn
  Zn3      1.0000 0.55705  0.53777  0.75761  Biso   1.000  Zn
  Zn4      1.0000 0.94295  0.46223  0.25761  Biso   1.000  Zn
  H1       1.0000 0.07150  0.15090  0.86140  Biso   1.000  H
  H2       1.0000 0.94160  0.23840  0.93650  Biso   1.000  H
  H3       1.0000 0.01890  0.24190  0.05170  Biso   1.000  H
  H4       1.0000 0.52470  0.94600  0.15510  Biso   1.000  H
  H5       1.0000 0.74910  0.96890  0.09490  Biso   1.000  H
  H6       1.0000 0.74550  0.04630  0.99530  Biso   1.000  H
  H7       1.0000 0.51670  0.15970  0.61150  Biso   1.000  H
  H8       1.0000 0.66070  0.29150  0.62050  Biso   1.000  H
  H9       1.0000 0.72110  0.21940  0.85050  Biso   1.000  H
  H10      1.0000 0.60270  0.14410  0.84970  Biso   1.000  H
  H11      1.0000 0.77410  0.12780  0.82880  Biso   1.000  H
  H12      1.0000 0.78650  0.37640  0.72020  Biso   1.000  H
  H13      1.0000 0.75900  0.34120  0.79500  Biso   1.000  H
  H14      1.0000 0.97710  0.25360  0.78480  Biso   1.000  H
  H15      1.0000 0.02190  0.34960  0.77620  Biso   1.000  H
  H16      1.0000 0.98160  0.23850  0.66600  Biso   1.000  H
  H17      1.0000 0.03390  0.33350  0.65930  Biso   1.000  H
  H18      1.0000 0.24570  0.25070  0.64530  Biso   1.000  H
  H19      1.0000 0.21110  0.19980  0.71320  Biso   1.000  H
  H20      1.0000 0.32430  0.26070  0.82750  Biso   1.000  H
  H21      1.0000 0.47430  0.38850  0.85770  Biso   1.000  H
  H22      1.0000 0.41510  0.46150  0.62470  Biso   1.000  H
  H23      1.0000 0.33600  0.37520  0.60470  Biso   1.000  H
  H24      1.0000 0.23750  0.45050  0.63430  Biso   1.000  H
  H25      1.0000 0.42850  0.84910  0.36140  Biso   1.000  H
  H26      1.0000 0.55840  0.76160  0.43650  Biso   1.000  H
  H27      1.0000 0.48110  0.75810  0.55170  Biso   1.000  H
  H28      1.0000 0.97530  0.05400  0.65510  Biso   1.000  H
  H29      1.0000 0.75090  0.03110  0.59490  Biso   1.000  H
  H30      1.0000 0.75450  0.95370  0.49530  Biso   1.000  H
  H31      1.0000 0.98330  0.84030  0.11150  Biso   1.000  H
  H32      1.0000 0.83930  0.70850  0.12050  Biso   1.000  H
  H33      1.0000 0.77890  0.78060  0.35050  Biso   1.000  H
  H34      1.0000 0.89730  0.85590  0.34970  Biso   1.000  H
  H35      1.0000 0.72590  0.87220  0.32880  Biso   1.000  H
  H36      1.0000 0.71350  0.62360  0.22020  Biso   1.000  H
  H37      1.0000 0.74100  0.65880  0.29500  Biso   1.000  H
  H38      1.0000 0.52290  0.74640  0.28480  Biso   1.000  H
  H39      1.0000 0.47810  0.65040  0.27620  Biso   1.000  H
  H40      1.0000 0.51840  0.76150  0.16600  Biso   1.000  H
  H41      1.0000 0.46610  0.66650  0.15930  Biso   1.000  H
  H42      1.0000 0.25430  0.74930  0.14530  Biso   1.000  H
  H43      1.0000 0.28890  0.80020  0.21320  Biso   1.000  H
  H44      1.0000 0.17570  0.73930  0.32750  Biso   1.000  H
  H45      1.0000 0.02570  0.61150  0.35770  Biso   1.000  H
  H46      1.0000 0.08490  0.53850  0.12470  Biso   1.000  H
  H47      1.0000 0.16400  0.62480  0.10470  Biso   1.000  H
  H48      1.0000 0.26250  0.54950  0.13430  Biso   1.000  H
  H49      1.0000 0.92850  0.65090  0.63860  Biso   1.000  H
  H50      1.0000 0.05840  0.73840  0.56350  Biso   1.000  H
  H51      1.0000 0.98110  0.74190  0.44830  Biso   1.000  H
  H52      1.0000 0.47530  0.44600  0.34490  Biso   1.000  H
  H53      1.0000 0.25090  0.46890  0.40510  Biso   1.000  H
  H54      1.0000 0.25450  0.54630  0.50470  Biso   1.000  H
  H55      1.0000 0.48330  0.65970  0.88850  Biso   1.000  H
  H56      1.0000 0.33930  0.79150  0.87950  Biso   1.000  H
  H57      1.0000 0.27890  0.71940  0.64950  Biso   1.000  H
  H58      1.0000 0.39730  0.64410  0.65030  Biso   1.000  H
  H59      1.0000 0.22590  0.62780  0.67120  Biso   1.000  H
  H60      1.0000 0.21350  0.87640  0.77980  Biso   1.000  H
  H61      1.0000 0.24100  0.84120  0.70500  Biso   1.000  H
  H62      1.0000 0.02290  0.75360  0.71520  Biso   1.000  H
  H63      1.0000 0.97810  0.84960  0.72380  Biso   1.000  H
  H64      1.0000 0.01840  0.73850  0.83400  Biso   1.000  H
  H65      1.0000 0.96610  0.83350  0.84070  Biso   1.000  H
  H66      1.0000 0.75430  0.75070  0.85470  Biso   1.000  H
  H67      1.0000 0.78890  0.69980  0.78680  Biso   1.000  H
  H68      1.0000 0.67570  0.76070  0.67250  Biso   1.000  H
  H69      1.0000 0.52570  0.88850  0.64230  Biso   1.000  H
  H70      1.0000 0.58490  0.96150  0.87530  Biso   1.000  H
  H71      1.0000 0.66400  0.87520  0.89530  Biso   1.000  H
  H72      1.0000 0.76250  0.95050  0.86570  Biso   1.000  H
  H73      1.0000 0.57150  0.34910  0.13860  Biso   1.000  H
  H74      1.0000 0.44160  0.26160  0.06350  Biso   1.000  H
  H75      1.0000 0.51890  0.25810  0.94830  Biso   1.000  H
  H76      1.0000 0.02470  0.55400  0.84490  Biso   1.000  H
  H77      1.0000 0.24910  0.53110  0.90510  Biso   1.000  H
  H78      1.0000 0.24550  0.45370  0.00470  Biso   1.000  H
  H79      1.0000 0.01670  0.34030  0.38850  Biso   1.000  H
  H80      1.0000 0.16070  0.20850  0.37950  Biso   1.000  H
  H81      1.0000 0.22110  0.28060  0.14950  Biso   1.000  H
  H82      1.0000 0.10270  0.35590  0.15030  Biso   1.000  H
  H83      1.0000 0.27410  0.37220  0.17120  Biso   1.000  H
  H84      1.0000 0.28650  0.12360  0.27980  Biso   1.000  H
  H85      1.0000 0.25900  0.15880  0.20500  Biso   1.000  H
  H86      1.0000 0.47710  0.24640  0.21520  Biso   1.000  H
  H87      1.0000 0.52190  0.15040  0.22380  Biso   1.000  H
  H88      1.0000 0.48160  0.26150  0.33400  Biso   1.000  H
  H89      1.0000 0.53390  0.16650  0.34070  Biso   1.000  H
  H90      1.0000 0.74570  0.24930  0.35470  Biso   1.000  H
  H91      1.0000 0.71110  0.30020  0.28680  Biso   1.000  H
  H92      1.0000 0.82430  0.23930  0.17250  Biso   1.000  H
  H93      1.0000 0.97430  0.11150  0.14230  Biso   1.000  H
  H94      1.0000 0.91510  0.03850  0.37530  Biso   1.000  H
  H95      1.0000 0.83600  0.12480  0.39530  Biso   1.000  H
  H96      1.0000 0.73750  0.04950  0.36570  Biso   1.000  H
  C1       1.0000 0.29760  0.04430  0.87930  Biso   1.000  C
  C2       1.0000 0.21880  0.10230  0.93100  Biso   1.000  C
  C3       1.0000 0.09960  0.15270  0.90770  Biso   1.000  C
  C4       1.0000 0.02290  0.20480  0.95170  Biso   1.000  C
  C5       1.0000 0.07050  0.20630  0.02110  Biso   1.000  C
  C6       1.0000 0.25850  0.10600  0.00080  Biso   1.000  C
  C7       1.0000 0.39290  0.05840  0.02840  Biso   1.000  C
  C8       1.0000 0.38610  0.01150  0.08930  Biso   1.000  C
  C9       1.0000 0.52370  0.97760  0.11450  Biso   1.000  C
  C10      1.0000 0.65690  0.99120  0.07870  Biso   1.000  C
  C11      1.0000 0.65400  0.03760  0.01910  Biso   1.000  C
  C12      1.0000 0.23770  0.99060  0.12590  Biso   1.000  C
  C13      1.0000 0.56630  0.17940  0.65100  Biso   1.000  C
  C14      1.0000 0.64620  0.25180  0.65550  Biso   1.000  C
  C15      1.0000 0.65420  0.18720  0.75600  Biso   1.000  C
  C16      1.0000 0.69110  0.16800  0.82730  Biso   1.000  C
  C17      1.0000 0.79700  0.32650  0.74940  Biso   1.000  C
  C18      1.0000 0.96720  0.30270  0.75470  Biso   1.000  C
  C19      1.0000 0.04020  0.28320  0.68840  Biso   1.000  C
  C20      1.0000 0.20550  0.25560  0.69190  Biso   1.000  C
  C21      1.0000 0.34650  0.30650  0.79870  Biso   1.000  C
  C22      1.0000 0.42940  0.37740  0.81510  Biso   1.000  C
  C23      1.0000 0.36000  0.39040  0.70610  Biso   1.000  C
  C24      1.0000 0.33500  0.42210  0.63660  Biso   1.000  C
  C25      1.0000 0.20240  0.95570  0.37930  Biso   1.000  C
  C26      1.0000 0.28120  0.89770  0.43100  Biso   1.000  C
  C27      1.0000 0.40040  0.84730  0.40770  Biso   1.000  C
  C28      1.0000 0.47710  0.79520  0.45170  Biso   1.000  C
  C29      1.0000 0.42950  0.79370  0.52110  Biso   1.000  C
  C30      1.0000 0.24150  0.89400  0.50080  Biso   1.000  C
  C31      1.0000 0.10710  0.94160  0.52840  Biso   1.000  C
  C32      1.0000 0.11390  0.98850  0.58930  Biso   1.000  C
  C33      1.0000 0.97630  0.02240  0.61450  Biso   1.000  C
  C34      1.0000 0.84310  0.00880  0.57870  Biso   1.000  C
  C35      1.0000 0.84600  0.96240  0.51910  Biso   1.000  C
  C36      1.0000 0.26230  0.00940  0.62590  Biso   1.000  C
  C37      1.0000 0.93370  0.82060  0.15100  Biso   1.000  C
  C38      1.0000 0.85380  0.74820  0.15550  Biso   1.000  C
  C39      1.0000 0.84580  0.81280  0.25600  Biso   1.000  C
  C40      1.0000 0.80890  0.83200  0.32730  Biso   1.000  C
  C41      1.0000 0.70300  0.67350  0.24940  Biso   1.000  C
  C42      1.0000 0.53280  0.69730  0.25470  Biso   1.000  C
  C43      1.0000 0.45980  0.71680  0.18840  Biso   1.000  C
  C44      1.0000 0.29450  0.74440  0.19190  Biso   1.000  C
  C45      1.0000 0.15350  0.69350  0.29870  Biso   1.000  C
  C46      1.0000 0.07060  0.62260  0.31510  Biso   1.000  C
  C47      1.0000 0.14000  0.60960  0.20610  Biso   1.000  C
  C48      1.0000 0.16500  0.57790  0.13660  Biso   1.000  C
  C49      1.0000 0.70240  0.54430  0.62070  Biso   1.000  C
  C50      1.0000 0.78120  0.60230  0.56900  Biso   1.000  C
  C51      1.0000 0.90040  0.65270  0.59230  Biso   1.000  C
  C52      1.0000 0.97710  0.70480  0.54830  Biso   1.000  C
  C53      1.0000 0.92950  0.70630  0.47890  Biso   1.000  C
  C54      1.0000 0.74150  0.60600  0.49920  Biso   1.000  C
  C55      1.0000 0.60710  0.55840  0.47160  Biso   1.000  C
  C56      1.0000 0.61390  0.51150  0.41070  Biso   1.000  C
  C57      1.0000 0.47630  0.47760  0.38550  Biso   1.000  C
  C58      1.0000 0.34310  0.49120  0.42130  Biso   1.000  C
  C59      1.0000 0.34600  0.53760  0.48090  Biso   1.000  C
  C60      1.0000 0.76230  0.49060  0.37410  Biso   1.000  C
  C61      1.0000 0.43370  0.67940  0.84900  Biso   1.000  C
  C62      1.0000 0.35380  0.75180  0.84450  Biso   1.000  C
  C63      1.0000 0.34580  0.68720  0.74400  Biso   1.000  C
  C64      1.0000 0.30890  0.66800  0.67270  Biso   1.000  C
  C65      1.0000 0.20300  0.82650  0.75060  Biso   1.000  C
  C66      1.0000 0.03280  0.80270  0.74530  Biso   1.000  C
  C67      1.0000 0.95980  0.78320  0.81160  Biso   1.000  C
  C68      1.0000 0.79450  0.75560  0.80810  Biso   1.000  C
  C69      1.0000 0.65350  0.80650  0.70130  Biso   1.000  C
  C70      1.0000 0.57060  0.87740  0.68490  Biso   1.000  C
  C71      1.0000 0.64000  0.89040  0.79390  Biso   1.000  C
  C72      1.0000 0.66500  0.92210  0.86340  Biso   1.000  C
  C73      1.0000 0.79760  0.45570  0.12070  Biso   1.000  C
  C74      1.0000 0.71880  0.39770  0.06900  Biso   1.000  C
  C75      1.0000 0.59960  0.34730  0.09230  Biso   1.000  C
  C76      1.0000 0.52290  0.29520  0.04830  Biso   1.000  C
  C77      1.0000 0.57050  0.29370  0.97890  Biso   1.000  C
  C78      1.0000 0.75850  0.39400  0.99920  Biso   1.000  C
  C79      1.0000 0.89290  0.44160  0.97160  Biso   1.000  C
  C80      1.0000 0.88610  0.48850  0.91070  Biso   1.000  C
  C81      1.0000 0.02370  0.52240  0.88550  Biso   1.000  C
  C82      1.0000 0.15690  0.50880  0.92130  Biso   1.000  C
  C83      1.0000 0.15400  0.46240  0.98090  Biso   1.000  C
  C84      1.0000 0.73770  0.50940  0.87410  Biso   1.000  C
  C85      1.0000 0.06630  0.32060  0.34900  Biso   1.000  C
  C86      1.0000 0.14620  0.24820  0.34450  Biso   1.000  C
  C87      1.0000 0.15420  0.31280  0.24400  Biso   1.000  C
  C88      1.0000 0.19110  0.33200  0.17270  Biso   1.000  C
  C89      1.0000 0.29700  0.17350  0.25060  Biso   1.000  C
  C90      1.0000 0.46720  0.19730  0.24530  Biso   1.000  C
  C91      1.0000 0.54020  0.21680  0.31160  Biso   1.000  C
  C92      1.0000 0.70550  0.24440  0.30810  Biso   1.000  C
  C93      1.0000 0.84650  0.19350  0.20130  Biso   1.000  C
  C94      1.0000 0.92940  0.12260  0.18490  Biso   1.000  C
  C95      1.0000 0.86000  0.10960  0.29390  Biso   1.000  C
  C96      1.0000 0.83500  0.07790  0.36340  Biso   1.000  C
  N1       1.0000 0.56870  0.13890  0.71310  Biso   1.000  N
  N2       1.0000 0.70270  0.25690  0.72090  Biso   1.000  N
  N3       1.0000 0.43580  0.43020  0.75780  Biso   1.000  N
  N4       1.0000 0.30260  0.31600  0.73160  Biso   1.000  N
  N5       1.0000 0.52530  0.07100  0.99370  Biso   1.000  N
  N6       1.0000 0.18730  0.15850  0.04520  Biso   1.000  N
  N7       1.0000 0.93130  0.86110  0.21310  Biso   1.000  N
  N8       1.0000 0.79730  0.74310  0.22090  Biso   1.000  N
  N9       1.0000 0.06420  0.56980  0.25780  Biso   1.000  N
  N10      1.0000 0.19740  0.68400  0.23160  Biso   1.000  N
  N11      1.0000 0.97470  0.92900  0.49370  Biso   1.000  N
  N12      1.0000 0.31270  0.84150  0.54520  Biso   1.000  N
  N13      1.0000 0.43130  0.63890  0.78690  Biso   1.000  N
  N14      1.0000 0.29730  0.75690  0.77910  Biso   1.000  N
  N15      1.0000 0.56420  0.93020  0.74220  Biso   1.000  N
  N16      1.0000 0.69740  0.81600  0.76840  Biso   1.000  N
  N17      1.0000 0.47470  0.57100  0.50630  Biso   1.000  N
  N18      1.0000 0.81270  0.65850  0.45480  Biso   1.000  N
  N19      1.0000 0.06870  0.36110  0.28690  Biso   1.000  N
  N20      1.0000 0.20270  0.24310  0.27910  Biso   1.000  N
  N21      1.0000 0.93580  0.06980  0.24220  Biso   1.000  N
  N22      1.0000 0.80260  0.18400  0.26840  Biso   1.000  N
  N23      1.0000 0.02530  0.42900  0.00630  Biso   1.000  N
  N24      1.0000 0.68730  0.34150  0.95480  Biso   1.000  N
  O1       1.0000 0.29270  0.96590  0.88580  Biso   1.000  O
  O2       1.0000 0.35540  0.08310  0.82880  Biso   1.000  O
  O3       1.0000 0.11710  0.98330  0.09450  Biso   1.000  O
  O4       1.0000 0.24970  0.97990  0.19110  Biso   1.000  O
  O5       1.0000 0.20730  0.03410  0.38580  Biso   1.000  O
  O6       1.0000 0.14460  0.91690  0.32880  Biso   1.000  O
  O7       1.0000 0.38290  0.01670  0.59450  Biso   1.000  O
  O8       1.0000 0.25030  0.02010  0.69110  Biso   1.000  O
  O9       1.0000 0.70730  0.46590  0.61420  Biso   1.000  O
  O10      1.0000 0.64460  0.58310  0.67120  Biso   1.000  O
  O11      1.0000 0.88290  0.48330  0.40550  Biso   1.000  O
  O12      1.0000 0.75030  0.47990  0.30890  Biso   1.000  O
  O13      1.0000 0.79270  0.53410  0.11420  Biso   1.000  O
  O14      1.0000 0.85540  0.41690  0.17120  Biso   1.000  O
  O15      1.0000 0.61710  0.51670  0.90550  Biso   1.000  O
  O16      1.0000 0.74970  0.52010  0.80890  Biso   1.000  O
