data_image0
_cell_length_a       22.9539
_cell_length_b       22.9539
_cell_length_c       22.9539
_cell_angle_alpha    60
_cell_angle_beta     60
_cell_angle_gamma    60

_symmetry_space_group_name_H-M    P 1
_symmetry_int_tables_number       1

loop_
  _symmetry_equiv_pos_as_xyz
  'x, y, z'

loop_
  _atom_site_label
  _atom_site_occupancy
  _atom_site_fract_x
  _atom_site_fract_y
  _atom_site_fract_z
  _atom_site_thermal_displace_type
  _atom_site_B_iso_or_equiv
  _atom_site_type_symbol
  Ni1      1.0000 0.87280  0.04240  0.04240  Biso   1.000  Ni
  Ni2      1.0000 0.04240  0.87280  0.04240  Biso   1.000  Ni
  Ni3      1.0000 0.04240  0.04240  0.87280  Biso   1.000  Ni
  Ni4      1.0000 0.04240  0.04240  0.04240  Biso   1.000  Ni
  Ni5      1.0000 0.95760  0.12720  0.95760  Biso   1.000  Ni
  Ni6      1.0000 0.12720  0.95760  0.95760  Biso   1.000  Ni
  Ni7      1.0000 0.95760  0.95760  0.12720  Biso   1.000  Ni
  Ni8      1.0000 0.95760  0.95760  0.95760  Biso   1.000  Ni
  H1       1.0000 0.90658  0.09342  0.09342  Biso   1.000  H
  H2       1.0000 0.09342  0.90658  0.90658  Biso   1.000  H
  H3       1.0000 0.90658  0.09342  0.90658  Biso   1.000  H
  H4       1.0000 0.09342  0.90658  0.09342  Biso   1.000  H
  H5       1.0000 0.90658  0.90658  0.09342  Biso   1.000  H
  H6       1.0000 0.09342  0.09342  0.90658  Biso   1.000  H
  H7       1.0000 0.51145  0.61341  0.93757  Biso   1.000  H
  H8       1.0000 0.29441  0.82905  0.93827  Biso   1.000  H
  H9       1.0000 0.61341  0.51145  0.93757  Biso   1.000  H
  H10      1.0000 0.82905  0.29441  0.93827  Biso   1.000  H
  H11      1.0000 0.93757  0.93757  0.51145  Biso   1.000  H
  H12      1.0000 0.93827  0.93827  0.29441  Biso   1.000  H
  H13      1.0000 0.93757  0.93757  0.61341  Biso   1.000  H
  H14      1.0000 0.93827  0.93827  0.82905  Biso   1.000  H
  H15      1.0000 0.51145  0.93757  0.93757  Biso   1.000  H
  H16      1.0000 0.29441  0.93827  0.93827  Biso   1.000  H
  H17      1.0000 0.61341  0.93757  0.93757  Biso   1.000  H
  H18      1.0000 0.82905  0.93827  0.93827  Biso   1.000  H
  H19      1.0000 0.93757  0.51145  0.61341  Biso   1.000  H
  H20      1.0000 0.93827  0.29441  0.82905  Biso   1.000  H
  H21      1.0000 0.93757  0.61341  0.51145  Biso   1.000  H
  H22      1.0000 0.93827  0.82905  0.29441  Biso   1.000  H
  H23      1.0000 0.51145  0.93757  0.61341  Biso   1.000  H
  H24      1.0000 0.29441  0.93827  0.82905  Biso   1.000  H
  H25      1.0000 0.61341  0.93757  0.51145  Biso   1.000  H
  H26      1.0000 0.82905  0.93827  0.29441  Biso   1.000  H
  H27      1.0000 0.93757  0.61341  0.93757  Biso   1.000  H
  H28      1.0000 0.93827  0.82905  0.93827  Biso   1.000  H
  H29      1.0000 0.93757  0.51145  0.93757  Biso   1.000  H
  H30      1.0000 0.93827  0.29441  0.93827  Biso   1.000  H
  H31      1.0000 0.38659  0.48855  0.06243  Biso   1.000  H
  H32      1.0000 0.17095  0.70559  0.06173  Biso   1.000  H
  H33      1.0000 0.48855  0.38659  0.06243  Biso   1.000  H
  H34      1.0000 0.70559  0.17095  0.06173  Biso   1.000  H
  H35      1.0000 0.06243  0.06243  0.48855  Biso   1.000  H
  H36      1.0000 0.06173  0.06173  0.70559  Biso   1.000  H
  H37      1.0000 0.06243  0.06243  0.38659  Biso   1.000  H
  H38      1.0000 0.06173  0.06173  0.17095  Biso   1.000  H
  H39      1.0000 0.06243  0.48855  0.06243  Biso   1.000  H
  H40      1.0000 0.06173  0.70559  0.06173  Biso   1.000  H
  H41      1.0000 0.06243  0.38659  0.06243  Biso   1.000  H
  H42      1.0000 0.06173  0.17095  0.06173  Biso   1.000  H
  H43      1.0000 0.48855  0.06243  0.38659  Biso   1.000  H
  H44      1.0000 0.70559  0.06173  0.17095  Biso   1.000  H
  H45      1.0000 0.38659  0.06243  0.48855  Biso   1.000  H
  H46      1.0000 0.17095  0.06173  0.70559  Biso   1.000  H
  H47      1.0000 0.06243  0.48855  0.38659  Biso   1.000  H
  H48      1.0000 0.06173  0.70559  0.17095  Biso   1.000  H
  H49      1.0000 0.06243  0.38659  0.48855  Biso   1.000  H
  H50      1.0000 0.06173  0.17095  0.70559  Biso   1.000  H
  H51      1.0000 0.38659  0.06243  0.06243  Biso   1.000  H
  H52      1.0000 0.17095  0.06173  0.06173  Biso   1.000  H
  H53      1.0000 0.48855  0.06243  0.06243  Biso   1.000  H
  H54      1.0000 0.70559  0.06173  0.06173  Biso   1.000  H
  C1       1.0000 0.43944  0.56056  0.00000  Biso   1.000  C
  C2       1.0000 0.37410  0.62590  0.00000  Biso   1.000  C
  C3       1.0000 0.32008  0.67992  0.00000  Biso   1.000  C
  C4       1.0000 0.25472  0.74528  0.00000  Biso   1.000  C
  C5       1.0000 0.56056  0.43944  0.00000  Biso   1.000  C
  C6       1.0000 0.62590  0.37410  0.00000  Biso   1.000  C
  C7       1.0000 0.67992  0.32008  0.00000  Biso   1.000  C
  C8       1.0000 0.74528  0.25472  0.00000  Biso   1.000  C
  C9       1.0000 0.00000  0.00000  0.43944  Biso   1.000  C
  C10      1.0000 0.00000  0.00000  0.37410  Biso   1.000  C
  C11      1.0000 0.00000  0.00000  0.32008  Biso   1.000  C
  C12      1.0000 0.00000  0.00000  0.25472  Biso   1.000  C
  C13      1.0000 0.00000  0.00000  0.56056  Biso   1.000  C
  C14      1.0000 0.00000  0.00000  0.62590  Biso   1.000  C
  C15      1.0000 0.00000  0.00000  0.67992  Biso   1.000  C
  C16      1.0000 0.00000  0.00000  0.74528  Biso   1.000  C
  C17      1.0000 0.43944  0.00000  0.00000  Biso   1.000  C
  C18      1.0000 0.37410  0.00000  0.00000  Biso   1.000  C
  C19      1.0000 0.32008  0.00000  0.00000  Biso   1.000  C
  C20      1.0000 0.25472  0.00000  0.00000  Biso   1.000  C
  C21      1.0000 0.56056  0.00000  0.00000  Biso   1.000  C
  C22      1.0000 0.62590  0.00000  0.00000  Biso   1.000  C
  C23      1.0000 0.67992  0.00000  0.00000  Biso   1.000  C
  C24      1.0000 0.74528  0.00000  0.00000  Biso   1.000  C
  C25      1.0000 1.00000  0.43944  0.56056  Biso   1.000  C
  C26      1.0000 0.00000  0.37410  0.62590  Biso   1.000  C
  C27      1.0000 0.00000  0.32008  0.67992  Biso   1.000  C
  C28      1.0000 0.00000  0.25472  0.74528  Biso   1.000  C
  C29      1.0000 1.00000  0.56056  0.43944  Biso   1.000  C
  C30      1.0000 1.00000  0.62590  0.37410  Biso   1.000  C
  C31      1.0000 0.00000  0.67992  0.32008  Biso   1.000  C
  C32      1.0000 0.00000  0.74528  0.25472  Biso   1.000  C
  C33      1.0000 0.43944  0.00000  0.56056  Biso   1.000  C
  C34      1.0000 0.37410  0.00000  0.62590  Biso   1.000  C
  C35      1.0000 0.32008  0.00000  0.67992  Biso   1.000  C
  C36      1.0000 0.25472  0.00000  0.74528  Biso   1.000  C
  C37      1.0000 0.56056  0.00000  0.43944  Biso   1.000  C
  C38      1.0000 0.62590  1.00000  0.37410  Biso   1.000  C
  C39      1.0000 0.67992  0.00000  0.32008  Biso   1.000  C
  C40      1.0000 0.74528  0.00000  0.25472  Biso   1.000  C
  C41      1.0000 0.00000  0.56056  0.00000  Biso   1.000  C
  C42      1.0000 1.00000  0.62590  0.00000  Biso   1.000  C
  C43      1.0000 0.00000  0.67992  0.00000  Biso   1.000  C
  C44      1.0000 0.00000  0.74528  0.00000  Biso   1.000  C
  C45      1.0000 0.00000  0.43944  0.00000  Biso   1.000  C
  C46      1.0000 0.00000  0.37410  0.00000  Biso   1.000  C
  C47      1.0000 0.00000  0.32008  0.00000  Biso   1.000  C
  C48      1.0000 0.00000  0.25472  0.00000  Biso   1.000  C
  C49      1.0000 0.50680  0.56736  0.96292  Biso   1.000  C
  C50      1.0000 0.25379  0.81399  0.96611  Biso   1.000  C
  C51      1.0000 0.56736  0.50680  0.96292  Biso   1.000  C
  C52      1.0000 0.81399  0.25379  0.96611  Biso   1.000  C
  C53      1.0000 0.96292  0.96292  0.50680  Biso   1.000  C
  C54      1.0000 0.96611  0.96611  0.25379  Biso   1.000  C
  C55      1.0000 0.96292  0.96292  0.56736  Biso   1.000  C
  C56      1.0000 0.96611  0.96611  0.81399  Biso   1.000  C
  C57      1.0000 0.50680  0.96292  0.96292  Biso   1.000  C
  C58      1.0000 0.25379  0.96611  0.96611  Biso   1.000  C
  C59      1.0000 0.56736  0.96292  0.96292  Biso   1.000  C
  C60      1.0000 0.81399  0.96611  0.96611  Biso   1.000  C
  C61      1.0000 0.96292  0.50680  0.56736  Biso   1.000  C
  C62      1.0000 0.96611  0.25379  0.81399  Biso   1.000  C
  C63      1.0000 0.96292  0.56736  0.50680  Biso   1.000  C
  C64      1.0000 0.96611  0.81399  0.25379  Biso   1.000  C
  C65      1.0000 0.50680  0.96292  0.56736  Biso   1.000  C
  C66      1.0000 0.25379  0.96611  0.81399  Biso   1.000  C
  C67      1.0000 0.56736  0.96292  0.50680  Biso   1.000  C
  C68      1.0000 0.81399  0.96611  0.25379  Biso   1.000  C
  C69      1.0000 0.96292  0.56736  0.96292  Biso   1.000  C
  C70      1.0000 0.96611  0.81399  0.96611  Biso   1.000  C
  C71      1.0000 0.96292  0.50680  0.96292  Biso   1.000  C
  C72      1.0000 0.96611  0.25379  0.96611  Biso   1.000  C
  C73      1.0000 0.43264  0.49320  0.03708  Biso   1.000  C
  C74      1.0000 0.18601  0.74621  0.03389  Biso   1.000  C
  C75      1.0000 0.49320  0.43264  0.03708  Biso   1.000  C
  C76      1.0000 0.74621  0.18601  0.03389  Biso   1.000  C
  C77      1.0000 0.03708  0.03708  0.49320  Biso   1.000  C
  C78      1.0000 0.03389  0.03389  0.74621  Biso   1.000  C
  C79      1.0000 0.03708  0.03708  0.43264  Biso   1.000  C
  C80      1.0000 0.03389  0.03389  0.18601  Biso   1.000  C
  C81      1.0000 0.03708  0.49320  0.03708  Biso   1.000  C
  C82      1.0000 0.03389  0.74621  0.03389  Biso   1.000  C
  C83      1.0000 0.03708  0.43264  0.03708  Biso   1.000  C
  C84      1.0000 0.03389  0.18601  0.03389  Biso   1.000  C
  C85      1.0000 0.49320  0.03708  0.43264  Biso   1.000  C
  C86      1.0000 0.74621  0.03389  0.18601  Biso   1.000  C
  C87      1.0000 0.43264  0.03708  0.49320  Biso   1.000  C
  C88      1.0000 0.18601  0.03389  0.74621  Biso   1.000  C
  C89      1.0000 0.03708  0.49320  0.43264  Biso   1.000  C
  C90      1.0000 0.03389  0.74621  0.18601  Biso   1.000  C
  C91      1.0000 0.03708  0.43264  0.49320  Biso   1.000  C
  C92      1.0000 0.03389  0.18601  0.74621  Biso   1.000  C
  C93      1.0000 0.43264  0.03708  0.03708  Biso   1.000  C
  C94      1.0000 0.18601  0.03389  0.03389  Biso   1.000  C
  C95      1.0000 0.49320  0.03708  0.03708  Biso   1.000  C
  C96      1.0000 0.74621  0.03389  0.03389  Biso   1.000  C
  N1       1.0000 0.18451  0.85739  0.97905  Biso   1.000  N
  N2       1.0000 0.85739  0.18451  0.97905  Biso   1.000  N
  N3       1.0000 0.97905  0.97905  0.18451  Biso   1.000  N
  N4       1.0000 0.97905  0.97905  0.85739  Biso   1.000  N
  N5       1.0000 0.18451  0.97905  0.97905  Biso   1.000  N
  N6       1.0000 0.85739  0.97905  0.97905  Biso   1.000  N
  N7       1.0000 0.97905  0.18451  0.85739  Biso   1.000  N
  N8       1.0000 0.97905  0.85739  0.18451  Biso   1.000  N
  N9       1.0000 0.18451  0.97905  0.85739  Biso   1.000  N
  N10      1.0000 0.85739  0.97905  0.18451  Biso   1.000  N
  N11      1.0000 0.97905  0.85739  0.97905  Biso   1.000  N
  N12      1.0000 0.97905  0.18451  0.97905  Biso   1.000  N
  N13      1.0000 0.14261  0.81549  0.02095  Biso   1.000  N
  N14      1.0000 0.81549  0.14261  0.02095  Biso   1.000  N
  N15      1.0000 0.02095  0.02095  0.81549  Biso   1.000  N
  N16      1.0000 0.02095  0.02095  0.14261  Biso   1.000  N
  N17      1.0000 0.02095  0.81549  0.02095  Biso   1.000  N
  N18      1.0000 0.02095  0.14261  0.02095  Biso   1.000  N
  N19      1.0000 0.81549  0.02095  0.14261  Biso   1.000  N
  N20      1.0000 0.14261  0.02095  0.81549  Biso   1.000  N
  N21      1.0000 0.02095  0.81549  0.14261  Biso   1.000  N
  N22      1.0000 0.02095  0.14261  0.81549  Biso   1.000  N
  N23      1.0000 0.14261  0.02095  0.02095  Biso   1.000  N
  N24      1.0000 0.81549  0.02095  0.02095  Biso   1.000  N
  O1       1.0000 0.93584  0.06416  0.06416  Biso   1.000  O
  O2       1.0000 0.06416  0.93584  0.93584  Biso   1.000  O
  O3       1.0000 0.93584  0.06416  0.93584  Biso   1.000  O
  O4       1.0000 0.06416  0.93584  0.06416  Biso   1.000  O
  O5       1.0000 0.93584  0.93584  0.06416  Biso   1.000  O
  O6       1.0000 0.06416  0.06416  0.93584  Biso   1.000  O
