data_image0
_cell_length_a       17.9465
_cell_length_b       17.9465
_cell_length_c       17.9465
_cell_angle_alpha    60
_cell_angle_beta     60
_cell_angle_gamma    60

_symmetry_space_group_name_H-M    P 1
_symmetry_int_tables_number       1

loop_
  _symmetry_equiv_pos_as_xyz
  'x, y, z'

loop_
  _atom_site_label
  _atom_site_occupancy
  _atom_site_fract_x
  _atom_site_fract_y
  _atom_site_fract_z
  _atom_site_thermal_displace_type
  _atom_site_B_iso_or_equiv
  _atom_site_type_symbol
  Ni1      1.0000 0.82873  0.05709  0.05709  Biso   1.000  Ni
  Ni2      1.0000 0.05709  0.82873  0.05709  Biso   1.000  Ni
  Ni3      1.0000 0.05709  0.05709  0.82873  Biso   1.000  Ni
  Ni4      1.0000 0.05709  0.05709  0.05709  Biso   1.000  Ni
  Ni5      1.0000 0.94291  0.17127  0.94291  Biso   1.000  Ni
  Ni6      1.0000 0.17127  0.94291  0.94291  Biso   1.000  Ni
  Ni7      1.0000 0.94291  0.94291  0.17127  Biso   1.000  Ni
  Ni8      1.0000 0.94291  0.94291  0.94291  Biso   1.000  Ni
  H1       1.0000 0.87564  0.12436  0.12436  Biso   1.000  H
  H2       1.0000 0.12436  0.87564  0.87564  Biso   1.000  H
  H3       1.0000 0.87564  0.12436  0.87564  Biso   1.000  H
  H4       1.0000 0.12436  0.87564  0.12436  Biso   1.000  H
  H5       1.0000 0.87564  0.87564  0.12436  Biso   1.000  H
  H6       1.0000 0.12436  0.12436  0.87564  Biso   1.000  H
  H7       1.0000 0.51465  0.64505  0.92015  Biso   1.000  H
  H8       1.0000 0.39251  0.76539  0.92105  Biso   1.000  H
  H9       1.0000 0.64505  0.51465  0.92015  Biso   1.000  H
  H10      1.0000 0.76539  0.39251  0.92105  Biso   1.000  H
  H11      1.0000 0.92015  0.92015  0.51465  Biso   1.000  H
  H12      1.0000 0.92105  0.92105  0.39251  Biso   1.000  H
  H13      1.0000 0.92015  0.92015  0.64505  Biso   1.000  H
  H14      1.0000 0.92105  0.92105  0.76539  Biso   1.000  H
  H15      1.0000 0.51465  0.92015  0.92015  Biso   1.000  H
  H16      1.0000 0.39251  0.92105  0.92105  Biso   1.000  H
  H17      1.0000 0.64505  0.92015  0.92015  Biso   1.000  H
  H18      1.0000 0.76539  0.92105  0.92105  Biso   1.000  H
  H19      1.0000 0.92015  0.51465  0.64505  Biso   1.000  H
  H20      1.0000 0.92105  0.39251  0.76539  Biso   1.000  H
  H21      1.0000 0.92015  0.64505  0.51465  Biso   1.000  H
  H22      1.0000 0.92105  0.76539  0.39251  Biso   1.000  H
  H23      1.0000 0.51465  0.92015  0.64505  Biso   1.000  H
  H24      1.0000 0.39251  0.92105  0.76539  Biso   1.000  H
  H25      1.0000 0.64505  0.92015  0.51465  Biso   1.000  H
  H26      1.0000 0.76539  0.92105  0.39251  Biso   1.000  H
  H27      1.0000 0.92015  0.64505  0.92015  Biso   1.000  H
  H28      1.0000 0.92105  0.76539  0.92105  Biso   1.000  H
  H29      1.0000 0.92015  0.51465  0.92015  Biso   1.000  H
  H30      1.0000 0.92105  0.39251  0.92105  Biso   1.000  H
  H31      1.0000 0.35495  0.48535  0.07985  Biso   1.000  H
  H32      1.0000 0.23461  0.60749  0.07895  Biso   1.000  H
  H33      1.0000 0.48535  0.35495  0.07985  Biso   1.000  H
  H34      1.0000 0.60749  0.23461  0.07895  Biso   1.000  H
  H35      1.0000 0.07985  0.07985  0.48535  Biso   1.000  H
  H36      1.0000 0.07895  0.07895  0.60749  Biso   1.000  H
  H37      1.0000 0.07985  0.07985  0.35495  Biso   1.000  H
  H38      1.0000 0.07895  0.07895  0.23461  Biso   1.000  H
  H39      1.0000 0.07985  0.48535  0.07985  Biso   1.000  H
  H40      1.0000 0.07895  0.60749  0.07895  Biso   1.000  H
  H41      1.0000 0.07985  0.35495  0.07985  Biso   1.000  H
  H42      1.0000 0.07895  0.23461  0.07895  Biso   1.000  H
  H43      1.0000 0.48535  0.07985  0.35495  Biso   1.000  H
  H44      1.0000 0.60749  0.07895  0.23461  Biso   1.000  H
  H45      1.0000 0.35495  0.07985  0.48535  Biso   1.000  H
  H46      1.0000 0.23461  0.07895  0.60749  Biso   1.000  H
  H47      1.0000 0.07985  0.48535  0.35495  Biso   1.000  H
  H48      1.0000 0.07895  0.60749  0.23461  Biso   1.000  H
  H49      1.0000 0.07985  0.35495  0.48535  Biso   1.000  H
  H50      1.0000 0.07895  0.23461  0.60749  Biso   1.000  H
  H51      1.0000 0.35495  0.07985  0.07985  Biso   1.000  H
  H52      1.0000 0.23461  0.07895  0.07895  Biso   1.000  H
  H53      1.0000 0.48535  0.07985  0.07985  Biso   1.000  H
  H54      1.0000 0.60749  0.07895  0.07895  Biso   1.000  H
  C1       1.0000 0.42254  0.57746  0.00000  Biso   1.000  C
  C2       1.0000 0.34176  0.65824  0.00000  Biso   1.000  C
  C3       1.0000 0.57746  0.42254  0.00000  Biso   1.000  C
  C4       1.0000 0.65824  0.34176  0.00000  Biso   1.000  C
  C5       1.0000 0.00000  0.00000  0.42254  Biso   1.000  C
  C6       1.0000 0.00000  0.00000  0.34176  Biso   1.000  C
  C7       1.0000 0.00000  0.00000  0.57746  Biso   1.000  C
  C8       1.0000 0.00000  0.00000  0.65824  Biso   1.000  C
  C9       1.0000 0.42254  0.00000  0.00000  Biso   1.000  C
  C10      1.0000 0.34176  0.00000  0.00000  Biso   1.000  C
  C11      1.0000 0.57746  0.00000  0.00000  Biso   1.000  C
  C12      1.0000 0.65824  0.00000  0.00000  Biso   1.000  C
  C13      1.0000 0.00000  0.42254  0.57746  Biso   1.000  C
  C14      1.0000 0.00000  0.34176  0.65824  Biso   1.000  C
  C15      1.0000 0.00000  0.57746  0.42254  Biso   1.000  C
  C16      1.0000 0.00000  0.65824  0.34176  Biso   1.000  C
  C17      1.0000 0.42254  1.00000  0.57746  Biso   1.000  C
  C18      1.0000 0.34176  0.00000  0.65824  Biso   1.000  C
  C19      1.0000 0.57746  0.00000  0.42254  Biso   1.000  C
  C20      1.0000 0.65824  0.00000  0.34176  Biso   1.000  C
  C21      1.0000 0.00000  0.57746  0.00000  Biso   1.000  C
  C22      1.0000 0.00000  0.65824  0.00000  Biso   1.000  C
  C23      1.0000 0.00000  0.42254  0.00000  Biso   1.000  C
  C24      1.0000 0.00000  0.34176  0.00000  Biso   1.000  C
  C25      1.0000 0.50871  0.58615  0.95257  Biso   1.000  C
  C26      1.0000 0.34055  0.74615  0.95665  Biso   1.000  C
  C27      1.0000 0.58615  0.50871  0.95257  Biso   1.000  C
  C28      1.0000 0.74615  0.34055  0.95665  Biso   1.000  C
  C29      1.0000 0.95257  0.95257  0.50871  Biso   1.000  C
  C30      1.0000 0.95665  0.95665  0.34055  Biso   1.000  C
  C31      1.0000 0.95257  0.95257  0.58615  Biso   1.000  C
  C32      1.0000 0.95665  0.95665  0.74615  Biso   1.000  C
  C33      1.0000 0.50871  0.95257  0.95257  Biso   1.000  C
  C34      1.0000 0.34055  0.95665  0.95665  Biso   1.000  C
  C35      1.0000 0.58615  0.95257  0.95257  Biso   1.000  C
  C36      1.0000 0.74615  0.95665  0.95665  Biso   1.000  C
  C37      1.0000 0.95257  0.50871  0.58615  Biso   1.000  C
  C38      1.0000 0.95665  0.34055  0.74615  Biso   1.000  C
  C39      1.0000 0.95257  0.58615  0.50871  Biso   1.000  C
  C40      1.0000 0.95665  0.74615  0.34055  Biso   1.000  C
  C41      1.0000 0.50871  0.95257  0.58615  Biso   1.000  C
  C42      1.0000 0.34055  0.95665  0.74615  Biso   1.000  C
  C43      1.0000 0.58615  0.95257  0.50871  Biso   1.000  C
  C44      1.0000 0.74615  0.95665  0.34055  Biso   1.000  C
  C45      1.0000 0.95257  0.58615  0.95257  Biso   1.000  C
  C46      1.0000 0.95665  0.74615  0.95665  Biso   1.000  C
  C47      1.0000 0.95257  0.50871  0.95257  Biso   1.000  C
  C48      1.0000 0.95665  0.34055  0.95665  Biso   1.000  C
  C49      1.0000 0.41385  0.49129  0.04743  Biso   1.000  C
  C50      1.0000 0.25385  0.65945  0.04335  Biso   1.000  C
  C51      1.0000 0.49129  0.41385  0.04743  Biso   1.000  C
  C52      1.0000 0.65945  0.25385  0.04335  Biso   1.000  C
  C53      1.0000 0.04743  0.04743  0.49129  Biso   1.000  C
  C54      1.0000 0.04335  0.04335  0.65945  Biso   1.000  C
  C55      1.0000 0.04743  0.04743  0.41385  Biso   1.000  C
  C56      1.0000 0.04335  0.04335  0.25385  Biso   1.000  C
  C57      1.0000 0.04743  0.49129  0.04743  Biso   1.000  C
  C58      1.0000 0.04335  0.65945  0.04335  Biso   1.000  C
  C59      1.0000 0.04743  0.41385  0.04743  Biso   1.000  C
  C60      1.0000 0.04335  0.25385  0.04335  Biso   1.000  C
  C61      1.0000 0.49129  0.04743  0.41385  Biso   1.000  C
  C62      1.0000 0.65945  0.04335  0.25385  Biso   1.000  C
  C63      1.0000 0.41385  0.04743  0.49129  Biso   1.000  C
  C64      1.0000 0.25385  0.04335  0.65945  Biso   1.000  C
  C65      1.0000 0.04743  0.49129  0.41385  Biso   1.000  C
  C66      1.0000 0.04335  0.65945  0.25385  Biso   1.000  C
  C67      1.0000 0.04743  0.41385  0.49129  Biso   1.000  C
  C68      1.0000 0.04335  0.25385  0.65945  Biso   1.000  C
  C69      1.0000 0.41385  0.04743  0.04743  Biso   1.000  C
  C70      1.0000 0.25385  0.04335  0.04335  Biso   1.000  C
  C71      1.0000 0.49129  0.04743  0.04743  Biso   1.000  C
  C72      1.0000 0.65945  0.04335  0.04335  Biso   1.000  C
  N1       1.0000 0.25193  0.80165  0.97321  Biso   1.000  N
  N2       1.0000 0.80165  0.25193  0.97321  Biso   1.000  N
  N3       1.0000 0.97321  0.97321  0.25193  Biso   1.000  N
  N4       1.0000 0.97321  0.97321  0.80165  Biso   1.000  N
  N5       1.0000 0.25193  0.97321  0.97321  Biso   1.000  N
  N6       1.0000 0.80165  0.97321  0.97321  Biso   1.000  N
  N7       1.0000 0.97321  0.25193  0.80165  Biso   1.000  N
  N8       1.0000 0.97321  0.80165  0.25193  Biso   1.000  N
  N9       1.0000 0.25193  0.97321  0.80165  Biso   1.000  N
  N10      1.0000 0.80165  0.97321  0.25193  Biso   1.000  N
  N11      1.0000 0.97321  0.80165  0.97321  Biso   1.000  N
  N12      1.0000 0.97321  0.25193  0.97321  Biso   1.000  N
  N13      1.0000 0.19835  0.74807  0.02679  Biso   1.000  N
  N14      1.0000 0.74807  0.19835  0.02679  Biso   1.000  N
  N15      1.0000 0.02679  0.02679  0.74807  Biso   1.000  N
  N16      1.0000 0.02679  0.02679  0.19835  Biso   1.000  N
  N17      1.0000 0.02679  0.74807  0.02679  Biso   1.000  N
  N18      1.0000 0.02679  0.19835  0.02679  Biso   1.000  N
  N19      1.0000 0.74807  0.02679  0.19835  Biso   1.000  N
  N20      1.0000 0.19835  0.02679  0.74807  Biso   1.000  N
  N21      1.0000 0.02679  0.74807  0.19835  Biso   1.000  N
  N22      1.0000 0.02679  0.19835  0.74807  Biso   1.000  N
  N23      1.0000 0.19835  0.02679  0.02679  Biso   1.000  N
  N24      1.0000 0.74807  0.02679  0.02679  Biso   1.000  N
  O1       1.0000 0.91307  0.08693  0.08693  Biso   1.000  O
  O2       1.0000 0.08693  0.91307  0.91307  Biso   1.000  O
  O3       1.0000 0.91307  0.08693  0.91307  Biso   1.000  O
  O4       1.0000 0.08693  0.91307  0.08693  Biso   1.000  O
  O5       1.0000 0.91307  0.91307  0.08693  Biso   1.000  O
  O6       1.0000 0.08693  0.08693  0.91307  Biso   1.000  O
