data_image0
_cell_length_a       21.759
_cell_length_b       13.8214
_cell_length_c       14.2237
_cell_angle_alpha    90
_cell_angle_beta     98.849
_cell_angle_gamma    90

_symmetry_space_group_name_H-M    "P 1"
_symmetry_int_tables_number       1

loop_
  _symmetry_equiv_pos_as_xyz
  'x, y, z'

loop_
  _atom_site_label
  _atom_site_occupancy
  _atom_site_fract_x
  _atom_site_fract_y
  _atom_site_fract_z
  _atom_site_thermal_displace_type
  _atom_site_B_iso_or_equiv
  _atom_site_type_symbol
  P1       1.0000 0.05959  0.12051  0.01465  Biso   1.000  P
  P2       1.0000 0.17164  0.78464  0.89409  Biso   1.000  P
  P3       1.0000 0.26241  0.11092  0.06219  Biso   1.000  P
  P4       1.0000 0.15797  0.11435  0.70493  Biso   1.000  P
  Al1      1.0000 0.16167  0.20348  0.90892  Biso   1.000  Al
  Al2      1.0000 0.08374  0.89973  0.00792  Biso   1.000  Al
  Al3      1.0000 0.24608  0.89140  0.05953  Biso   1.000  Al
  Al4      1.0000 0.16015  0.10872  0.19667  Biso   1.000  Al
  F1       1.0000 0.16788  0.95530  0.02680  Biso   1.000  F
  O1       1.0000 0.22897  0.83740  0.94500  Biso   1.000  O
  O2       1.0000 0.06186  0.01800  0.97520  Biso   1.000  O
  O3       1.0000 0.22339  0.13550  0.96630  Biso   1.000  O
  O4       1.0000 0.11318  0.81290  0.93520  Biso   1.000  O
  O5       1.0000 0.22535  0.13170  0.14240  Biso   1.000  O
  O6       1.0000 0.09876  0.12720  0.63260  Biso   1.000  O
  O7       1.0000 0.99282  0.15410  0.01040  Biso   1.000  O
  O8       1.0000 0.28447  0.00570  0.06360  Biso   1.000  O
  O9       1.0000 0.15195  0.17880  0.78930  Biso   1.000  O
  O10      1.0000 0.32118  0.17338  0.07640  Biso   1.000  O
  O11      1.0000 0.18042  0.67470  0.90550  Biso   1.000  O
  O12      1.0000 0.09318  0.18860  0.95510  Biso   1.000  O
  O13      1.0000 0.16196  0.80850  0.78810  Biso   1.000  O
  O14      1.0000 0.21551  0.14490  0.66340  Biso   1.000  O
  O15      1.0000 0.09222  0.12520  0.11720  Biso   1.000  O
  O16      1.0000 0.16478  0.00900  0.74000  Biso   1.000  O
  P5       1.0000 0.55959  0.62051  0.01465  Biso   1.000  P
  P6       1.0000 0.67164  0.28464  0.89409  Biso   1.000  P
  P7       1.0000 0.76241  0.61092  0.06219  Biso   1.000  P
  P8       1.0000 0.65797  0.61435  0.70493  Biso   1.000  P
  Al5      1.0000 0.66167  0.70348  0.90892  Biso   1.000  Al
  Al6      1.0000 0.58374  0.39973  0.00792  Biso   1.000  Al
  Al7      1.0000 0.74608  0.39140  0.05953  Biso   1.000  Al
  Al8      1.0000 0.66015  0.60872  0.19667  Biso   1.000  Al
  F2       1.0000 0.66788  0.45530  0.02680  Biso   1.000  F
  O17      1.0000 0.72897  0.33740  0.94500  Biso   1.000  O
  O18      1.0000 0.56186  0.51800  0.97520  Biso   1.000  O
  O19      1.0000 0.72339  0.63550  0.96630  Biso   1.000  O
  O20      1.0000 0.61318  0.31290  0.93520  Biso   1.000  O
  O21      1.0000 0.72535  0.63170  0.14240  Biso   1.000  O
  O22      1.0000 0.59876  0.62720  0.63260  Biso   1.000  O
  O23      1.0000 0.49282  0.65410  0.01040  Biso   1.000  O
  O24      1.0000 0.78447  0.50570  0.06360  Biso   1.000  O
  O25      1.0000 0.65195  0.67880  0.78930  Biso   1.000  O
  O26      1.0000 0.82118  0.67338  0.07640  Biso   1.000  O
  O27      1.0000 0.68042  0.17470  0.90550  Biso   1.000  O
  O28      1.0000 0.59318  0.68860  0.95510  Biso   1.000  O
  O29      1.0000 0.66196  0.30850  0.78810  Biso   1.000  O
  O30      1.0000 0.71551  0.64490  0.66340  Biso   1.000  O
  O31      1.0000 0.59222  0.62520  0.11720  Biso   1.000  O
  O32      1.0000 0.66478  0.50900  0.74000  Biso   1.000  O
  P9       1.0000 0.94041  0.12051  0.48535  Biso   1.000  P
  P10      1.0000 0.82836  0.78464  0.60591  Biso   1.000  P
  P11      1.0000 0.73759  0.11092  0.43781  Biso   1.000  P
  P12      1.0000 0.84203  0.11435  0.79507  Biso   1.000  P
  Al9      1.0000 0.83833  0.20348  0.59108  Biso   1.000  Al
  Al10     1.0000 0.91626  0.89973  0.49208  Biso   1.000  Al
  Al11     1.0000 0.75392  0.89140  0.44047  Biso   1.000  Al
  Al12     1.0000 0.83985  0.10872  0.30333  Biso   1.000  Al
  F3       1.0000 0.83212  0.95530  0.47320  Biso   1.000  F
  O33      1.0000 0.77103  0.83740  0.55500  Biso   1.000  O
  O34      1.0000 0.93814  0.01800  0.52480  Biso   1.000  O
  O35      1.0000 0.77661  0.13550  0.53370  Biso   1.000  O
  O36      1.0000 0.88682  0.81290  0.56480  Biso   1.000  O
  O37      1.0000 0.77465  0.13170  0.35760  Biso   1.000  O
  O38      1.0000 0.90124  0.12720  0.86740  Biso   1.000  O
  O39      1.0000 0.00718  0.15410  0.48960  Biso   1.000  O
  O40      1.0000 0.71553  0.00570  0.43640  Biso   1.000  O
  O41      1.0000 0.84805  0.17880  0.71070  Biso   1.000  O
  O42      1.0000 0.67882  0.17338  0.42360  Biso   1.000  O
  O43      1.0000 0.81958  0.67470  0.59450  Biso   1.000  O
  O44      1.0000 0.90682  0.18860  0.54490  Biso   1.000  O
  O45      1.0000 0.83804  0.80850  0.71190  Biso   1.000  O
  O46      1.0000 0.78449  0.14490  0.83660  Biso   1.000  O
  O47      1.0000 0.90778  0.12520  0.38280  Biso   1.000  O
  O48      1.0000 0.83522  0.00900  0.76000  Biso   1.000  O
  P13      1.0000 0.44041  0.62051  0.48535  Biso   1.000  P
  P14      1.0000 0.32836  0.28464  0.60591  Biso   1.000  P
  P15      1.0000 0.23759  0.61092  0.43781  Biso   1.000  P
  P16      1.0000 0.34203  0.61435  0.79507  Biso   1.000  P
  Al13     1.0000 0.33833  0.70348  0.59108  Biso   1.000  Al
  Al14     1.0000 0.41626  0.39973  0.49208  Biso   1.000  Al
  Al15     1.0000 0.25392  0.39140  0.44047  Biso   1.000  Al
  Al16     1.0000 0.33985  0.60872  0.30333  Biso   1.000  Al
  F4       1.0000 0.33212  0.45530  0.47320  Biso   1.000  F
  O49      1.0000 0.27103  0.33740  0.55500  Biso   1.000  O
  O50      1.0000 0.43814  0.51800  0.52480  Biso   1.000  O
  O51      1.0000 0.27661  0.63550  0.53370  Biso   1.000  O
  O52      1.0000 0.38682  0.31290  0.56480  Biso   1.000  O
  O53      1.0000 0.27465  0.63170  0.35760  Biso   1.000  O
  O54      1.0000 0.40124  0.62720  0.86740  Biso   1.000  O
  O55      1.0000 0.50718  0.65410  0.48960  Biso   1.000  O
  O56      1.0000 0.21553  0.50570  0.43640  Biso   1.000  O
  O57      1.0000 0.34805  0.67880  0.71070  Biso   1.000  O
  O58      1.0000 0.17882  0.67338  0.42360  Biso   1.000  O
  O59      1.0000 0.31958  0.17470  0.59450  Biso   1.000  O
  O60      1.0000 0.40682  0.68860  0.54490  Biso   1.000  O
  O61      1.0000 0.33804  0.30850  0.71190  Biso   1.000  O
  O62      1.0000 0.28449  0.64490  0.83660  Biso   1.000  O
  O63      1.0000 0.40778  0.62520  0.38280  Biso   1.000  O
  O64      1.0000 0.33522  0.50900  0.76000  Biso   1.000  O
  P17      1.0000 0.94041  0.87949  0.98535  Biso   1.000  P
  P18      1.0000 0.82836  0.21536  0.10591  Biso   1.000  P
  P19      1.0000 0.73759  0.88908  0.93781  Biso   1.000  P
  P20      1.0000 0.84203  0.88565  0.29507  Biso   1.000  P
  Al17     1.0000 0.83833  0.79652  0.09108  Biso   1.000  Al
  Al18     1.0000 0.91626  0.10027  0.99208  Biso   1.000  Al
  Al19     1.0000 0.75392  0.10860  0.94047  Biso   1.000  Al
  Al20     1.0000 0.83985  0.89128  0.80333  Biso   1.000  Al
  F5       1.0000 0.83212  0.04470  0.97320  Biso   1.000  F
  O65      1.0000 0.77103  0.16260  0.05500  Biso   1.000  O
  O66      1.0000 0.93814  0.98200  0.02480  Biso   1.000  O
  O67      1.0000 0.77661  0.86450  0.03370  Biso   1.000  O
  O68      1.0000 0.88682  0.18710  0.06480  Biso   1.000  O
  O69      1.0000 0.77465  0.86830  0.85760  Biso   1.000  O
  O70      1.0000 0.90124  0.87280  0.36740  Biso   1.000  O
  O71      1.0000 0.00718  0.84590  0.98960  Biso   1.000  O
  O72      1.0000 0.71553  0.99430  0.93640  Biso   1.000  O
  O73      1.0000 0.84805  0.82120  0.21070  Biso   1.000  O
  O74      1.0000 0.67882  0.82662  0.92360  Biso   1.000  O
  O75      1.0000 0.81958  0.32530  0.09450  Biso   1.000  O
  O76      1.0000 0.90682  0.81140  0.04490  Biso   1.000  O
  O77      1.0000 0.83804  0.19150  0.21190  Biso   1.000  O
  O78      1.0000 0.78449  0.85510  0.33660  Biso   1.000  O
  O79      1.0000 0.90778  0.87480  0.88280  Biso   1.000  O
  O80      1.0000 0.83522  0.99100  0.26000  Biso   1.000  O
  P21      1.0000 0.44041  0.37949  0.98535  Biso   1.000  P
  P22      1.0000 0.32836  0.71536  0.10591  Biso   1.000  P
  P23      1.0000 0.23759  0.38908  0.93781  Biso   1.000  P
  P24      1.0000 0.34203  0.38565  0.29507  Biso   1.000  P
  Al21     1.0000 0.33833  0.29652  0.09108  Biso   1.000  Al
  Al22     1.0000 0.41626  0.60027  0.99208  Biso   1.000  Al
  Al23     1.0000 0.25392  0.60860  0.94047  Biso   1.000  Al
  Al24     1.0000 0.33985  0.39128  0.80333  Biso   1.000  Al
  F6       1.0000 0.33212  0.54470  0.97320  Biso   1.000  F
  O81      1.0000 0.27103  0.66260  0.05500  Biso   1.000  O
  O82      1.0000 0.43814  0.48200  0.02480  Biso   1.000  O
  O83      1.0000 0.27661  0.36450  0.03370  Biso   1.000  O
  O84      1.0000 0.38682  0.68710  0.06480  Biso   1.000  O
  O85      1.0000 0.27465  0.36830  0.85760  Biso   1.000  O
  O86      1.0000 0.40124  0.37280  0.36740  Biso   1.000  O
  O87      1.0000 0.50718  0.34590  0.98960  Biso   1.000  O
  O88      1.0000 0.21553  0.49430  0.93640  Biso   1.000  O
  O89      1.0000 0.34805  0.32120  0.21070  Biso   1.000  O
  O90      1.0000 0.17882  0.32662  0.92360  Biso   1.000  O
  O91      1.0000 0.31958  0.82530  0.09450  Biso   1.000  O
  O92      1.0000 0.40682  0.31140  0.04490  Biso   1.000  O
  O93      1.0000 0.33804  0.69150  0.21190  Biso   1.000  O
  O94      1.0000 0.28449  0.35510  0.33660  Biso   1.000  O
  O95      1.0000 0.40778  0.37480  0.88280  Biso   1.000  O
  O96      1.0000 0.33522  0.49100  0.26000  Biso   1.000  O
  P25      1.0000 0.05959  0.87949  0.51465  Biso   1.000  P
  P26      1.0000 0.17164  0.21536  0.39409  Biso   1.000  P
  P27      1.0000 0.26241  0.88908  0.56219  Biso   1.000  P
  P28      1.0000 0.15797  0.88565  0.20493  Biso   1.000  P
  Al25     1.0000 0.16167  0.79652  0.40892  Biso   1.000  Al
  Al26     1.0000 0.08374  0.10027  0.50792  Biso   1.000  Al
  Al27     1.0000 0.24608  0.10860  0.55953  Biso   1.000  Al
  Al28     1.0000 0.16015  0.89128  0.69667  Biso   1.000  Al
  F7       1.0000 0.16788  0.04470  0.52680  Biso   1.000  F
  O97      1.0000 0.22897  0.16260  0.44500  Biso   1.000  O
  O98      1.0000 0.06186  0.98200  0.47520  Biso   1.000  O
  O99      1.0000 0.22339  0.86450  0.46630  Biso   1.000  O
  O100     1.0000 0.11318  0.18710  0.43520  Biso   1.000  O
  O101     1.0000 0.22535  0.86830  0.64240  Biso   1.000  O
  O102     1.0000 0.09876  0.87280  0.13260  Biso   1.000  O
  O103     1.0000 0.99282  0.84590  0.51040  Biso   1.000  O
  O104     1.0000 0.28447  0.99430  0.56360  Biso   1.000  O
  O105     1.0000 0.15195  0.82120  0.28930  Biso   1.000  O
  O106     1.0000 0.32118  0.82662  0.57640  Biso   1.000  O
  O107     1.0000 0.18042  0.32530  0.40550  Biso   1.000  O
  O108     1.0000 0.09318  0.81140  0.45510  Biso   1.000  O
  O109     1.0000 0.16196  0.19150  0.28810  Biso   1.000  O
  O110     1.0000 0.21551  0.85510  0.16340  Biso   1.000  O
  O111     1.0000 0.09222  0.87480  0.61720  Biso   1.000  O
  O112     1.0000 0.16478  0.99100  0.24000  Biso   1.000  O
  P29      1.0000 0.55959  0.37949  0.51465  Biso   1.000  P
  P30      1.0000 0.67164  0.71536  0.39409  Biso   1.000  P
  P31      1.0000 0.76241  0.38908  0.56219  Biso   1.000  P
  P32      1.0000 0.65797  0.38565  0.20493  Biso   1.000  P
  Al29     1.0000 0.66167  0.29652  0.40892  Biso   1.000  Al
  Al30     1.0000 0.58374  0.60027  0.50792  Biso   1.000  Al
  Al31     1.0000 0.74608  0.60860  0.55953  Biso   1.000  Al
  Al32     1.0000 0.66015  0.39128  0.69667  Biso   1.000  Al
  F8       1.0000 0.66788  0.54470  0.52680  Biso   1.000  F
  O113     1.0000 0.72897  0.66260  0.44500  Biso   1.000  O
  O114     1.0000 0.56186  0.48200  0.47520  Biso   1.000  O
  O115     1.0000 0.72339  0.36450  0.46630  Biso   1.000  O
  O116     1.0000 0.61318  0.68710  0.43520  Biso   1.000  O
  O117     1.0000 0.72535  0.36830  0.64240  Biso   1.000  O
  O118     1.0000 0.59876  0.37280  0.13260  Biso   1.000  O
  O119     1.0000 0.49282  0.34590  0.51040  Biso   1.000  O
  O120     1.0000 0.78447  0.49430  0.56360  Biso   1.000  O
  O121     1.0000 0.65195  0.32120  0.28930  Biso   1.000  O
  O122     1.0000 0.82118  0.32662  0.57640  Biso   1.000  O
  O123     1.0000 0.68042  0.82530  0.40550  Biso   1.000  O
  O124     1.0000 0.59318  0.31140  0.45510  Biso   1.000  O
  O125     1.0000 0.66196  0.69150  0.28810  Biso   1.000  O
  O126     1.0000 0.71551  0.35510  0.16340  Biso   1.000  O
  O127     1.0000 0.59222  0.37480  0.61720  Biso   1.000  O
  O128     1.0000 0.66478  0.49100  0.24000  Biso   1.000  O
