data_image0
_cell_length_a       19.275
_cell_length_b       19.275
_cell_length_c       13.123
_cell_angle_alpha    90
_cell_angle_beta     90
_cell_angle_gamma    120

_symmetry_space_group_name_H-M    "P 1"
_symmetry_int_tables_number       1

loop_
  _symmetry_equiv_pos_as_xyz
  'x, y, z'

loop_
  _atom_site_label
  _atom_site_occupancy
  _atom_site_fract_x
  _atom_site_fract_y
  _atom_site_fract_z
  _atom_site_thermal_displace_type
  _atom_site_B_iso_or_equiv
  _atom_site_type_symbol
  I1       1.0000 0.29947  0.52021  0.68535  Biso   1.000  I
  Cu1      1.0000 0.40034  0.64565  0.57622  Biso   1.000  Cu
  N1       1.0000 0.48400  0.62170  0.52140  Biso   1.000  N
  C1       1.0000 0.55570  0.64920  0.56680  Biso   1.000  C
  H1       1.0000 0.56410  0.67440  0.63140  Biso   1.000  H
  C2       1.0000 0.53320  0.57700  0.38220  Biso   1.000  C
  C3       1.0000 0.47420  0.58650  0.43140  Biso   1.000  C
  H2       1.0000 0.42390  0.56640  0.39840  Biso   1.000  H
  C4       1.0000 0.61620  0.64260  0.52550  Biso   1.000  C
  H3       1.0000 0.66560  0.66230  0.56060  Biso   1.000  H
  N2       1.0000 0.52610  0.59210  0.18900  Biso   1.000  N
  C5       1.0000 0.51800  0.53890  0.27510  Biso   1.000  C
  H4       1.0000 0.55590  0.51900  0.26420  Biso   1.000  H
  H5       1.0000 0.46320  0.49190  0.27370  Biso   1.000  H
  C6       1.0000 0.46630  0.61700  0.18500  Biso   1.000  C
  H6       1.0000 0.47880  0.65380  0.12650  Biso   1.000  H
  H7       1.0000 0.47110  0.64770  0.24770  Biso   1.000  H
  C7       1.0000 0.38310  0.55250  0.17550  Biso   1.000  C
  H8       1.0000 0.36780  0.51740  0.23630  Biso   1.000  H
  H9       1.0000 0.34730  0.57540  0.17160  Biso   1.000  H
  C8       1.0000 0.60480  0.60600  0.42910  Biso   1.000  C
  H10      1.0000 0.64690  0.60180  0.39770  Biso   1.000  H
  C9       1.0000 0.60720  0.66360  0.18160  Biso   1.000  C
  C10      1.0000 0.67030  0.64750  0.15690  Biso   1.000  C
  H11      1.0000 0.67220  0.61090  0.20850  Biso   1.000  H
  H12      1.0000 0.72240  0.69810  0.15800  Biso   1.000  H
  O1       1.0000 0.37410  0.50670  0.08610  Biso   1.000  O
  O2       1.0000 0.65670  0.61040  0.05460  Biso   1.000  O
  C11      1.0000 0.71170  0.58510  0.03570  Biso   1.000  C
  H13      1.0000 0.70140  0.54070  0.08240  Biso   1.000  H
  H14      1.0000 0.76660  0.62980  0.04880  Biso   1.000  H
  C12      1.0000 0.29470  0.44230  0.07220  Biso   1.000  C
  H15      1.0000 0.25560  0.46040  0.08540  Biso   1.000  H
  H16      1.0000 0.28350  0.39800  0.11970  Biso   1.000  H
  O3       1.0000 0.50240  0.63200  0.89900  Biso   1.000  O
  Cu2      1.0000 0.45160  0.68940  0.84950  Biso   1.000  Cu
  I2       1.0000 0.56890  0.67650  0.87200  Biso   1.000  I
  I3       1.0000 0.47979  0.77926  0.68535  Biso   1.000  I
  Cu3      1.0000 0.35435  0.75469  0.57622  Biso   1.000  Cu
  N3       1.0000 0.37830  0.86230  0.52140  Biso   1.000  N
  C13      1.0000 0.35080  0.90650  0.56680  Biso   1.000  C
  H17      1.0000 0.32560  0.88970  0.63140  Biso   1.000  H
  C14      1.0000 0.42300  0.95620  0.38220  Biso   1.000  C
  C15      1.0000 0.41350  0.88770  0.43140  Biso   1.000  C
  H18      1.0000 0.43360  0.85750  0.39840  Biso   1.000  H
  C16      1.0000 0.35740  0.97360  0.52550  Biso   1.000  C
  H19      1.0000 0.33770  0.00330  0.56060  Biso   1.000  H
  N4       1.0000 0.40790  0.93400  0.18900  Biso   1.000  N
  C17      1.0000 0.46110  0.97910  0.27510  Biso   1.000  C
  H20      1.0000 0.48100  0.03690  0.26420  Biso   1.000  H
  H21      1.0000 0.50810  0.97130  0.27370  Biso   1.000  H
  C18      1.0000 0.38300  0.84930  0.18500  Biso   1.000  C
  H22      1.0000 0.34620  0.82500  0.12650  Biso   1.000  H
  H23      1.0000 0.35230  0.82340  0.24770  Biso   1.000  H
  C19      1.0000 0.44750  0.83060  0.17550  Biso   1.000  C
  H24      1.0000 0.48260  0.85040  0.23630  Biso   1.000  H
  H25      1.0000 0.42460  0.77190  0.17160  Biso   1.000  H
  C20      1.0000 0.39400  0.99880  0.42910  Biso   1.000  C
  H26      1.0000 0.39820  0.04510  0.39770  Biso   1.000  H
  C21      1.0000 0.33640  0.94360  0.18160  Biso   1.000  C
  C22      1.0000 0.35250  0.02280  0.15690  Biso   1.000  C
  H27      1.0000 0.38910  0.06130  0.20850  Biso   1.000  H
  H28      1.0000 0.30190  0.02430  0.15800  Biso   1.000  H
  O4       1.0000 0.49330  0.86740  0.08610  Biso   1.000  O
  O5       1.0000 0.38960  0.04630  0.05460  Biso   1.000  O
  C23      1.0000 0.41490  0.12660  0.03570  Biso   1.000  C
  H29      1.0000 0.45930  0.16070  0.08240  Biso   1.000  H
  H30      1.0000 0.37020  0.13680  0.04880  Biso   1.000  H
  C24      1.0000 0.55770  0.85240  0.07220  Biso   1.000  C
  H31      1.0000 0.53960  0.79520  0.08540  Biso   1.000  H
  H32      1.0000 0.60200  0.88550  0.11970  Biso   1.000  H
  O6       1.0000 0.36800  0.87040  0.89900  Biso   1.000  O
  Cu4      1.0000 0.31060  0.76220  0.84950  Biso   1.000  Cu
  I4       1.0000 0.32350  0.89240  0.87200  Biso   1.000  I
  I5       1.0000 0.22074  0.70053  0.68535  Biso   1.000  I
  Cu5      1.0000 0.24531  0.59966  0.57622  Biso   1.000  Cu
  N5       1.0000 0.13770  0.51600  0.52140  Biso   1.000  N
  C25      1.0000 0.09350  0.44430  0.56680  Biso   1.000  C
  H33      1.0000 0.11030  0.43590  0.63140  Biso   1.000  H
  C26      1.0000 0.04380  0.46680  0.38220  Biso   1.000  C
  C27      1.0000 0.11230  0.52580  0.43140  Biso   1.000  C
  H34      1.0000 0.14250  0.57610  0.39840  Biso   1.000  H
  C28      1.0000 0.02640  0.38380  0.52550  Biso   1.000  C
  H35      1.0000 0.99670  0.33440  0.56060  Biso   1.000  H
  N6       1.0000 0.06600  0.47390  0.18900  Biso   1.000  N
  C29      1.0000 0.02090  0.48200  0.27510  Biso   1.000  C
  H36      1.0000 0.96310  0.44410  0.26420  Biso   1.000  H
  H37      1.0000 0.02870  0.53680  0.27370  Biso   1.000  H
  C30      1.0000 0.15070  0.53370  0.18500  Biso   1.000  C
  H38      1.0000 0.17500  0.52120  0.12650  Biso   1.000  H
  H39      1.0000 0.17660  0.52890  0.24770  Biso   1.000  H
  C31      1.0000 0.16940  0.61690  0.17550  Biso   1.000  C
  H40      1.0000 0.14960  0.63220  0.23630  Biso   1.000  H
  H41      1.0000 0.22810  0.65270  0.17160  Biso   1.000  H
  C32      1.0000 0.00120  0.39520  0.42910  Biso   1.000  C
  H42      1.0000 0.95490  0.35310  0.39770  Biso   1.000  H
  C33      1.0000 0.05640  0.39280  0.18160  Biso   1.000  C
  C34      1.0000 0.97720  0.32970  0.15690  Biso   1.000  C
  H43      1.0000 0.93870  0.32780  0.20850  Biso   1.000  H
  H44      1.0000 0.97570  0.27760  0.15800  Biso   1.000  H
  O7       1.0000 0.13260  0.62590  0.08610  Biso   1.000  O
  O8       1.0000 0.95370  0.34330  0.05460  Biso   1.000  O
  C35      1.0000 0.87340  0.28830  0.03570  Biso   1.000  C
  H45      1.0000 0.83930  0.29860  0.08240  Biso   1.000  H
  H46      1.0000 0.86320  0.23340  0.04880  Biso   1.000  H
  C36      1.0000 0.14760  0.70530  0.07220  Biso   1.000  C
  H47      1.0000 0.20480  0.74440  0.08540  Biso   1.000  H
  H48      1.0000 0.11450  0.71650  0.11970  Biso   1.000  H
  O9       1.0000 0.12960  0.49760  0.89900  Biso   1.000  O
  Cu6      1.0000 0.23780  0.54840  0.84950  Biso   1.000  Cu
  I6       1.0000 0.10760  0.43110  0.87200  Biso   1.000  I
  I7       1.0000 0.70053  0.47979  0.31465  Biso   1.000  I
  Cu7      1.0000 0.59966  0.35435  0.42378  Biso   1.000  Cu
  N7       1.0000 0.51600  0.37830  0.47860  Biso   1.000  N
  C37      1.0000 0.44430  0.35080  0.43320  Biso   1.000  C
  H49      1.0000 0.43590  0.32560  0.36860  Biso   1.000  H
  C38      1.0000 0.46680  0.42300  0.61780  Biso   1.000  C
  C39      1.0000 0.52580  0.41350  0.56860  Biso   1.000  C
  H50      1.0000 0.57610  0.43360  0.60160  Biso   1.000  H
  C40      1.0000 0.38380  0.35740  0.47450  Biso   1.000  C
  H51      1.0000 0.33440  0.33770  0.43940  Biso   1.000  H
  N8       1.0000 0.47390  0.40790  0.81100  Biso   1.000  N
  C41      1.0000 0.48200  0.46110  0.72490  Biso   1.000  C
  H52      1.0000 0.44410  0.48100  0.73580  Biso   1.000  H
  H53      1.0000 0.53680  0.50810  0.72630  Biso   1.000  H
  C42      1.0000 0.53370  0.38300  0.81500  Biso   1.000  C
  H54      1.0000 0.52120  0.34620  0.87350  Biso   1.000  H
  H55      1.0000 0.52890  0.35230  0.75230  Biso   1.000  H
  C43      1.0000 0.61690  0.44750  0.82450  Biso   1.000  C
  H56      1.0000 0.63220  0.48260  0.76370  Biso   1.000  H
  H57      1.0000 0.65270  0.42460  0.82840  Biso   1.000  H
  C44      1.0000 0.39520  0.39400  0.57090  Biso   1.000  C
  H58      1.0000 0.35310  0.39820  0.60230  Biso   1.000  H
  C45      1.0000 0.39280  0.33640  0.81840  Biso   1.000  C
  C46      1.0000 0.32970  0.35250  0.84310  Biso   1.000  C
  H59      1.0000 0.32780  0.38910  0.79150  Biso   1.000  H
  H60      1.0000 0.27760  0.30190  0.84200  Biso   1.000  H
  O10      1.0000 0.62590  0.49330  0.91390  Biso   1.000  O
  O11      1.0000 0.34330  0.38960  0.94540  Biso   1.000  O
  C47      1.0000 0.28830  0.41490  0.96430  Biso   1.000  C
  H61      1.0000 0.29860  0.45930  0.91760  Biso   1.000  H
  H62      1.0000 0.23340  0.37020  0.95120  Biso   1.000  H
  C48      1.0000 0.70530  0.55770  0.92780  Biso   1.000  C
  H63      1.0000 0.74440  0.53960  0.91460  Biso   1.000  H
  H64      1.0000 0.71650  0.60200  0.88030  Biso   1.000  H
  O12      1.0000 0.49760  0.36800  0.10100  Biso   1.000  O
  Cu8      1.0000 0.54840  0.31060  0.15050  Biso   1.000  Cu
  I8       1.0000 0.43110  0.32350  0.12800  Biso   1.000  I
  I9       1.0000 0.52021  0.22074  0.31465  Biso   1.000  I
  Cu9      1.0000 0.64565  0.24531  0.42378  Biso   1.000  Cu
  N9       1.0000 0.62170  0.13770  0.47860  Biso   1.000  N
  C49      1.0000 0.64920  0.09350  0.43320  Biso   1.000  C
  H65      1.0000 0.67440  0.11030  0.36860  Biso   1.000  H
  C50      1.0000 0.57700  0.04380  0.61780  Biso   1.000  C
  C51      1.0000 0.58650  0.11230  0.56860  Biso   1.000  C
  H66      1.0000 0.56640  0.14250  0.60160  Biso   1.000  H
  C52      1.0000 0.64260  0.02640  0.47450  Biso   1.000  C
  H67      1.0000 0.66230  0.99670  0.43940  Biso   1.000  H
  N10      1.0000 0.59210  0.06600  0.81100  Biso   1.000  N
  C53      1.0000 0.53890  0.02090  0.72490  Biso   1.000  C
  H68      1.0000 0.51900  0.96310  0.73580  Biso   1.000  H
  H69      1.0000 0.49190  0.02870  0.72630  Biso   1.000  H
  C54      1.0000 0.61700  0.15070  0.81500  Biso   1.000  C
  H70      1.0000 0.65380  0.17500  0.87350  Biso   1.000  H
  H71      1.0000 0.64770  0.17660  0.75230  Biso   1.000  H
  C55      1.0000 0.55250  0.16940  0.82450  Biso   1.000  C
  H72      1.0000 0.51740  0.14960  0.76370  Biso   1.000  H
  H73      1.0000 0.57540  0.22810  0.82840  Biso   1.000  H
  C56      1.0000 0.60600  0.00120  0.57090  Biso   1.000  C
  H74      1.0000 0.60180  0.95490  0.60230  Biso   1.000  H
  C57      1.0000 0.66360  0.05640  0.81840  Biso   1.000  C
  C58      1.0000 0.64750  0.97720  0.84310  Biso   1.000  C
  H75      1.0000 0.61090  0.93870  0.79150  Biso   1.000  H
  H76      1.0000 0.69810  0.97570  0.84200  Biso   1.000  H
  O13      1.0000 0.50670  0.13260  0.91390  Biso   1.000  O
  O14      1.0000 0.61040  0.95370  0.94540  Biso   1.000  O
  C59      1.0000 0.58510  0.87340  0.96430  Biso   1.000  C
  H77      1.0000 0.54070  0.83930  0.91760  Biso   1.000  H
  H78      1.0000 0.62980  0.86320  0.95120  Biso   1.000  H
  C60      1.0000 0.44230  0.14760  0.92780  Biso   1.000  C
  H79      1.0000 0.46040  0.20480  0.91460  Biso   1.000  H
  H80      1.0000 0.39800  0.11450  0.88030  Biso   1.000  H
  O15      1.0000 0.63200  0.12960  0.10100  Biso   1.000  O
  Cu10     1.0000 0.68940  0.23780  0.15050  Biso   1.000  Cu
  I10      1.0000 0.67650  0.10760  0.12800  Biso   1.000  I
  I11      1.0000 0.77926  0.29947  0.31465  Biso   1.000  I
  Cu11     1.0000 0.75469  0.40034  0.42378  Biso   1.000  Cu
  N11      1.0000 0.86230  0.48400  0.47860  Biso   1.000  N
  C61      1.0000 0.90650  0.55570  0.43320  Biso   1.000  C
  H81      1.0000 0.88970  0.56410  0.36860  Biso   1.000  H
  C62      1.0000 0.95620  0.53320  0.61780  Biso   1.000  C
  C63      1.0000 0.88770  0.47420  0.56860  Biso   1.000  C
  H82      1.0000 0.85750  0.42390  0.60160  Biso   1.000  H
  C64      1.0000 0.97360  0.61620  0.47450  Biso   1.000  C
  H83      1.0000 0.00330  0.66560  0.43940  Biso   1.000  H
  N12      1.0000 0.93400  0.52610  0.81100  Biso   1.000  N
  C65      1.0000 0.97910  0.51800  0.72490  Biso   1.000  C
  H84      1.0000 0.03690  0.55590  0.73580  Biso   1.000  H
  H85      1.0000 0.97130  0.46320  0.72630  Biso   1.000  H
  C66      1.0000 0.84930  0.46630  0.81500  Biso   1.000  C
  H86      1.0000 0.82500  0.47880  0.87350  Biso   1.000  H
  H87      1.0000 0.82340  0.47110  0.75230  Biso   1.000  H
  C67      1.0000 0.83060  0.38310  0.82450  Biso   1.000  C
  H88      1.0000 0.85040  0.36780  0.76370  Biso   1.000  H
  H89      1.0000 0.77190  0.34730  0.82840  Biso   1.000  H
  C68      1.0000 0.99880  0.60480  0.57090  Biso   1.000  C
  H90      1.0000 0.04510  0.64690  0.60230  Biso   1.000  H
  C69      1.0000 0.94360  0.60720  0.81840  Biso   1.000  C
  C70      1.0000 0.02280  0.67030  0.84310  Biso   1.000  C
  H91      1.0000 0.06130  0.67220  0.79150  Biso   1.000  H
  H92      1.0000 0.02430  0.72240  0.84200  Biso   1.000  H
  O16      1.0000 0.86740  0.37410  0.91390  Biso   1.000  O
  O17      1.0000 0.04630  0.65670  0.94540  Biso   1.000  O
  C71      1.0000 0.12660  0.71170  0.96430  Biso   1.000  C
  H93      1.0000 0.16070  0.70140  0.91760  Biso   1.000  H
  H94      1.0000 0.13680  0.76660  0.95120  Biso   1.000  H
  C72      1.0000 0.85240  0.29470  0.92780  Biso   1.000  C
  H95      1.0000 0.79520  0.25560  0.91460  Biso   1.000  H
  H96      1.0000 0.88550  0.28350  0.88030  Biso   1.000  H
  O18      1.0000 0.87040  0.50240  0.10100  Biso   1.000  O
  Cu12     1.0000 0.76220  0.45160  0.15050  Biso   1.000  Cu
  I12      1.0000 0.89240  0.56890  0.12800  Biso   1.000  I
  I13      1.0000 0.33333  0.66667  0.40693  Biso   1.000  I
  Cu13     1.0000 0.33333  0.66667  0.74913  Biso   1.000  Cu
  I14      1.0000 0.33333  0.66667  0.94872  Biso   1.000  I
  I15      1.0000 0.66667  0.33333  0.59307  Biso   1.000  I
  Cu14     1.0000 0.66667  0.33333  0.25087  Biso   1.000  Cu
  I16      1.0000 0.66667  0.33333  0.05128  Biso   1.000  I
  K1       1.0000 0.50000  0.50000  0.00000  Biso   1.000  K
  K2       1.0000 0.50000  0.00000  0.00000  Biso   1.000  K
  K3       1.0000 0.00000  0.50000  0.00000  Biso   1.000  K
