data_image0
_cell_length_a       12.287
_cell_length_b       12.916
_cell_length_c       18.199
_cell_angle_alpha    86.733
_cell_angle_beta     70.443
_cell_angle_gamma    80.146

_symmetry_space_group_name_H-M    P 1
_symmetry_int_tables_number       1

loop_
  _symmetry_equiv_pos_as_xyz
  'x, y, z'

loop_
  _atom_site_label
  _atom_site_occupancy
  _atom_site_fract_x
  _atom_site_fract_y
  _atom_site_fract_z
  _atom_site_thermal_displace_type
  _atom_site_B_iso_or_equiv
  _atom_site_type_symbol
  Cu1      1.0000 0.47070  0.36855  0.83854  Biso   1.000  Cu
  Cu2      1.0000 0.72428  0.22262  0.83746  Biso   1.000  Cu
  Cu3      1.0000 0.64441  0.25428  0.67521  Biso   1.000  Cu
  Cu4      1.0000 0.52930  0.63145  0.16146  Biso   1.000  Cu
  Cu5      1.0000 0.27572  0.77738  0.16254  Biso   1.000  Cu
  Cu6      1.0000 0.35559  0.74572  0.32479  Biso   1.000  Cu
  H1       1.0000 0.25430  0.27190  0.89970  Biso   1.000  H
  H2       1.0000 0.05620  0.32340  0.96520  Biso   1.000  H
  H3       1.0000 0.11110  0.61900  0.97680  Biso   1.000  H
  H4       1.0000 0.30920  0.56750  0.91120  Biso   1.000  H
  H5       1.0000 0.48470  0.10900  0.69480  Biso   1.000  H
  H6       1.0000 0.42050  0.00110  0.62580  Biso   1.000  H
  H7       1.0000 0.64120  0.09410  0.42480  Biso   1.000  H
  H8       1.0000 0.70540  0.20210  0.49380  Biso   1.000  H
  H9       1.0000 0.91350  0.22540  0.56200  Biso   1.000  H
  H10      1.0000 0.05930  0.32510  0.50170  Biso   1.000  H
  H11      1.0000 0.81960  0.58790  0.54800  Biso   1.000  H
  H12      1.0000 0.67380  0.48820  0.60830  Biso   1.000  H
  H13      1.0000 0.81220  0.04040  0.58700  Biso   1.000  H
  H14      1.0000 0.94470  0.03020  0.76480  Biso   1.000  H
  H15      1.0000 0.69430  0.26820  0.02060  Biso   1.000  H
  H16      1.0000 0.37370  0.42120  0.02580  Biso   1.000  H
  H17      1.0000 0.67400  0.38000  0.76300  Biso   1.000  H
  H18      1.0000 0.29250  0.51220  0.76650  Biso   1.000  H
  H19      1.0000 0.50730  0.39890  0.56130  Biso   1.000  H
  H20      1.0000 0.73030  0.04290  0.92900  Biso   1.000  H
  H21      1.0000 0.82230  0.95260  0.01370  Biso   1.000  H
  H22      1.0000 0.07510  0.12070  0.91690  Biso   1.000  H
  H23      1.0000 0.93440  0.24020  0.88050  Biso   1.000  H
  H24      1.0000 0.74570  0.72810  0.10030  Biso   1.000  H
  H25      1.0000 0.94380  0.67660  0.03480  Biso   1.000  H
  H26      1.0000 0.88890  0.38100  0.02320  Biso   1.000  H
  H27      1.0000 0.69080  0.43250  0.08880  Biso   1.000  H
  H28      1.0000 0.51530  0.89100  0.30520  Biso   1.000  H
  H29      1.0000 0.57950  0.99890  0.37420  Biso   1.000  H
  H30      1.0000 0.35880  0.90590  0.57520  Biso   1.000  H
  H31      1.0000 0.29460  0.79790  0.50620  Biso   1.000  H
  H32      1.0000 0.08650  0.77460  0.43800  Biso   1.000  H
  H33      1.0000 0.94070  0.67490  0.49830  Biso   1.000  H
  H34      1.0000 0.18040  0.41210  0.45200  Biso   1.000  H
  H35      1.0000 0.32620  0.51180  0.39170  Biso   1.000  H
  H36      1.0000 0.18780  0.95960  0.41300  Biso   1.000  H
  H37      1.0000 0.05530  0.96980  0.23520  Biso   1.000  H
  H38      1.0000 0.30570  0.73180  0.97940  Biso   1.000  H
  H39      1.0000 0.62630  0.57880  0.97420  Biso   1.000  H
  H40      1.0000 0.32600  0.62000  0.23700  Biso   1.000  H
  H41      1.0000 0.70750  0.48780  0.23350  Biso   1.000  H
  H42      1.0000 0.49270  0.60110  0.43870  Biso   1.000  H
  H43      1.0000 0.26970  0.95710  0.07100  Biso   1.000  H
  H44      1.0000 0.17770  0.04740  0.98630  Biso   1.000  H
  H45      1.0000 0.92490  0.87930  0.08310  Biso   1.000  H
  H46      1.0000 0.06560  0.75980  0.11950  Biso   1.000  H
  C1       1.0000 0.22560  0.34150  0.91510  Biso   1.000  C
  C2       1.0000 0.10690  0.37230  0.95440  Biso   1.000  C
  C3       1.0000 0.06400  0.47630  0.97750  Biso   1.000  C
  C4       1.0000 0.13980  0.54950  0.96130  Biso   1.000  C
  C5       1.0000 0.25850  0.51860  0.92200  Biso   1.000  C
  C6       1.0000 0.51610  0.10600  0.64070  Biso   1.000  C
  C7       1.0000 0.47760  0.04140  0.59930  Biso   1.000  C
  C8       1.0000 0.52450  0.03690  0.51850  Biso   1.000  C
  C9       1.0000 0.60980  0.09710  0.47890  Biso   1.000  C
  C10      1.0000 0.64830  0.16180  0.52030  Biso   1.000  C
  C11      1.0000 0.89470  0.29800  0.55920  Biso   1.000  C
  C12      1.0000 0.98200  0.35780  0.52310  Biso   1.000  C
  C13      1.0000 0.95390  0.46640  0.51880  Biso   1.000  C
  C14      1.0000 0.83840  0.51520  0.55080  Biso   1.000  C
  C15      1.0000 0.75110  0.45550  0.58690  Biso   1.000  C
  C16      1.0000 0.82510  0.05690  0.63220  Biso   1.000  C
  C17      1.0000 0.90880  0.99950  0.66360  Biso   1.000  C
  C18      1.0000 0.90000  0.05120  0.73260  Biso   1.000  C
  C19      1.0000 0.63050  0.29720  0.00540  Biso   1.000  C
  C20      1.0000 0.52280  0.35270  0.05430  Biso   1.000  C
  C21      1.0000 0.44940  0.38370  0.00830  Biso   1.000  C
  C22      1.0000 0.35810  0.48070  0.72700  Biso   1.000  C
  C23      1.0000 0.37530  0.49600  0.64330  Biso   1.000  C
  C24      1.0000 0.47200  0.41500  0.61390  Biso   1.000  C
  C25      1.0000 0.79520  0.06600  0.93380  Biso   1.000  C
  C26      1.0000 0.85390  0.00700  0.98240  Biso   1.000  C
  C27      1.0000 0.96350  0.03360  0.98130  Biso   1.000  C
  C28      1.0000 0.99800  0.10900  0.93160  Biso   1.000  C
  C29      1.0000 0.91770  0.17400  0.90000  Biso   1.000  C
  C30      1.0000 0.77440  0.65850  0.08490  Biso   1.000  C
  C31      1.0000 0.89310  0.62770  0.04560  Biso   1.000  C
  C32      1.0000 0.93600  0.52370  0.02250  Biso   1.000  C
  C33      1.0000 0.86020  0.45050  0.03870  Biso   1.000  C
  C34      1.0000 0.74150  0.48140  0.07800  Biso   1.000  C
  C35      1.0000 0.48390  0.89400  0.35930  Biso   1.000  C
  C36      1.0000 0.52240  0.95860  0.40070  Biso   1.000  C
  C37      1.0000 0.47550  0.96310  0.48150  Biso   1.000  C
  C38      1.0000 0.39020  0.90290  0.52110  Biso   1.000  C
  C39      1.0000 0.35170  0.83820  0.47970  Biso   1.000  C
  C40      1.0000 0.10530  0.70200  0.44080  Biso   1.000  C
  C41      1.0000 0.01800  0.64220  0.47690  Biso   1.000  C
  C42      1.0000 0.04610  0.53360  0.48120  Biso   1.000  C
  C43      1.0000 0.16160  0.48480  0.44920  Biso   1.000  C
  C44      1.0000 0.24890  0.54450  0.41310  Biso   1.000  C
  C45      1.0000 0.17490  0.94310  0.36780  Biso   1.000  C
  C46      1.0000 0.09120  0.00050  0.33640  Biso   1.000  C
  C47      1.0000 0.10000  0.94880  0.26740  Biso   1.000  C
  C48      1.0000 0.36950  0.70280  0.99460  Biso   1.000  C
  C49      1.0000 0.47720  0.64730  0.94570  Biso   1.000  C
  C50      1.0000 0.55060  0.61630  0.99170  Biso   1.000  C
  C51      1.0000 0.64190  0.51930  0.27300  Biso   1.000  C
  C52      1.0000 0.62470  0.50400  0.35670  Biso   1.000  C
  C53      1.0000 0.52800  0.58500  0.38610  Biso   1.000  C
  C54      1.0000 0.20480  0.93400  0.06620  Biso   1.000  C
  C55      1.0000 0.14610  0.99300  0.01760  Biso   1.000  C
  C56      1.0000 0.03650  0.96640  0.01870  Biso   1.000  C
  C57      1.0000 0.00200  0.89100  0.06840  Biso   1.000  C
  C58      1.0000 0.08230  0.82600  0.10000  Biso   1.000  C
  N1       1.0000 0.30140  0.41460  0.89900  Biso   1.000  N
  N2       1.0000 0.60140  0.16620  0.60120  Biso   1.000  N
  N3       1.0000 0.77920  0.34690  0.59110  Biso   1.000  N
  N4       1.0000 0.81080  0.14050  0.74390  Biso   1.000  N
  N5       1.0000 0.76460  0.14410  0.68190  Biso   1.000  N
  N6       1.0000 0.51170  0.34740  0.93110  Biso   1.000  N
  N7       1.0000 0.62370  0.29390  0.92930  Biso   1.000  N
  N8       1.0000 0.51240  0.35920  0.67650  Biso   1.000  N
  N9       1.0000 0.44460  0.41810  0.73970  Biso   1.000  N
  N10      1.0000 0.82620  0.14720  0.89750  Biso   1.000  N
  N11      1.0000 0.69860  0.58540  0.10100  Biso   1.000  N
  N12      1.0000 0.39860  0.83380  0.39880  Biso   1.000  N
  N13      1.0000 0.22080  0.65310  0.40890  Biso   1.000  N
  N14      1.0000 0.18920  0.85950  0.25610  Biso   1.000  N
  N15      1.0000 0.23540  0.85590  0.31810  Biso   1.000  N
  N16      1.0000 0.48830  0.65260  0.06890  Biso   1.000  N
  N17      1.0000 0.37630  0.70610  0.07070  Biso   1.000  N
  N18      1.0000 0.48760  0.64080  0.32350  Biso   1.000  N
  N19      1.0000 0.55540  0.58190  0.26030  Biso   1.000  N
  N20      1.0000 0.17380  0.85280  0.10250  Biso   1.000  N
  Cl1      1.0000 0.48900  0.36850  0.15080  Biso   1.000  Cl
  Cl2      1.0000 0.00700  0.90060  0.61780  Biso   1.000  Cl
  Cl3      1.0000 0.29940  0.55830  0.59570  Biso   1.000  Cl
  Cl4      1.0000 0.51100  0.63150  0.84920  Biso   1.000  Cl
  Cl5      1.0000 0.99300  0.09940  0.38220  Biso   1.000  Cl
  Cl6      1.0000 0.70060  0.44170  0.40430  Biso   1.000  Cl
  O1       1.0000 0.63570  0.31770  0.77700  Biso   1.000  O
  O2       1.0000 0.36430  0.68230  0.22300  Biso   1.000  O
