data_image0
_cell_length_a       10.0406
_cell_length_b       11.2142
_cell_length_c       14.31
_cell_angle_alpha    87.454
_cell_angle_beta     84.296
_cell_angle_gamma    68.867

_symmetry_space_group_name_H-M    P 1
_symmetry_int_tables_number       1

loop_
  _symmetry_equiv_pos_as_xyz
  'x, y, z'

loop_
  _atom_site_label
  _atom_site_occupancy
  _atom_site_fract_x
  _atom_site_fract_y
  _atom_site_fract_z
  _atom_site_thermal_displace_type
  _atom_site_B_iso_or_equiv
  _atom_site_type_symbol
  Co1      1.0000 0.82873  0.06391  0.42017  Biso   1.000  Co
  Co2      1.0000 0.17127  0.93609  0.57983  Biso   1.000  Co
  Co3      1.0000 0.00000  0.50000  0.00000  Biso   1.000  Co
  H1       1.0000 0.62130  0.95300  0.58950  Biso   1.000  H
  H2       1.0000 0.52720  0.73060  0.79250  Biso   1.000  H
  H3       1.0000 0.91800  0.75810  0.76390  Biso   1.000  H
  H4       1.0000 0.09550  0.21290  0.97790  Biso   1.000  H
  H5       1.0000 0.25890  0.04130  0.89630  Biso   1.000  H
  H6       1.0000 0.43210  0.07440  0.78890  Biso   1.000  H
  H7       1.0000 0.24340  0.44880  0.83710  Biso   1.000  H
  H8       1.0000 0.61430  0.19470  0.58140  Biso   1.000  H
  H9       1.0000 0.85340  0.33760  0.41620  Biso   1.000  H
  H10      1.0000 0.59180  0.54910  0.62570  Biso   1.000  H
  H11      1.0000 0.04860  0.54370  0.27530  Biso   1.000  H
  H12      1.0000 0.13800  0.69400  0.20820  Biso   1.000  H
  H13      1.0000 0.05210  0.89840  0.26510  Biso   1.000  H
  H14      1.0000 0.78970  0.81040  0.45120  Biso   1.000  H
  H15      1.0000 0.52850  0.21510  0.71590  Biso   1.000  H
  H16      1.0000 0.87100  0.50530  0.37780  Biso   1.000  H
  H17      1.0000 0.77430  0.44890  0.99680  Biso   1.000  H
  H18      1.0000 0.88720  0.33560  0.97400  Biso   1.000  H
  H19      1.0000 0.37870  0.04700  0.41050  Biso   1.000  H
  H20      1.0000 0.47280  0.26940  0.20750  Biso   1.000  H
  H21      1.0000 0.08200  0.24190  0.23610  Biso   1.000  H
  H22      1.0000 0.90450  0.78710  0.02210  Biso   1.000  H
  H23      1.0000 0.74110  0.95870  0.10370  Biso   1.000  H
  H24      1.0000 0.56790  0.92560  0.21110  Biso   1.000  H
  H25      1.0000 0.75660  0.55120  0.16290  Biso   1.000  H
  H26      1.0000 0.38570  0.80530  0.41860  Biso   1.000  H
  H27      1.0000 0.14660  0.66240  0.58380  Biso   1.000  H
  H28      1.0000 0.40820  0.45090  0.37430  Biso   1.000  H
  H29      1.0000 0.95140  0.45630  0.72470  Biso   1.000  H
  H30      1.0000 0.86200  0.30600  0.79180  Biso   1.000  H
  H31      1.0000 0.94790  0.10160  0.73490  Biso   1.000  H
  H32      1.0000 0.21030  0.18960  0.54880  Biso   1.000  H
  H33      1.0000 0.47150  0.78490  0.28410  Biso   1.000  H
  H34      1.0000 0.12900  0.49470  0.62220  Biso   1.000  H
  H35      1.0000 0.22570  0.55110  0.00320  Biso   1.000  H
  H36      1.0000 0.11280  0.66440  0.02600  Biso   1.000  H
  C1       1.0000 0.89070  0.91680  0.61860  Biso   1.000  C
  C2       1.0000 0.78650  0.86510  0.66900  Biso   1.000  C
  C3       1.0000 0.64850  0.89730  0.64010  Biso   1.000  C
  C4       1.0000 0.55230  0.84730  0.68580  Biso   1.000  C
  C5       1.0000 0.40650  0.88070  0.65110  Biso   1.000  C
  C6       1.0000 0.59260  0.76320  0.76120  Biso   1.000  C
  C7       1.0000 0.72930  0.72760  0.78980  Biso   1.000  C
  C8       1.0000 0.77700  0.63300  0.86910  Biso   1.000  C
  C9       1.0000 0.82670  0.78020  0.74400  Biso   1.000  C
  C10      1.0000 0.16080  0.22710  0.93210  Biso   1.000  C
  C11      1.0000 0.26020  0.12310  0.88460  Biso   1.000  C
  C12      1.0000 0.36110  0.14290  0.81960  Biso   1.000  C
  C13      1.0000 0.35460  0.26590  0.80120  Biso   1.000  C
  C14      1.0000 0.24850  0.36540  0.85040  Biso   1.000  C
  C15      1.0000 0.46880  0.38750  0.69380  Biso   1.000  C
  C16      1.0000 0.58600  0.37300  0.61620  Biso   1.000  C
  C17      1.0000 0.64430  0.26270  0.56430  Biso   1.000  C
  C18      1.0000 0.78510  0.34650  0.46690  Biso   1.000  C
  C19      1.0000 0.73200  0.46180  0.51500  Biso   1.000  C
  C20      1.0000 0.62960  0.47360  0.59170  Biso   1.000  C
  C21      1.0000 0.78290  0.56900  0.48870  Biso   1.000  C
  C22      1.0000 0.90900  0.66240  0.37170  Biso   1.000  C
  C23      1.0000 0.01420  0.62690  0.29790  Biso   1.000  C
  C24      1.0000 0.06720  0.71610  0.25810  Biso   1.000  C
  C25      1.0000 0.01530  0.83860  0.29250  Biso   1.000  C
  C26      1.0000 0.86160  0.78590  0.40200  Biso   1.000  C
  C27      1.0000 0.10930  0.08320  0.38140  Biso   1.000  C
  C28      1.0000 0.21350  0.13490  0.33100  Biso   1.000  C
  C29      1.0000 0.35150  0.10270  0.35990  Biso   1.000  C
  C30      1.0000 0.44770  0.15270  0.31420  Biso   1.000  C
  C31      1.0000 0.59350  0.11930  0.34890  Biso   1.000  C
  C32      1.0000 0.40740  0.23680  0.23880  Biso   1.000  C
  C33      1.0000 0.27070  0.27240  0.21020  Biso   1.000  C
  C34      1.0000 0.22300  0.36700  0.13090  Biso   1.000  C
  C35      1.0000 0.17330  0.21980  0.25600  Biso   1.000  C
  C36      1.0000 0.83920  0.77290  0.06790  Biso   1.000  C
  C37      1.0000 0.73980  0.87690  0.11540  Biso   1.000  C
  C38      1.0000 0.63890  0.85710  0.18040  Biso   1.000  C
  C39      1.0000 0.64540  0.73410  0.19880  Biso   1.000  C
  C40      1.0000 0.75150  0.63460  0.14960  Biso   1.000  C
  C41      1.0000 0.53120  0.61250  0.30620  Biso   1.000  C
  C42      1.0000 0.41400  0.62700  0.38380  Biso   1.000  C
  C43      1.0000 0.35570  0.73730  0.43570  Biso   1.000  C
  C44      1.0000 0.21490  0.65350  0.53310  Biso   1.000  C
  C45      1.0000 0.26800  0.53820  0.48500  Biso   1.000  C
  C46      1.0000 0.37040  0.52640  0.40830  Biso   1.000  C
  C47      1.0000 0.21710  0.43100  0.51130  Biso   1.000  C
  C48      1.0000 0.09100  0.33760  0.62830  Biso   1.000  C
  C49      1.0000 0.98580  0.37310  0.70210  Biso   1.000  C
  C50      1.0000 0.93280  0.28390  0.74190  Biso   1.000  C
  C51      1.0000 0.98470  0.16140  0.70750  Biso   1.000  C
  C52      1.0000 0.13840  0.21410  0.59800  Biso   1.000  C
  N1       1.0000 0.15450  0.34610  0.91540  Biso   1.000  N
  N2       1.0000 0.45950  0.28430  0.73350  Biso   1.000  N
  N3       1.0000 0.74290  0.24780  0.48980  Biso   1.000  N
  N4       1.0000 0.85330  0.57120  0.41210  Biso   1.000  N
  N5       1.0000 0.91430  0.87420  0.36370  Biso   1.000  N
  N6       1.0000 0.84550  0.65390  0.08460  Biso   1.000  N
  N7       1.0000 0.54050  0.71570  0.26650  Biso   1.000  N
  N8       1.0000 0.25710  0.75220  0.51020  Biso   1.000  N
  N9       1.0000 0.14670  0.42880  0.58790  Biso   1.000  N
  N10      1.0000 0.08570  0.12580  0.63630  Biso   1.000  N
  O1       1.0000 0.85270  0.99280  0.55190  Biso   1.000  O
  O2       1.0000 0.85620  0.39880  0.01130  Biso   1.000  O
  O3       1.0000 0.01450  0.88170  0.64710  Biso   1.000  O
  O4       1.0000 0.90710  0.59570  0.88300  Biso   1.000  O
  O5       1.0000 0.68450  0.59940  0.91650  Biso   1.000  O
  O6       1.0000 0.38110  0.94010  0.57460  Biso   1.000  O
  O7       1.0000 0.31000  0.84960  0.69770  Biso   1.000  O
  O8       1.0000 0.65660  0.69030  0.49260  Biso   1.000  O
  O9       1.0000 0.36540  0.49220  0.70450  Biso   1.000  O
  O10      1.0000 0.14730  0.00720  0.44810  Biso   1.000  O
  O11      1.0000 0.14380  0.60120  0.98870  Biso   1.000  O
  O12      1.0000 0.98550  0.11830  0.35290  Biso   1.000  O
  O13      1.0000 0.09290  0.40430  0.11700  Biso   1.000  O
  O14      1.0000 0.31550  0.40060  0.08350  Biso   1.000  O
  O15      1.0000 0.61890  0.05990  0.42540  Biso   1.000  O
  O16      1.0000 0.69000  0.15040  0.30230  Biso   1.000  O
  O17      1.0000 0.34340  0.30970  0.50740  Biso   1.000  O
  O18      1.0000 0.63460  0.50780  0.29550  Biso   1.000  O
