data_image0
_cell_length_a       8.5732
_cell_length_b       8.5732
_cell_length_c       14.3359
_cell_angle_alpha    87.0844
_cell_angle_beta     87.0844
_cell_angle_gamma    81.7428

_symmetry_space_group_name_H-M    P 1
_symmetry_int_tables_number       1

loop_
  _symmetry_equiv_pos_as_xyz
  'x, y, z'

loop_
  _atom_site_label
  _atom_site_occupancy
  _atom_site_fract_x
  _atom_site_fract_y
  _atom_site_fract_z
  _atom_site_thermal_displace_type
  _atom_site_B_iso_or_equiv
  _atom_site_type_symbol
  Cu1      1.0000 0.97710  0.65430  0.49000  Biso   1.000  Cu
  Cu2      1.0000 0.34570  0.02290  0.01000  Biso   1.000  Cu
  Cu3      1.0000 0.02290  0.34570  0.51000  Biso   1.000  Cu
  Cu4      1.0000 0.65430  0.97710  0.99000  Biso   1.000  Cu
  H1       1.0000 0.87100  0.95100  0.49000  Biso   1.000  H
  H2       1.0000 0.94600  0.92600  0.40900  Biso   1.000  H
  H3       1.0000 0.53770  0.37510  0.41740  Biso   1.000  H
  H4       1.0000 0.52430  0.56390  0.41250  Biso   1.000  H
  H5       1.0000 0.40060  0.23660  0.30250  Biso   1.000  H
  H6       1.0000 0.29790  0.33550  0.22330  Biso   1.000  H
  H7       1.0000 0.36410  0.72390  0.28670  Biso   1.000  H
  H8       1.0000 0.78550  0.30130  0.20730  Biso   1.000  H
  H9       1.0000 0.04900  0.12900  0.01000  Biso   1.000  H
  H10      1.0000 0.07400  0.05400  0.09100  Biso   1.000  H
  H11      1.0000 0.62490  0.46230  0.08260  Biso   1.000  H
  H12      1.0000 0.43610  0.47570  0.08750  Biso   1.000  H
  H13      1.0000 0.76340  0.59940  0.19750  Biso   1.000  H
  H14      1.0000 0.66450  0.70210  0.27670  Biso   1.000  H
  H15      1.0000 0.27610  0.63590  0.21330  Biso   1.000  H
  H16      1.0000 0.69870  0.21450  0.29270  Biso   1.000  H
  H17      1.0000 0.12900  0.04900  0.51000  Biso   1.000  H
  H18      1.0000 0.05400  0.07400  0.59100  Biso   1.000  H
  H19      1.0000 0.46230  0.62490  0.58260  Biso   1.000  H
  H20      1.0000 0.47570  0.43610  0.58750  Biso   1.000  H
  H21      1.0000 0.59940  0.76340  0.69750  Biso   1.000  H
  H22      1.0000 0.70210  0.66450  0.77670  Biso   1.000  H
  H23      1.0000 0.63590  0.27610  0.71330  Biso   1.000  H
  H24      1.0000 0.21450  0.69870  0.79270  Biso   1.000  H
  H25      1.0000 0.95100  0.87100  0.99000  Biso   1.000  H
  H26      1.0000 0.92600  0.94600  0.90900  Biso   1.000  H
  H27      1.0000 0.37510  0.53770  0.91740  Biso   1.000  H
  H28      1.0000 0.56390  0.52430  0.91250  Biso   1.000  H
  H29      1.0000 0.23660  0.40060  0.80250  Biso   1.000  H
  H30      1.0000 0.33550  0.29790  0.72330  Biso   1.000  H
  H31      1.0000 0.72390  0.36410  0.78670  Biso   1.000  H
  H32      1.0000 0.30130  0.78550  0.70730  Biso   1.000  H
  C1       1.0000 0.23770  0.48910  0.38550  Biso   1.000  C
  C2       1.0000 0.38190  0.48070  0.31680  Biso   1.000  C
  C3       1.0000 0.53060  0.46980  0.37450  Biso   1.000  C
  C4       1.0000 0.67950  0.45950  0.30710  Biso   1.000  C
  C5       1.0000 0.81770  0.45770  0.37190  Biso   1.000  C
  C6       1.0000 0.39370  0.33130  0.25970  Biso   1.000  C
  C7       1.0000 0.51090  0.76230  0.11450  Biso   1.000  C
  C8       1.0000 0.51930  0.61810  0.18320  Biso   1.000  C
  C9       1.0000 0.53020  0.46940  0.12550  Biso   1.000  C
  C10      1.0000 0.54050  0.32050  0.19290  Biso   1.000  C
  C11      1.0000 0.54230  0.18230  0.12810  Biso   1.000  C
  C12      1.0000 0.66870  0.60630  0.24030  Biso   1.000  C
  C13      1.0000 0.76230  0.51090  0.61450  Biso   1.000  C
  C14      1.0000 0.61810  0.51930  0.68320  Biso   1.000  C
  C15      1.0000 0.46940  0.53020  0.62550  Biso   1.000  C
  C16      1.0000 0.32050  0.54050  0.69290  Biso   1.000  C
  C17      1.0000 0.18230  0.54230  0.62810  Biso   1.000  C
  C18      1.0000 0.60630  0.66870  0.74030  Biso   1.000  C
  C19      1.0000 0.48910  0.23770  0.88550  Biso   1.000  C
  C20      1.0000 0.48070  0.38190  0.81680  Biso   1.000  C
  C21      1.0000 0.46980  0.53060  0.87450  Biso   1.000  C
  C22      1.0000 0.45950  0.67950  0.80710  Biso   1.000  C
  C23      1.0000 0.45770  0.81770  0.87190  Biso   1.000  C
  C24      1.0000 0.33130  0.39370  0.75970  Biso   1.000  C
  C25      1.0000 0.37190  0.62810  0.25000  Biso   1.000  C
  C26      1.0000 0.69050  0.30950  0.25000  Biso   1.000  C
  C27      1.0000 0.62810  0.37190  0.75000  Biso   1.000  C
  C28      1.0000 0.30950  0.69050  0.75000  Biso   1.000  C
  O1       1.0000 0.16880  0.62360  0.40670  Biso   1.000  O
  O2       1.0000 0.19890  0.36030  0.41810  Biso   1.000  O
  O3       1.0000 0.88470  0.32790  0.40490  Biso   1.000  O
  O4       1.0000 0.84830  0.59090  0.39230  Biso   1.000  O
  O5       1.0000 0.90830  0.89530  0.44470  Biso   1.000  O
  O6       1.0000 0.37640  0.83120  0.09330  Biso   1.000  O
  O7       1.0000 0.63970  0.80110  0.08190  Biso   1.000  O
  O8       1.0000 0.67210  0.11530  0.09510  Biso   1.000  O
  O9       1.0000 0.40910  0.15170  0.10770  Biso   1.000  O
  O10      1.0000 0.10470  0.09170  0.05530  Biso   1.000  O
  O11      1.0000 0.83120  0.37640  0.59330  Biso   1.000  O
  O12      1.0000 0.80110  0.63970  0.58190  Biso   1.000  O
  O13      1.0000 0.11530  0.67210  0.59510  Biso   1.000  O
  O14      1.0000 0.15170  0.40910  0.60770  Biso   1.000  O
  O15      1.0000 0.09170  0.10470  0.55530  Biso   1.000  O
  O16      1.0000 0.62360  0.16880  0.90670  Biso   1.000  O
  O17      1.0000 0.36030  0.19890  0.91810  Biso   1.000  O
  O18      1.0000 0.32790  0.88470  0.90490  Biso   1.000  O
  O19      1.0000 0.59090  0.84830  0.89230  Biso   1.000  O
  O20      1.0000 0.89530  0.90830  0.94470  Biso   1.000  O
