data_image0
_cell_length_a       8.4671
_cell_length_b       8.4671
_cell_length_c       14.4437
_cell_angle_alpha    90
_cell_angle_beta     90
_cell_angle_gamma    90

_symmetry_space_group_name_H-M    P 1
_symmetry_int_tables_number       1

loop_
  _symmetry_equiv_pos_as_xyz
  'x, y, z'

loop_
  _atom_site_label
  _atom_site_occupancy
  _atom_site_fract_x
  _atom_site_fract_y
  _atom_site_fract_z
  _atom_site_thermal_displace_type
  _atom_site_B_iso_or_equiv
  _atom_site_type_symbol
  Cu1      1.0000 0.50000  0.85300  0.00000  Biso   1.000  Cu
  Cu2      1.0000 0.50000  0.14700  0.00000  Biso   1.000  Cu
  Cu3      1.0000 0.14700  0.50000  0.50000  Biso   1.000  Cu
  Cu4      1.0000 0.85300  0.50000  0.50000  Biso   1.000  Cu
  H1       1.0000 0.75590  0.85000  0.71050  Biso   1.000  H
  H2       1.0000 0.24410  0.15000  0.71050  Biso   1.000  H
  H3       1.0000 0.15000  0.75590  0.21050  Biso   1.000  H
  H4       1.0000 0.85000  0.24410  0.21050  Biso   1.000  H
  H5       1.0000 0.24410  0.85000  0.28950  Biso   1.000  H
  H6       1.0000 0.75590  0.15000  0.28950  Biso   1.000  H
  H7       1.0000 0.85000  0.75590  0.78950  Biso   1.000  H
  H8       1.0000 0.15000  0.24410  0.78950  Biso   1.000  H
  H9       1.0000 0.24410  0.15000  0.28950  Biso   1.000  H
  H10      1.0000 0.75590  0.85000  0.28950  Biso   1.000  H
  H11      1.0000 0.85000  0.24410  0.78950  Biso   1.000  H
  H12      1.0000 0.15000  0.75590  0.78950  Biso   1.000  H
  H13      1.0000 0.75590  0.15000  0.71050  Biso   1.000  H
  H14      1.0000 0.24410  0.85000  0.71050  Biso   1.000  H
  H15      1.0000 0.15000  0.24410  0.21050  Biso   1.000  H
  H16      1.0000 0.85000  0.75590  0.21050  Biso   1.000  H
  H17      1.0000 0.00000  0.09470  0.91320  Biso   1.000  H
  H18      1.0000 0.00000  0.90530  0.91320  Biso   1.000  H
  H19      1.0000 0.90530  0.00000  0.41320  Biso   1.000  H
  H20      1.0000 0.09470  0.00000  0.41320  Biso   1.000  H
  H21      1.0000 0.00000  0.09470  0.08680  Biso   1.000  H
  H22      1.0000 0.00000  0.90530  0.08680  Biso   1.000  H
  H23      1.0000 0.09470  0.00000  0.58680  Biso   1.000  H
  H24      1.0000 0.90530  0.00000  0.58680  Biso   1.000  H
  C1       1.0000 0.71230  0.00000  0.87830  Biso   1.000  C
  C2       1.0000 0.85090  0.00000  0.81110  Biso   1.000  C
  C3       1.0000 0.28770  0.00000  0.87830  Biso   1.000  C
  C4       1.0000 0.14910  0.00000  0.81110  Biso   1.000  C
  C5       1.0000 0.00000  0.71230  0.37830  Biso   1.000  C
  C6       1.0000 0.00000  0.85090  0.31110  Biso   1.000  C
  C7       1.0000 0.00000  0.28770  0.37830  Biso   1.000  C
  C8       1.0000 0.00000  0.14910  0.31110  Biso   1.000  C
  C9       1.0000 0.28770  0.00000  0.12170  Biso   1.000  C
  C10      1.0000 0.14910  0.00000  0.18890  Biso   1.000  C
  C11      1.0000 0.71230  0.00000  0.12170  Biso   1.000  C
  C12      1.0000 0.85090  0.00000  0.18890  Biso   1.000  C
  C13      1.0000 0.00000  0.71230  0.62170  Biso   1.000  C
  C14      1.0000 0.00000  0.85090  0.68890  Biso   1.000  C
  C15      1.0000 0.00000  0.28770  0.62170  Biso   1.000  C
  C16      1.0000 0.00000  0.14910  0.68890  Biso   1.000  C
  C17      1.0000 0.85140  0.85140  0.75000  Biso   1.000  C
  C18      1.0000 0.14860  0.14860  0.75000  Biso   1.000  C
  C19      1.0000 0.14860  0.85140  0.25000  Biso   1.000  C
  C20      1.0000 0.85140  0.14860  0.25000  Biso   1.000  C
  C21      1.0000 0.14860  0.14860  0.25000  Biso   1.000  C
  C22      1.0000 0.85140  0.85140  0.25000  Biso   1.000  C
  C23      1.0000 0.85140  0.14860  0.75000  Biso   1.000  C
  C24      1.0000 0.14860  0.85140  0.75000  Biso   1.000  C
  C25      1.0000 0.00000  0.00000  0.87300  Biso   1.000  C
  C26      1.0000 0.00000  0.00000  0.37300  Biso   1.000  C
  C27      1.0000 0.00000  0.00000  0.12700  Biso   1.000  C
  C28      1.0000 0.00000  0.00000  0.62700  Biso   1.000  C
  O1       1.0000 0.66180  0.86830  0.90580  Biso   1.000  O
  O2       1.0000 0.33820  0.13170  0.90580  Biso   1.000  O
  O3       1.0000 0.13170  0.66180  0.40580  Biso   1.000  O
  O4       1.0000 0.86830  0.33820  0.40580  Biso   1.000  O
  O5       1.0000 0.33820  0.86830  0.09420  Biso   1.000  O
  O6       1.0000 0.66180  0.13170  0.09420  Biso   1.000  O
  O7       1.0000 0.86830  0.66180  0.59420  Biso   1.000  O
  O8       1.0000 0.13170  0.33820  0.59420  Biso   1.000  O
  O9       1.0000 0.33820  0.13170  0.09420  Biso   1.000  O
  O10      1.0000 0.66180  0.86830  0.09420  Biso   1.000  O
  O11      1.0000 0.86830  0.33820  0.59420  Biso   1.000  O
  O12      1.0000 0.13170  0.66180  0.59420  Biso   1.000  O
  O13      1.0000 0.66180  0.13170  0.90580  Biso   1.000  O
  O14      1.0000 0.33820  0.86830  0.90580  Biso   1.000  O
  O15      1.0000 0.13170  0.33820  0.40580  Biso   1.000  O
  O16      1.0000 0.86830  0.66180  0.40580  Biso   1.000  O
