data_image0
_cell_length_a       11.391
_cell_length_b       12.414
_cell_length_c       12.846
_cell_angle_alpha    71.04
_cell_angle_beta     68.39
_cell_angle_gamma    66.88

_symmetry_space_group_name_H-M    "P 1"
_symmetry_int_tables_number       1

loop_
  _symmetry_equiv_pos_as_xyz
  'x, y, z'

loop_
  _atom_site_label
  _atom_site_occupancy
  _atom_site_fract_x
  _atom_site_fract_y
  _atom_site_fract_z
  _atom_site_thermal_displace_type
  _atom_site_B_iso_or_equiv
  _atom_site_type_symbol
  Ga1      1.0000 0.39573  0.70795  0.24627  Biso   1.000  Ga
  Ga2      1.0000 0.19857  0.72125  0.93643  Biso   1.000  Ga
  Ga3      1.0000 0.10635  0.82590  0.25664  Biso   1.000  Ga
  Ga4      1.0000 0.31605  0.77747  0.58054  Biso   1.000  Ga
  Ga5      1.0000 0.73202  0.92923  0.16611  Biso   1.000  Ga
  Ga6      1.0000 0.78485  0.55445  0.33519  Biso   1.000  Ga
  P1       1.0000 0.18746  0.68039  0.48269  Biso   1.000  P
  P2       1.0000 0.55422  0.78938  0.34998  Biso   1.000  P
  P3       1.0000 0.31354  0.85102  0.02035  Biso   1.000  P
  P4       1.0000 0.63685  0.45695  0.23003  Biso   1.000  P
  P5       1.0000 0.86533  0.06137  0.24828  Biso   1.000  P
  P6       1.0000 0.96479  0.70646  0.17018  Biso   1.000  P
  F1       1.0000 0.24900  0.67440  0.23110  Biso   1.000  F
  F2       1.0000 0.25270  0.85970  0.27360  Biso   1.000  F
  O1       1.0000 0.42010  0.78680  0.08500  Biso   1.000  O
  O2       1.0000 0.33080  0.64770  0.40930  Biso   1.000  O
  O3       1.0000 0.52250  0.76520  0.25690  Biso   1.000  O
  O4       1.0000 0.51170  0.55850  0.21430  Biso   1.000  O
  O5       1.0000 0.89290  0.17790  0.16830  Biso   1.000  O
  O6       1.0000 0.32630  0.77000  0.94390  Biso   1.000  O
  O7       1.0000 0.08850  0.67230  0.07210  Biso   1.000  O
  O8       1.0000 0.70740  0.41630  0.11560  Biso   1.000  O
  O9       1.0000 0.98580  0.97700  0.28880  Biso   1.000  O
  O10      1.0000 0.17050  0.88710  0.09450  Biso   1.000  O
  O11      1.0000 0.98180  0.76390  0.24880  Biso   1.000  O
  O12      1.0000 0.08080  0.75190  0.41930  Biso   1.000  O
  O13      1.0000 0.17570  0.75240  0.56680  Biso   1.000  O
  O14      1.0000 0.43380  0.82540  0.45030  Biso   1.000  O
  O15      1.0000 0.60050  0.35310  0.32600  Biso   1.000  O
  O16      1.0000 0.74690  0.09400  0.35210  Biso   1.000  O
  O17      1.0000 0.82880  0.00560  0.18030  Biso   1.000  O
  O18      1.0000 0.35100  0.96440  0.94020  Biso   1.000  O
  O19      1.0000 0.84650  0.79070  0.12100  Biso   1.000  O
  O20      1.0000 0.60850  0.89670  0.30010  Biso   1.000  O
  O21      1.0000 0.93590  0.58790  0.23840  Biso   1.000  O
  O22      1.0000 0.65970  0.67870  0.39650  Biso   1.000  O
  O23      1.0000 0.15050  0.56540  0.55450  Biso   1.000  O
  O24      1.0000 0.73450  0.49600  0.25300  Biso   1.000  O
  Ga7      1.0000 0.60427  0.29205  0.75373  Biso   1.000  Ga
  Ga8      1.0000 0.80143  0.27875  0.06357  Biso   1.000  Ga
  Ga9      1.0000 0.89365  0.17410  0.74336  Biso   1.000  Ga
  Ga10     1.0000 0.68395  0.22253  0.41946  Biso   1.000  Ga
  Ga11     1.0000 0.26798  0.07077  0.83389  Biso   1.000  Ga
  Ga12     1.0000 0.21515  0.44555  0.66481  Biso   1.000  Ga
  P7       1.0000 0.81254  0.31961  0.51731  Biso   1.000  P
  P8       1.0000 0.44578  0.21062  0.65002  Biso   1.000  P
  P9       1.0000 0.68646  0.14898  0.97965  Biso   1.000  P
  P10      1.0000 0.36315  0.54305  0.76997  Biso   1.000  P
  P11      1.0000 0.13467  0.93863  0.75172  Biso   1.000  P
  P12      1.0000 0.03521  0.29354  0.82982  Biso   1.000  P
  F3       1.0000 0.75100  0.32560  0.76890  Biso   1.000  F
  F4       1.0000 0.74730  0.14030  0.72640  Biso   1.000  F
  O25      1.0000 0.57990  0.21320  0.91500  Biso   1.000  O
  O26      1.0000 0.66920  0.35230  0.59070  Biso   1.000  O
  O27      1.0000 0.47750  0.23480  0.74310  Biso   1.000  O
  O28      1.0000 0.48830  0.44150  0.78570  Biso   1.000  O
  O29      1.0000 0.10710  0.82210  0.83170  Biso   1.000  O
  O30      1.0000 0.67370  0.23000  0.05610  Biso   1.000  O
  O31      1.0000 0.91150  0.32770  0.92790  Biso   1.000  O
  O32      1.0000 0.29260  0.58370  0.88440  Biso   1.000  O
  O33      1.0000 0.01420  0.02300  0.71120  Biso   1.000  O
  O34      1.0000 0.82950  0.11290  0.90550  Biso   1.000  O
  O35      1.0000 0.01820  0.23610  0.75120  Biso   1.000  O
  O36      1.0000 0.91920  0.24810  0.58070  Biso   1.000  O
  O37      1.0000 0.82430  0.24760  0.43320  Biso   1.000  O
  O38      1.0000 0.56620  0.17460  0.54970  Biso   1.000  O
  O39      1.0000 0.39950  0.64690  0.67400  Biso   1.000  O
  O40      1.0000 0.25310  0.90600  0.64790  Biso   1.000  O
  O41      1.0000 0.17120  0.99440  0.81970  Biso   1.000  O
  O42      1.0000 0.64900  0.03560  0.05980  Biso   1.000  O
  O43      1.0000 0.15350  0.20930  0.87900  Biso   1.000  O
  O44      1.0000 0.39150  0.10330  0.69990  Biso   1.000  O
  O45      1.0000 0.06410  0.41210  0.76160  Biso   1.000  O
  O46      1.0000 0.34030  0.32130  0.60350  Biso   1.000  O
  O47      1.0000 0.84950  0.43460  0.44550  Biso   1.000  O
  O48      1.0000 0.26550  0.50400  0.74700  Biso   1.000  O
