data_image0
_cell_length_a       17.3226
_cell_length_b       9.282
_cell_length_c       29.8388
_cell_angle_alpha    90
_cell_angle_beta     93.726
_cell_angle_gamma    90

_symmetry_space_group_name_H-M    "P 1"
_symmetry_int_tables_number       1

loop_
  _symmetry_equiv_pos_as_xyz
  'x, y, z'

loop_
  _atom_site_label
  _atom_site_occupancy
  _atom_site_fract_x
  _atom_site_fract_y
  _atom_site_fract_z
  _atom_site_thermal_displace_type
  _atom_site_B_iso_or_equiv
  _atom_site_type_symbol
  Ag1      1.0000 0.50258  0.08860  0.11168  Biso   1.000  Ag
  Ag2      1.0000 0.81934  0.10588  0.22064  Biso   1.000  Ag
  Ag3      1.0000 0.83348  0.99440  0.44378  Biso   1.000  Ag
  S1       1.0000 0.92451  0.19709  0.47199  Biso   1.000  S
  S2       1.0000 0.58379  0.86564  0.14516  Biso   1.000  S
  S3       1.0000 0.74295  0.87674  0.19496  Biso   1.000  S
  S4       1.0000 0.88678  0.76810  0.48465  Biso   1.000  S
  S5       1.0000 0.04539  0.80876  0.16246  Biso   1.000  S
  S6       1.0000 0.80237  0.99759  0.35883  Biso   1.000  S
  S7       1.0000 0.80413  0.51868  0.52739  Biso   1.000  S
  S8       1.0000 0.95741  0.05263  0.20366  Biso   1.000  S
  S9       1.0000 0.56205  0.09338  0.03528  Biso   1.000  S
  S10      1.0000 0.35970  0.05112  0.12083  Biso   1.000  S
  S11      1.0000 0.26744  0.81098  0.16213  Biso   1.000  S
  S12      1.0000 0.77394  0.23647  0.28858  Biso   1.000  S
  H1       1.0000 0.02310  0.02590  0.47760  Biso   1.000  H
  C1       1.0000 0.66070  0.97480  0.17055  Biso   1.000  C
  H2       1.0000 0.63940  0.03460  0.19430  Biso   1.000  H
  H3       1.0000 0.67880  0.04100  0.14740  Biso   1.000  H
  C2       1.0000 0.30760  0.02210  0.06718  Biso   1.000  C
  H4       1.0000 0.34070  0.97010  0.04720  Biso   1.000  H
  H5       1.0000 0.29280  0.11520  0.05370  Biso   1.000  H
  H6       1.0000 0.26100  0.96510  0.07150  Biso   1.000  H
  C3       1.0000 0.86560  0.55410  0.57751  Biso   1.000  C
  H7       1.0000 0.91590  0.58950  0.56900  Biso   1.000  H
  H8       1.0000 0.87290  0.46510  0.59490  Biso   1.000  H
  H9       1.0000 0.84130  0.62710  0.59570  Biso   1.000  H
  C4       1.0000 0.97630  0.25440  0.42437  Biso   1.000  C
  H10      1.0000 0.02360  0.30530  0.43500  Biso   1.000  H
  H11      1.0000 0.94350  0.31900  0.40540  Biso   1.000  H
  H12      1.0000 0.99000  0.16990  0.40680  Biso   1.000  H
  C5       1.0000 0.63250  0.79190  0.09825  Biso   1.000  C
  H13      1.0000 0.65410  0.87070  0.08110  Biso   1.000  H
  H14      1.0000 0.59540  0.73740  0.07870  Biso   1.000  H
  H15      1.0000 0.67430  0.72790  0.10960  Biso   1.000  H
  C6       1.0000 0.64800  0.20420  0.04268  Biso   1.000  C
  H16      1.0000 0.67100  0.21580  0.01370  Biso   1.000  H
  H17      1.0000 0.68540  0.15770  0.06410  Biso   1.000  H
  H18      1.0000 0.63410  0.29890  0.05420  Biso   1.000  H
  C7       1.0000 0.81830  0.18240  0.34220  Biso   1.000  C
  H19      1.0000 0.79890  0.24650  0.36550  Biso   1.000  H
  H20      1.0000 0.87470  0.19840  0.34180  Biso   1.000  H
  C8       1.0000 0.95260  0.87330  0.18051  Biso   1.000  C
  H21      1.0000 0.91410  0.87200  0.15450  Biso   1.000  H
  H22      1.0000 0.93430  0.80640  0.20340  Biso   1.000  H
  H23      1.0000 0.53140  0.27200  0.98130  Biso   1.000  H
  C9       1.0000 0.36090  0.87200  0.14466  Biso   1.000  C
  H24      1.0000 0.39870  0.86980  0.17100  Biso   1.000  H
  H25      1.0000 0.37900  0.80340  0.12220  Biso   1.000  H
  C10      1.0000 0.06740  0.95110  0.12369  Biso   1.000  C
  H26      1.0000 0.03240  0.94410  0.09660  Biso   1.000  H
  H27      1.0000 0.12100  0.94120  0.11550  Biso   1.000  H
  H28      1.0000 0.06070  0.04490  0.13800  Biso   1.000  H
  C11      1.0000 0.24160  0.95820  0.19787  Biso   1.000  C
  H29      1.0000 0.28250  0.97200  0.22180  Biso   1.000  H
  H30      1.0000 0.19280  0.93590  0.21120  Biso   1.000  H
  H31      1.0000 0.23560  0.04650  0.18000  Biso   1.000  H
  C12      1.0000 0.67370  0.19690  0.29665  Biso   1.000  C
  H32      1.0000 0.66840  0.09490  0.30440  Biso   1.000  H
  H33      1.0000 0.64230  0.21750  0.26890  Biso   1.000  H
  H34      1.0000 0.65600  0.25670  0.32100  Biso   1.000  H
  C13      1.0000 0.79650  0.69640  0.50296  Biso   1.000  C
  H35      1.0000 0.77650  0.76320  0.52530  Biso   1.000  H
  H36      1.0000 0.75820  0.69340  0.47690  Biso   1.000  H
  C14      1.0000 0.87640  0.90320  0.33036  Biso   1.000  C
  H37      1.0000 0.87190  0.92740  0.29830  Biso   1.000  H
  H38      1.0000 0.86980  0.79910  0.33410  Biso   1.000  H
  H39      1.0000 0.92760  0.93190  0.34330  Biso   1.000  H
  C15      1.0000 0.70240  0.80000  0.24406  Biso   1.000  C
  H40      1.0000 0.68810  0.87760  0.26420  Biso   1.000  H
  H41      1.0000 0.74080  0.73730  0.25980  Biso   1.000  H
  H42      1.0000 0.65630  0.74360  0.23480  Biso   1.000  H
  C16      1.0000 0.90880  0.63820  0.44221  Biso   1.000  C
  H43      1.0000 0.91490  0.54260  0.45590  Biso   1.000  H
  H44      1.0000 0.95690  0.66570  0.42890  Biso   1.000  H
  H45      1.0000 0.86650  0.63580  0.41880  Biso   1.000  H
  C17      1.0000 0.01920  0.02620  0.25400  Biso   1.000  C
  H46      1.0000 0.99920  0.94670  0.27140  Biso   1.000  H
  H47      1.0000 0.02030  0.11450  0.27200  Biso   1.000  H
  H48      1.0000 0.07170  0.00320  0.24590  Biso   1.000  H
  Ag4      1.0000 0.00258  0.58860  0.11168  Biso   1.000  Ag
  Ag5      1.0000 0.31934  0.60588  0.22064  Biso   1.000  Ag
  Ag6      1.0000 0.33348  0.49440  0.44378  Biso   1.000  Ag
  S13      1.0000 0.42451  0.69709  0.47199  Biso   1.000  S
  S14      1.0000 0.08379  0.36564  0.14516  Biso   1.000  S
  S15      1.0000 0.24295  0.37674  0.19496  Biso   1.000  S
  S16      1.0000 0.38678  0.26810  0.48465  Biso   1.000  S
  S17      1.0000 0.54539  0.30876  0.16246  Biso   1.000  S
  S18      1.0000 0.30237  0.49759  0.35883  Biso   1.000  S
  S19      1.0000 0.30413  0.01868  0.52739  Biso   1.000  S
  S20      1.0000 0.45741  0.55263  0.20366  Biso   1.000  S
  S21      1.0000 0.06205  0.59338  0.03528  Biso   1.000  S
  S22      1.0000 0.85970  0.55112  0.12083  Biso   1.000  S
  S23      1.0000 0.76744  0.31098  0.16213  Biso   1.000  S
  S24      1.0000 0.27394  0.73647  0.28858  Biso   1.000  S
  H49      1.0000 0.52310  0.52590  0.47760  Biso   1.000  H
  C18      1.0000 0.16070  0.47480  0.17055  Biso   1.000  C
  H50      1.0000 0.13940  0.53460  0.19430  Biso   1.000  H
  H51      1.0000 0.17880  0.54100  0.14740  Biso   1.000  H
  C19      1.0000 0.80760  0.52210  0.06718  Biso   1.000  C
  H52      1.0000 0.84070  0.47010  0.04720  Biso   1.000  H
  H53      1.0000 0.79280  0.61520  0.05370  Biso   1.000  H
  H54      1.0000 0.76100  0.46510  0.07150  Biso   1.000  H
  C20      1.0000 0.36560  0.05410  0.57751  Biso   1.000  C
  H55      1.0000 0.41590  0.08950  0.56900  Biso   1.000  H
  H56      1.0000 0.37290  0.96510  0.59490  Biso   1.000  H
  H57      1.0000 0.34130  0.12710  0.59570  Biso   1.000  H
  C21      1.0000 0.47630  0.75440  0.42437  Biso   1.000  C
  H58      1.0000 0.52360  0.80530  0.43500  Biso   1.000  H
  H59      1.0000 0.44350  0.81900  0.40540  Biso   1.000  H
  H60      1.0000 0.49000  0.66990  0.40680  Biso   1.000  H
  C22      1.0000 0.13250  0.29190  0.09825  Biso   1.000  C
  H61      1.0000 0.15410  0.37070  0.08110  Biso   1.000  H
  H62      1.0000 0.09540  0.23740  0.07870  Biso   1.000  H
  H63      1.0000 0.17430  0.22790  0.10960  Biso   1.000  H
  C23      1.0000 0.14800  0.70420  0.04268  Biso   1.000  C
  H64      1.0000 0.17100  0.71580  0.01370  Biso   1.000  H
  H65      1.0000 0.18540  0.65770  0.06410  Biso   1.000  H
  H66      1.0000 0.13410  0.79890  0.05420  Biso   1.000  H
  C24      1.0000 0.31830  0.68240  0.34220  Biso   1.000  C
  H67      1.0000 0.29890  0.74650  0.36550  Biso   1.000  H
  H68      1.0000 0.37470  0.69840  0.34180  Biso   1.000  H
  C25      1.0000 0.45260  0.37330  0.18051  Biso   1.000  C
  H69      1.0000 0.41410  0.37200  0.15450  Biso   1.000  H
  H70      1.0000 0.43430  0.30640  0.20340  Biso   1.000  H
  H71      1.0000 0.03140  0.77200  0.98130  Biso   1.000  H
  C26      1.0000 0.86090  0.37200  0.14466  Biso   1.000  C
  H72      1.0000 0.89870  0.36980  0.17100  Biso   1.000  H
  H73      1.0000 0.87900  0.30340  0.12220  Biso   1.000  H
  C27      1.0000 0.56740  0.45110  0.12369  Biso   1.000  C
  H74      1.0000 0.53240  0.44410  0.09660  Biso   1.000  H
  H75      1.0000 0.62100  0.44120  0.11550  Biso   1.000  H
  H76      1.0000 0.56070  0.54490  0.13800  Biso   1.000  H
  C28      1.0000 0.74160  0.45820  0.19787  Biso   1.000  C
  H77      1.0000 0.78250  0.47200  0.22180  Biso   1.000  H
  H78      1.0000 0.69280  0.43590  0.21120  Biso   1.000  H
  H79      1.0000 0.73560  0.54650  0.18000  Biso   1.000  H
  C29      1.0000 0.17370  0.69690  0.29665  Biso   1.000  C
  H80      1.0000 0.16840  0.59490  0.30440  Biso   1.000  H
  H81      1.0000 0.14230  0.71750  0.26890  Biso   1.000  H
  H82      1.0000 0.15600  0.75670  0.32100  Biso   1.000  H
  C30      1.0000 0.29650  0.19640  0.50296  Biso   1.000  C
  H83      1.0000 0.27650  0.26320  0.52530  Biso   1.000  H
  H84      1.0000 0.25820  0.19340  0.47690  Biso   1.000  H
  C31      1.0000 0.37640  0.40320  0.33036  Biso   1.000  C
  H85      1.0000 0.37190  0.42740  0.29830  Biso   1.000  H
  H86      1.0000 0.36980  0.29910  0.33410  Biso   1.000  H
  H87      1.0000 0.42760  0.43190  0.34330  Biso   1.000  H
  C32      1.0000 0.20240  0.30000  0.24406  Biso   1.000  C
  H88      1.0000 0.18810  0.37760  0.26420  Biso   1.000  H
  H89      1.0000 0.24080  0.23730  0.25980  Biso   1.000  H
  H90      1.0000 0.15630  0.24360  0.23480  Biso   1.000  H
  C33      1.0000 0.40880  0.13820  0.44221  Biso   1.000  C
  H91      1.0000 0.41490  0.04260  0.45590  Biso   1.000  H
  H92      1.0000 0.45690  0.16570  0.42890  Biso   1.000  H
  H93      1.0000 0.36650  0.13580  0.41880  Biso   1.000  H
  C34      1.0000 0.51920  0.52620  0.25400  Biso   1.000  C
  H94      1.0000 0.49920  0.44670  0.27140  Biso   1.000  H
  H95      1.0000 0.52030  0.61450  0.27200  Biso   1.000  H
  H96      1.0000 0.57170  0.50320  0.24590  Biso   1.000  H
  Ag7      1.0000 0.49742  0.08860  0.88831  Biso   1.000  Ag
  Ag8      1.0000 0.18066  0.10588  0.77936  Biso   1.000  Ag
  Ag9      1.0000 0.16651  0.99440  0.55622  Biso   1.000  Ag
  S25      1.0000 0.07549  0.19709  0.52801  Biso   1.000  S
  S26      1.0000 0.41621  0.86564  0.85484  Biso   1.000  S
  S27      1.0000 0.25705  0.87674  0.80504  Biso   1.000  S
  S28      1.0000 0.11322  0.76810  0.51535  Biso   1.000  S
  S29      1.0000 0.95461  0.80876  0.83754  Biso   1.000  S
  S30      1.0000 0.19763  0.99759  0.64117  Biso   1.000  S
  S31      1.0000 0.19587  0.51868  0.47261  Biso   1.000  S
  S32      1.0000 0.04259  0.05263  0.79634  Biso   1.000  S
  S33      1.0000 0.43795  0.09338  0.96472  Biso   1.000  S
  S34      1.0000 0.64030  0.05112  0.87917  Biso   1.000  S
  S35      1.0000 0.73256  0.81098  0.83787  Biso   1.000  S
  S36      1.0000 0.22606  0.23647  0.71142  Biso   1.000  S
  H97      1.0000 0.97690  0.02590  0.52240  Biso   1.000  H
  C35      1.0000 0.33930  0.97480  0.82945  Biso   1.000  C
  H98      1.0000 0.36060  0.03460  0.80570  Biso   1.000  H
  H99      1.0000 0.32120  0.04100  0.85260  Biso   1.000  H
  C36      1.0000 0.69240  0.02210  0.93282  Biso   1.000  C
  H100     1.0000 0.65930  0.97010  0.95280  Biso   1.000  H
  H101     1.0000 0.70720  0.11520  0.94630  Biso   1.000  H
  H102     1.0000 0.73900  0.96510  0.92850  Biso   1.000  H
  C37      1.0000 0.13440  0.55410  0.42249  Biso   1.000  C
  H103     1.0000 0.08410  0.58950  0.43100  Biso   1.000  H
  H104     1.0000 0.12710  0.46510  0.40510  Biso   1.000  H
  H105     1.0000 0.15870  0.62710  0.40430  Biso   1.000  H
  C38      1.0000 0.02370  0.25440  0.57563  Biso   1.000  C
  H106     1.0000 0.97640  0.30530  0.56500  Biso   1.000  H
  H107     1.0000 0.05650  0.31900  0.59460  Biso   1.000  H
  H108     1.0000 0.01000  0.16990  0.59320  Biso   1.000  H
  C39      1.0000 0.36750  0.79190  0.90175  Biso   1.000  C
  H109     1.0000 0.34590  0.87070  0.91890  Biso   1.000  H
  H110     1.0000 0.40460  0.73740  0.92130  Biso   1.000  H
  H111     1.0000 0.32570  0.72790  0.89040  Biso   1.000  H
  C40      1.0000 0.35200  0.20420  0.95732  Biso   1.000  C
  H112     1.0000 0.32900  0.21580  0.98630  Biso   1.000  H
  H113     1.0000 0.31460  0.15770  0.93590  Biso   1.000  H
  H114     1.0000 0.36590  0.29890  0.94580  Biso   1.000  H
  C41      1.0000 0.18170  0.18240  0.65780  Biso   1.000  C
  H115     1.0000 0.20110  0.24650  0.63450  Biso   1.000  H
  H116     1.0000 0.12530  0.19840  0.65820  Biso   1.000  H
  C42      1.0000 0.04740  0.87330  0.81949  Biso   1.000  C
  H117     1.0000 0.08590  0.87200  0.84550  Biso   1.000  H
  H118     1.0000 0.06570  0.80640  0.79660  Biso   1.000  H
  H119     1.0000 0.46860  0.27200  0.01870  Biso   1.000  H
  C43      1.0000 0.63910  0.87200  0.85534  Biso   1.000  C
  H120     1.0000 0.60130  0.86980  0.82900  Biso   1.000  H
  H121     1.0000 0.62100  0.80340  0.87780  Biso   1.000  H
  C44      1.0000 0.93260  0.95110  0.87631  Biso   1.000  C
  H122     1.0000 0.96760  0.94410  0.90340  Biso   1.000  H
  H123     1.0000 0.87900  0.94120  0.88450  Biso   1.000  H
  H124     1.0000 0.93930  0.04490  0.86200  Biso   1.000  H
  C45      1.0000 0.75840  0.95820  0.80213  Biso   1.000  C
  H125     1.0000 0.71750  0.97200  0.77820  Biso   1.000  H
  H126     1.0000 0.80720  0.93590  0.78880  Biso   1.000  H
  H127     1.0000 0.76440  0.04650  0.82000  Biso   1.000  H
  C46      1.0000 0.32630  0.19690  0.70335  Biso   1.000  C
  H128     1.0000 0.33160  0.09490  0.69560  Biso   1.000  H
  H129     1.0000 0.35770  0.21750  0.73110  Biso   1.000  H
  H130     1.0000 0.34400  0.25670  0.67900  Biso   1.000  H
  C47      1.0000 0.20350  0.69640  0.49704  Biso   1.000  C
  H131     1.0000 0.22350  0.76320  0.47470  Biso   1.000  H
  H132     1.0000 0.24180  0.69340  0.52310  Biso   1.000  H
  C48      1.0000 0.12360  0.90320  0.66964  Biso   1.000  C
  H133     1.0000 0.12810  0.92740  0.70170  Biso   1.000  H
  H134     1.0000 0.13020  0.79910  0.66590  Biso   1.000  H
  H135     1.0000 0.07240  0.93190  0.65670  Biso   1.000  H
  C49      1.0000 0.29760  0.80000  0.75594  Biso   1.000  C
  H136     1.0000 0.31190  0.87760  0.73580  Biso   1.000  H
  H137     1.0000 0.25920  0.73730  0.74020  Biso   1.000  H
  H138     1.0000 0.34370  0.74360  0.76520  Biso   1.000  H
  C50      1.0000 0.09120  0.63820  0.55779  Biso   1.000  C
  H139     1.0000 0.08510  0.54260  0.54410  Biso   1.000  H
  H140     1.0000 0.04310  0.66570  0.57110  Biso   1.000  H
  H141     1.0000 0.13350  0.63580  0.58120  Biso   1.000  H
  C51      1.0000 0.98080  0.02620  0.74600  Biso   1.000  C
  H142     1.0000 0.00080  0.94670  0.72860  Biso   1.000  H
  H143     1.0000 0.97970  0.11450  0.72800  Biso   1.000  H
  H144     1.0000 0.92830  0.00320  0.75410  Biso   1.000  H
  Ag10     1.0000 0.99742  0.58860  0.88831  Biso   1.000  Ag
  Ag11     1.0000 0.68066  0.60588  0.77936  Biso   1.000  Ag
  Ag12     1.0000 0.66651  0.49440  0.55622  Biso   1.000  Ag
  S37      1.0000 0.57549  0.69709  0.52801  Biso   1.000  S
  S38      1.0000 0.91621  0.36564  0.85484  Biso   1.000  S
  S39      1.0000 0.75705  0.37674  0.80504  Biso   1.000  S
  S40      1.0000 0.61322  0.26810  0.51535  Biso   1.000  S
  S41      1.0000 0.45461  0.30876  0.83754  Biso   1.000  S
  S42      1.0000 0.69763  0.49759  0.64117  Biso   1.000  S
  S43      1.0000 0.69587  0.01868  0.47261  Biso   1.000  S
  S44      1.0000 0.54259  0.55263  0.79634  Biso   1.000  S
  S45      1.0000 0.93795  0.59338  0.96472  Biso   1.000  S
  S46      1.0000 0.14030  0.55112  0.87917  Biso   1.000  S
  S47      1.0000 0.23256  0.31098  0.83787  Biso   1.000  S
  S48      1.0000 0.72606  0.73647  0.71142  Biso   1.000  S
  H145     1.0000 0.47690  0.52590  0.52240  Biso   1.000  H
  C52      1.0000 0.83930  0.47480  0.82945  Biso   1.000  C
  H146     1.0000 0.86060  0.53460  0.80570  Biso   1.000  H
  H147     1.0000 0.82120  0.54100  0.85260  Biso   1.000  H
  C53      1.0000 0.19240  0.52210  0.93282  Biso   1.000  C
  H148     1.0000 0.15930  0.47010  0.95280  Biso   1.000  H
  H149     1.0000 0.20720  0.61520  0.94630  Biso   1.000  H
  H150     1.0000 0.23900  0.46510  0.92850  Biso   1.000  H
  C54      1.0000 0.63440  0.05410  0.42249  Biso   1.000  C
  H151     1.0000 0.58410  0.08950  0.43100  Biso   1.000  H
  H152     1.0000 0.62710  0.96510  0.40510  Biso   1.000  H
  H153     1.0000 0.65870  0.12710  0.40430  Biso   1.000  H
  C55      1.0000 0.52370  0.75440  0.57563  Biso   1.000  C
  H154     1.0000 0.47640  0.80530  0.56500  Biso   1.000  H
  H155     1.0000 0.55650  0.81900  0.59460  Biso   1.000  H
  H156     1.0000 0.51000  0.66990  0.59320  Biso   1.000  H
  C56      1.0000 0.86750  0.29190  0.90175  Biso   1.000  C
  H157     1.0000 0.84590  0.37070  0.91890  Biso   1.000  H
  H158     1.0000 0.90460  0.23740  0.92130  Biso   1.000  H
  H159     1.0000 0.82570  0.22790  0.89040  Biso   1.000  H
  C57      1.0000 0.85200  0.70420  0.95732  Biso   1.000  C
  H160     1.0000 0.82900  0.71580  0.98630  Biso   1.000  H
  H161     1.0000 0.81460  0.65770  0.93590  Biso   1.000  H
  H162     1.0000 0.86590  0.79890  0.94580  Biso   1.000  H
  C58      1.0000 0.68170  0.68240  0.65780  Biso   1.000  C
  H163     1.0000 0.70110  0.74650  0.63450  Biso   1.000  H
  H164     1.0000 0.62530  0.69840  0.65820  Biso   1.000  H
  C59      1.0000 0.54740  0.37330  0.81949  Biso   1.000  C
  H165     1.0000 0.58590  0.37200  0.84550  Biso   1.000  H
  H166     1.0000 0.56570  0.30640  0.79660  Biso   1.000  H
  H167     1.0000 0.96860  0.77200  0.01870  Biso   1.000  H
  C60      1.0000 0.13910  0.37200  0.85534  Biso   1.000  C
  H168     1.0000 0.10130  0.36980  0.82900  Biso   1.000  H
  H169     1.0000 0.12100  0.30340  0.87780  Biso   1.000  H
  C61      1.0000 0.43260  0.45110  0.87631  Biso   1.000  C
  H170     1.0000 0.46760  0.44410  0.90340  Biso   1.000  H
  H171     1.0000 0.37900  0.44120  0.88450  Biso   1.000  H
  H172     1.0000 0.43930  0.54490  0.86200  Biso   1.000  H
  C62      1.0000 0.25840  0.45820  0.80213  Biso   1.000  C
  H173     1.0000 0.21750  0.47200  0.77820  Biso   1.000  H
  H174     1.0000 0.30720  0.43590  0.78880  Biso   1.000  H
  H175     1.0000 0.26440  0.54650  0.82000  Biso   1.000  H
  C63      1.0000 0.82630  0.69690  0.70335  Biso   1.000  C
  H176     1.0000 0.83160  0.59490  0.69560  Biso   1.000  H
  H177     1.0000 0.85770  0.71750  0.73110  Biso   1.000  H
  H178     1.0000 0.84400  0.75670  0.67900  Biso   1.000  H
  C64      1.0000 0.70350  0.19640  0.49704  Biso   1.000  C
  H179     1.0000 0.72350  0.26320  0.47470  Biso   1.000  H
  H180     1.0000 0.74180  0.19340  0.52310  Biso   1.000  H
  C65      1.0000 0.62360  0.40320  0.66964  Biso   1.000  C
  H181     1.0000 0.62810  0.42740  0.70170  Biso   1.000  H
  H182     1.0000 0.63020  0.29910  0.66590  Biso   1.000  H
  H183     1.0000 0.57240  0.43190  0.65670  Biso   1.000  H
  C66      1.0000 0.79760  0.30000  0.75594  Biso   1.000  C
  H184     1.0000 0.81190  0.37760  0.73580  Biso   1.000  H
  H185     1.0000 0.75920  0.23730  0.74020  Biso   1.000  H
  H186     1.0000 0.84370  0.24360  0.76520  Biso   1.000  H
  C67      1.0000 0.59120  0.13820  0.55779  Biso   1.000  C
  H187     1.0000 0.58510  0.04260  0.54410  Biso   1.000  H
  H188     1.0000 0.54310  0.16570  0.57110  Biso   1.000  H
  H189     1.0000 0.63350  0.13580  0.58120  Biso   1.000  H
  C68      1.0000 0.48080  0.52620  0.74600  Biso   1.000  C
  H190     1.0000 0.50080  0.44670  0.72860  Biso   1.000  H
  H191     1.0000 0.47970  0.61450  0.72800  Biso   1.000  H
  H192     1.0000 0.42830  0.50320  0.75410  Biso   1.000  H
  C69      1.0000 0.00000  0.08870  0.50000  Biso   1.000  C
  C70      1.0000 0.50000  0.58870  0.50000  Biso   1.000  C
  C71      1.0000 0.50000  0.20970  0.00000  Biso   1.000  C
  C72      1.0000 0.00000  0.70970  0.00000  Biso   1.000  C
