data_BIYYAL_charged
_audit_creation_date              2015-10-16
_audit_creation_method            'Materials Studio'
_symmetry_space_group_name_H-M    'P1'
_symmetry_Int_Tables_number       1
_symmetry_cell_setting            triclinic
loop_
_symmetry_equiv_pos_as_xyz
  x,y,z
_cell_length_a                    23.9724
_cell_length_b                    24.0928
_cell_length_c                    24.5693
_cell_angle_alpha                 86.1450
_cell_angle_beta                  61.5930
_cell_angle_gamma                 61.5330
loop_
_atom_site_label
_atom_site_type_symbol
_atom_site_fract_x
_atom_site_fract_y
_atom_site_fract_z
_atom_site_U_iso_or_equiv
_atom_site_adp_type
_atom_site_occupancy
Ho1    Ho    0.86124   0.35443   0.70338   0.01267  Uiso   1.00
Ho2    Ho    0.24014   0.77517   0.74305   0.01267  Uiso   1.00
Ho3    Ho    0.63401   0.79589   0.15351   0.01267  Uiso   1.00
Ho4    Ho    0.36599   0.20411   0.84649   0.01267  Uiso   1.00
Ho5    Ho    0.13876   0.64557   0.29662   0.01267  Uiso   1.00
Ho6    Ho    0.75986   0.22483   0.25695   0.01267  Uiso   1.00
H1     H     0.77280   0.00230   0.14680   0.01267  Uiso   1.00
H2     H     0.88330   0.15540   0.97560   0.01267  Uiso   1.00
H3     H     0.32180   0.42760   0.05610   0.01267  Uiso   1.00
H4     H     0.52340   0.31590   0.52250   0.01267  Uiso   1.00
H5     H     0.09800   0.80490   0.58850   0.01267  Uiso   1.00
H6     H     0.91560   0.21610   0.78830   0.01267  Uiso   1.00
H7     H     0.45940   0.93630   0.75400   0.01267  Uiso   1.00
H8     H     0.89110   0.50210   0.67920   0.01267  Uiso   1.00
H9     H     0.23790   0.90460   0.63200   0.01267  Uiso   1.00
H10    H     0.81560   0.90620   0.00200   0.01267  Uiso   1.00
H11    H     0.71570   0.46910   0.89570   0.01267  Uiso   1.00
H12    H     0.47660   0.68410   0.47750   0.01267  Uiso   1.00
H13    H     0.62140   0.77550   0.00200   0.01267  Uiso   1.00
H14    H     0.07390   0.90630   0.26240   0.01267  Uiso   1.00
H15    H     0.37450   0.05570   0.04840   0.01267  Uiso   1.00
H16    H     0.56320   0.13780   0.26800   0.01267  Uiso   1.00
H17    H     0.86260   0.16250   0.35610   0.01267  Uiso   1.00
H18    H     0.76480   0.33150   0.13380   0.01267  Uiso   1.00
H19    H     0.94050   0.23330   0.45230   0.01267  Uiso   1.00
H20    H     0.33570   0.82920   0.25610   0.01267  Uiso   1.00
H21    H     0.49450   0.67320   0.12040   0.01267  Uiso   1.00
H22    H     0.17880   0.31820   0.02030   0.01267  Uiso   1.00
H23    H     0.10970   0.85550   0.93130   0.01267  Uiso   1.00
H24    H     0.43680   0.86220   0.73200   0.01267  Uiso   1.00
H25    H     0.40400   0.88050   0.43830   0.01267  Uiso   1.00
H26    H     0.54060   0.06370   0.24600   0.01267  Uiso   1.00
H27    H     0.41150   0.87200   0.22030   0.01267  Uiso   1.00
H28    H     0.40160   0.78740   0.74040   0.01267  Uiso   1.00
H29    H     0.87110   0.70030   0.04300   0.01267  Uiso   1.00
H30    H     0.39570   0.42300   0.75370   0.01267  Uiso   1.00
H31    H     0.42630   0.33330   0.80080   0.01267  Uiso   1.00
H32    H     0.42090   0.00970   0.10150   0.01267  Uiso   1.00
H33    H     0.46330   0.65870   0.82350   0.01267  Uiso   1.00
H34    H     0.35340   0.85670   0.63850   0.01267  Uiso   1.00
H35    H     0.55820   0.56050   0.64820   0.01267  Uiso   1.00
H36    H     0.35200   0.31020   0.06040   0.01267  Uiso   1.00
H37    H     0.56010   0.56360   0.82170   0.01267  Uiso   1.00
H38    H     0.48810   0.01760   0.73830   0.01267  Uiso   1.00
H39    H     0.85640   0.18860   0.71560   0.01267  Uiso   1.00
H40    H     0.81870   0.50940   0.12180   0.01267  Uiso   1.00
H41    H     0.25380   0.65170   0.95320   0.01267  Uiso   1.00
H42    H     0.12580   0.45150   0.17970   0.01267  Uiso   1.00
H43    H     0.92490   0.24420   0.24090   0.01267  Uiso   1.00
H44    H     0.64440   0.50730   0.29840   0.01267  Uiso   1.00
H45    H     0.05950   0.76670   0.54770   0.01267  Uiso   1.00
H46    H     0.82120   0.68180   0.97970   0.01267  Uiso   1.00
H47    H     0.83990   0.01430   0.39400   0.01267  Uiso   1.00
H48    H     0.90830   0.64130   0.16870   0.01267  Uiso   1.00
H49    H     0.03660   0.33920   0.55850   0.01267  Uiso   1.00
H50    H     0.22720   0.99770   0.85320   0.01267  Uiso   1.00
H51    H     0.01560   0.25780   0.15320   0.01267  Uiso   1.00
H52    H     0.71470   0.85330   0.22430   0.01267  Uiso   1.00
H53    H     0.67130   0.90260   0.01840   0.01267  Uiso   1.00
H54    H     0.55730   0.39220   0.34210   0.01267  Uiso   1.00
H55    H     0.67040   0.41350   0.33560   0.01267  Uiso   1.00
H56    H     0.76210   0.09540   0.36800   0.01267  Uiso   1.00
H57    H     0.08950   0.24940   0.62940   0.01267  Uiso   1.00
H58    H     0.58850   0.12800   0.77970   0.01267  Uiso   1.00
H59    H     0.56510   0.32830   0.42200   0.01267  Uiso   1.00
H60    H     0.53670   0.34130   0.17650   0.01267  Uiso   1.00
H61    H     0.03550   0.19040   0.58820   0.01267  Uiso   1.00
H62    H     0.96450   0.80960   0.41180   0.01267  Uiso   1.00
H63    H     0.90200   0.19510   0.41150   0.01267  Uiso   1.00
H64    H     0.74620   0.34830   0.04680   0.01267  Uiso   1.00
H65    H     0.29230   0.66140   0.01850   0.01267  Uiso   1.00
H66    H     0.25490   0.06420   0.78940   0.01267  Uiso   1.00
H67    H     0.77860   0.27770   0.65520   0.01267  Uiso   1.00
H68    H     0.96340   0.66080   0.44150   0.01267  Uiso   1.00
H69    H     0.26860   0.10720   0.90970   0.01267  Uiso   1.00
H70    H     0.19400   0.91930   0.86510   0.01267  Uiso   1.00
H71    H     0.40230   0.30330   0.71700   0.01267  Uiso   1.00
H72    H     0.14360   0.81140   0.28440   0.01267  Uiso   1.00
H73    H     0.32960   0.58650   0.66440   0.01267  Uiso   1.00
H74    H     0.08460   0.80590   0.11740   0.01267  Uiso   1.00
H75    H     0.02370   0.32660   0.83070   0.01267  Uiso   1.00
H76    H     0.45220   0.87980   0.33130   0.01267  Uiso   1.00
H77    H     0.66780   0.51040   0.81560   0.01267  Uiso   1.00
H78    H     0.05710   0.68560   0.18680   0.01267  Uiso   1.00
H79    H     0.08060   0.96940   0.81550   0.01267  Uiso   1.00
H80    H     0.97200   0.09360   0.13440   0.01267  Uiso   1.00
H81    H     0.33860   0.22300   0.69700   0.01267  Uiso   1.00
H82    H     0.60430   0.57700   0.24630   0.01267  Uiso   1.00
H83    H     0.57370   0.66670   0.19920   0.01267  Uiso   1.00
H84    H     0.70770   0.33860   0.98150   0.01267  Uiso   1.00
H85    H     0.65130   0.29690   0.16750   0.01267  Uiso   1.00
H86    H     0.54780   0.12020   0.66870   0.01267  Uiso   1.00
H87    H     0.44270   0.60780   0.65790   0.01267  Uiso   1.00
H88    H     0.32870   0.09740   0.98160   0.01267  Uiso   1.00
H89    H     0.04500   0.28860   0.05020   0.01267  Uiso   1.00
H90    H     0.57360   0.36320   0.85540   0.01267  Uiso   1.00
H91    H     0.35560   0.49270   0.70160   0.01267  Uiso   1.00
H92    H     0.43330   0.28230   0.91960   0.01267  Uiso   1.00
H93    H     0.14790   0.40710   0.08080   0.01267  Uiso   1.00
H94    H     0.93030   0.89900   0.95230   0.01267  Uiso   1.00
H95    H     0.56140   0.69320   0.38850   0.01267  Uiso   1.00
H96    H     0.50550   0.32680   0.87960   0.01267  Uiso   1.00
H97    H     0.67820   0.57240   0.94390   0.01267  Uiso   1.00
H98    H     0.39390   0.87140   0.53320   0.01267  Uiso   1.00
H99    H     0.06970   0.10100   0.04770   0.01267  Uiso   1.00
H100   H     0.73140   0.89280   0.09030   0.01267  Uiso   1.00
H101   H     0.74510   0.93580   0.21060   0.01267  Uiso   1.00
H102   H     0.00230   0.05360   0.79010   0.01267  Uiso   1.00
H103   H     0.47010   0.96020   0.16190   0.01267  Uiso   1.00
H104   H     0.21180   0.39960   0.92010   0.01267  Uiso   1.00
H105   H     0.17290   0.25750   0.64350   0.01267  Uiso   1.00
H106   H     0.25600   0.22470   0.67140   0.01267  Uiso   1.00
H107   H     0.35590   0.58790   0.18740   0.01267  Uiso   1.00
H108   H     0.71250   0.22630   0.69560   0.01267  Uiso   1.00
H109   H     0.13740   0.83750   0.64390   0.01267  Uiso   1.00
H110   H     0.23410   0.58220   0.39420   0.01267  Uiso   1.00
H111   H     0.07510   0.75580   0.75910   0.01267  Uiso   1.00
H112   H     0.26550   0.61350   0.45500   0.01267  Uiso   1.00
H113   H     0.89100   0.90210   0.39020   0.01267  Uiso   1.00
H114   H     0.60610   0.12860   0.46680   0.01267  Uiso   1.00
H115   H     0.16650   0.58450   0.86430   0.01267  Uiso   1.00
H116   H     0.07630   0.39200   0.47440   0.01267  Uiso   1.00
H117   H     0.23520   0.66850   0.86620   0.01267  Uiso   1.00
H118   H     0.74400   0.77530   0.32860   0.01267  Uiso   1.00
H119   H     0.29280   0.64060   0.11230   0.01267  Uiso   1.00
H120   H     0.09280   0.55200   0.22900   0.01267  Uiso   1.00
H121   H     0.59840   0.21260   0.25960   0.01267  Uiso   1.00
H122   H     0.59600   0.11950   0.56170   0.01267  Uiso   1.00
H123   H     0.65580   0.57640   0.63980   0.01267  Uiso   1.00
H124   H     0.33220   0.48960   0.18440   0.01267  Uiso   1.00
H125   H     0.76590   0.41780   0.60580   0.01267  Uiso   1.00
H126   H     0.43860   0.30680   0.61150   0.01267  Uiso   1.00
H127   H     0.90720   0.44800   0.77100   0.01267  Uiso   1.00
H128   H     0.22140   0.72230   0.34480   0.01267  Uiso   1.00
H129   H     0.73450   0.38650   0.54500   0.01267  Uiso   1.00
H130   H     0.09170   0.35870   0.83130   0.01267  Uiso   1.00
H131   H     0.11670   0.84460   0.02440   0.01267  Uiso   1.00
H132   H     0.08670   0.44190   0.40230   0.01267  Uiso   1.00
H133   H     0.42640   0.63680   0.14460   0.01267  Uiso   1.00
H134   H     0.10900   0.09790   0.60980   0.01267  Uiso   1.00
H135   H     0.66140   0.77700   0.30300   0.01267  Uiso   1.00
H136   H     0.52990   0.03980   0.83810   0.01267  Uiso   1.00
H137   H     0.83350   0.41550   0.13570   0.01267  Uiso   1.00
H138   H     0.16010   0.98570   0.60600   0.01267  Uiso   1.00
H139   H     0.12890   0.29970   0.95700   0.01267  Uiso   1.00
H140   H     0.68110   0.33110   0.41920   0.01267  Uiso   1.00
H141   H     0.43990   0.43640   0.17830   0.01267  Uiso   1.00
H142   H     0.28530   0.14670   0.77570   0.01267  Uiso   1.00
H143   H     0.82420   0.64570   0.14440   0.01267  Uiso   1.00
H144   H     0.28750   0.77370   0.30440   0.01267  Uiso   1.00
H145   H     0.71690   0.36960   0.47400   0.01267  Uiso   1.00
H146   H     0.80600   0.08070   0.13490   0.01267  Uiso   1.00
H147   H     0.91540   0.19410   0.88260   0.01267  Uiso   1.00
H148   H     0.44180   0.43950   0.35180   0.01267  Uiso   1.00
H149   H     0.28310   0.63040   0.52600   0.01267  Uiso   1.00
H150   H     0.92370   0.60800   0.52560   0.01267  Uiso   1.00
H151   H     0.13780   0.68090   0.82390   0.01267  Uiso   1.00
H152   H     0.28430   0.53090   0.10430   0.01267  Uiso   1.00
H153   H     0.95500   0.71140   0.94980   0.01267  Uiso   1.00
H154   H     0.10890   0.49790   0.32080   0.01267  Uiso   1.00
H155   H     0.91330   0.55810   0.59770   0.01267  Uiso   1.00
H156   H     0.99770   0.94640   0.20990   0.01267  Uiso   1.00
H157   H     0.17580   0.35430   0.85560   0.01267  Uiso   1.00
H158   H     0.96840   0.27350   0.51360   0.01267  Uiso   1.00
H159   H     0.22780   0.48660   0.36740   0.01267  Uiso   1.00
H160   H     0.62550   0.94430   0.95160   0.01267  Uiso   1.00
H161   H     0.85210   0.59290   0.91920   0.01267  Uiso   1.00
H162   H     0.78820   0.60040   0.07990   0.01267  Uiso   1.00
H163   H     0.34420   0.42360   0.36020   0.01267  Uiso   1.00
H164   H     0.91940   0.03060   0.18450   0.01267  Uiso   1.00
H165   H     0.03160   0.72650   0.48640   0.01267  Uiso   1.00
H166   H     0.51190   0.98240   0.26170   0.01267  Uiso   1.00
H167   H     0.31890   0.66890   0.58080   0.01267  Uiso   1.00
H168   H     0.97630   0.67340   0.16930   0.01267  Uiso   1.00
H169   H     0.66430   0.17080   0.74390   0.01267  Uiso   1.00
H170   H     0.98440   0.74220   0.84680   0.01267  Uiso   1.00
H171   H     0.56670   0.71770   0.08040   0.01267  Uiso   1.00
H172   H     0.94290   0.31440   0.81320   0.01267  Uiso   1.00
H173   H     0.64660   0.14330   0.36150   0.01267  Uiso   1.00
H174   H     0.70720   0.35940   0.88770   0.01267  Uiso   1.00
H175   H     0.87420   0.54850   0.82030   0.01267  Uiso   1.00
H176   H     0.82710   0.74250   0.35650   0.01267  Uiso   1.00
H177   H     0.57910   0.99030   0.89850   0.01267  Uiso   1.00
H178   H     0.43490   0.67170   0.57800   0.01267  Uiso   1.00
H179   H     0.59770   0.69670   0.28300   0.01267  Uiso   1.00
H180   H     0.64800   0.68980   0.93960   0.01267  Uiso   1.00
H181   H     0.02800   0.90640   0.86560   0.01267  Uiso   1.00
H182   H     0.18440   0.09380   0.99800   0.01267  Uiso   1.00
H183   H     0.91050   0.75060   0.37060   0.01267  Uiso   1.00
H184   H     0.77220   0.51340   0.63260   0.01267  Uiso   1.00
H185   H     0.92610   0.09370   0.73760   0.01267  Uiso   1.00
H186   H     0.34870   0.70310   0.83250   0.01267  Uiso   1.00
H187   H     0.86220   0.31910   0.17610   0.01267  Uiso   1.00
H188   H     0.37860   0.22450   0.99800   0.01267  Uiso   1.00
H189   H     0.08440   0.78390   0.21170   0.01267  Uiso   1.00
H190   H     0.64410   0.41210   0.81260   0.01267  Uiso   1.00
H191   H     0.89030   0.14450   0.06870   0.01267  Uiso   1.00
H192   H     0.18130   0.49060   0.87820   0.01267  Uiso   1.00
C1     C     0.44330   0.84180   0.40790   0.01267  Uiso   1.00
C2     C     0.77690   0.85640   0.06100   0.01267  Uiso   1.00
C3     C     0.62380   0.63520   0.18450   0.01267  Uiso   1.00
C4     C     0.50150   0.95790   0.11870   0.01267  Uiso   1.00
C5     C     0.52240   0.28590   0.85790   0.01267  Uiso   1.00
C6     C     0.27180   0.47580   0.32870   0.01267  Uiso   1.00
C7     C     0.96510   0.58400   0.48500   0.01267  Uiso   1.00
C8     C     0.14000   0.52670   0.19270   0.01267  Uiso   1.00
C9     C     0.52880   0.16010   0.65610   0.01267  Uiso   1.00
C10    C     0.81550   0.25370   0.99980   0.01267  Uiso   1.00
C11    C     0.20070   0.58400   0.82300   0.01267  Uiso   1.00
C12    C     0.44280   0.26620   0.68490   0.01267  Uiso   1.00
C13    C     0.07660   0.26510   0.67050   0.01267  Uiso   1.00
C14    C     0.99340   0.48170   0.52630   0.01267  Uiso   1.00
C15    C     0.19580   0.37020   0.06340   0.01267  Uiso   1.00
C16    C     0.27350   0.45300   0.09110   0.01267  Uiso   1.00
C17    C     0.63520   0.28810   0.77870   0.01267  Uiso   1.00
C18    C     0.14380   0.98300   0.64920   0.01267  Uiso   1.00
C19    C     0.85980   0.74150   0.03240   0.01267  Uiso   1.00
C20    C     0.33180   0.26260   0.01420   0.01267  Uiso   1.00
C21    C     0.92340   0.73490   0.32950   0.01267  Uiso   1.00
C22    C     0.51570   0.58960   0.68610   0.01267  Uiso   1.00
C23    C     0.85590   0.22430   0.41490   0.01267  Uiso   1.00
C24    C     0.94120   0.51230   0.58790   0.01267  Uiso   1.00
C25    C     0.00660   0.51830   0.47370   0.01267  Uiso   1.00
C26    C     0.54670   0.28000   0.49020   0.01267  Uiso   1.00
C27    C     0.68350   0.68670   0.94890   0.01267  Uiso   1.00
C28    C     0.78540   0.68200   0.97270   0.01267  Uiso   1.00
C29    C     0.47760   0.71410   0.14210   0.01267  Uiso   1.00
C30    C     0.01910   0.87290   0.86170   0.01267  Uiso   1.00
C31    C     0.75030   0.59550   0.11380   0.01267  Uiso   1.00
C32    C     0.02300   0.08810   0.68070   0.01267  Uiso   1.00
C33    C     0.90830   0.16990   0.69510   0.01267  Uiso   1.00
C34    C     0.59290   0.94900   0.99510   0.01267  Uiso   1.00
C35    C     0.80200   0.38050   0.57280   0.01267  Uiso   1.00
C36    C     0.36480   0.71190   0.22130   0.01267  Uiso   1.00
C37    C     0.21460   0.31800   0.02730   0.01267  Uiso   1.00
C38    C     0.47560   0.78400   0.42570   0.01267  Uiso   1.00
C39    C     0.15970   0.46660   0.16340   0.01267  Uiso   1.00
C40    C     0.35580   0.98990   0.77260   0.01267  Uiso   1.00
C41    C     0.64420   0.01010   0.22740   0.01267  Uiso   1.00
C42    C     0.83590   0.70910   0.24890   0.01267  Uiso   1.00
C43    C     0.26490   0.52740   0.78760   0.01267  Uiso   1.00
C44    C     0.36600   0.83060   0.76320   0.01267  Uiso   1.00
C45    C     0.01020   0.69640   0.22170   0.01267  Uiso   1.00
C46    C     0.55720   0.73380   0.31510   0.01267  Uiso   1.00
C47    C     0.72650   0.54700   0.90890   0.01267  Uiso   1.00
C48    C     0.63400   0.16940   0.23680   0.01267  Uiso   1.00
C49    C     0.98090   0.12710   0.13830   0.01267  Uiso   1.00
C50    C     0.03490   0.41600   0.51500   0.01267  Uiso   1.00
C51    C     0.38010   0.07710   0.96560   0.01267  Uiso   1.00
C52    C     0.79930   0.41600   0.17700   0.01267  Uiso   1.00
C53    C     0.71270   0.75040   0.27450   0.01267  Uiso   1.00
C54    C     0.87260   0.24100   0.82780   0.01267  Uiso   1.00
C55    C     0.13780   0.81400   0.93710   0.01267  Uiso   1.00
C56    C     0.57260   0.28720   0.43120   0.01267  Uiso   1.00
C57    C     0.40550   0.82950   0.54190   0.01267  Uiso   1.00
C58    C     0.38440   0.65490   0.18590   0.01267  Uiso   1.00
C59    C     0.84030   0.53340   0.83660   0.01267  Uiso   1.00
C60    C     0.95090   0.81650   0.90860   0.01267  Uiso   1.00
C61    C     0.38620   0.87500   0.75710   0.01267  Uiso   1.00
C62    C     0.40470   0.42710   0.26870   0.01267  Uiso   1.00
C63    C     0.86000   0.47330   0.80730   0.01267  Uiso   1.00
C64    C     0.24930   0.68720   0.05770   0.01267  Uiso   1.00
C65    C     0.90400   0.27270   0.48250   0.01267  Uiso   1.00
C66    C     0.05060   0.88580   0.29150   0.01267  Uiso   1.00
C67    C     0.80790   0.67300   0.18120   0.01267  Uiso   1.00
C68    C     0.35760   0.41940   0.78890   0.01267  Uiso   1.00
C69    C     0.97700   0.91190   0.31930   0.01267  Uiso   1.00
C70    C     0.26360   0.70490   0.30360   0.01267  Uiso   1.00
C71    C     0.34120   0.43950   0.32470   0.01267  Uiso   1.00
C72    C     0.03830   0.30990   0.78930   0.01267  Uiso   1.00
C73    C     0.60860   0.32700   0.20470   0.01267  Uiso   1.00
C74    C     0.61560   0.34510   0.81410   0.01267  Uiso   1.00
C75    C     0.85780   0.19240   0.00750   0.01267  Uiso   1.00
C76    C     0.39700   0.44650   0.21780   0.01267  Uiso   1.00
C77    C     0.22310   0.14360   0.93900   0.01267  Uiso   1.00
C78    C     0.42740   0.71280   0.56880   0.01267  Uiso   1.00
C79    C     0.72820   0.52420   0.67130   0.01267  Uiso   1.00
C80    C     0.98640   0.61510   0.43370   0.01267  Uiso   1.00
C81    C     0.48470   0.01670   0.97980   0.01267  Uiso   1.00
C82    C     0.14260   0.32930   0.80390   0.01267  Uiso   1.00
C83    C     0.89090   0.70870   0.26130   0.01267  Uiso   1.00
C84    C     0.04910   0.18350   0.09140   0.01267  Uiso   1.00
C85    C     0.33540   0.93830   0.78610   0.01267  Uiso   1.00
C86    C     0.76840   0.54140   0.13850   0.01267  Uiso   1.00
C87    C     0.85740   0.67070   0.19610   0.01267  Uiso   1.00
C88    C     0.31090   0.53110   0.72840   0.01267  Uiso   1.00
C89    C     0.27400   0.69700   0.58160   0.01267  Uiso   1.00
C90    C     0.23160   0.45860   0.86150   0.01267  Uiso   1.00
C91    C     0.51530   0.98330   0.02020   0.01267  Uiso   1.00
C92    C     0.28730   0.24960   0.72550   0.01267  Uiso   1.00
C93    C     0.61990   0.92290   0.03440   0.01267  Uiso   1.00
C94    C     0.25280   0.67390   0.54850   0.01267  Uiso   1.00
C95    C     0.86220   0.18600   0.06290   0.01267  Uiso   1.00
C96    C     0.28610   0.46790   0.81180   0.01267  Uiso   1.00
C97    C     0.82580   0.86410   0.00940   0.01267  Uiso   1.00
C98    C     0.17420   0.13590   0.99060   0.01267  Uiso   1.00
C99    C     0.92710   0.47940   0.63670   0.01267  Uiso   1.00
C100   C     0.22210   0.69380   0.95110   0.01267  Uiso   1.00
C101   C     0.73640   0.29510   0.69640   0.01267  Uiso   1.00
C102   C     0.94940   0.11420   0.70850   0.01267  Uiso   1.00
C103   C     0.09170   0.83010   0.30490   0.01267  Uiso   1.00
C104   C     0.62090   0.17860   0.39540   0.01267  Uiso   1.00
C105   C     0.46520   0.26810   0.62210   0.01267  Uiso   1.00
C106   C     0.68910   0.46890   0.27160   0.01267  Uiso   1.00
C107   C     0.12590   0.26940   0.67890   0.01267  Uiso   1.00
C108   C     0.77790   0.30620   0.04890   0.01267  Uiso   1.00
C109   C     0.52040   0.73990   0.11830   0.01267  Uiso   1.00
C110   C     0.30330   0.73510   0.27960   0.01267  Uiso   1.00
C111   C     0.69670   0.26490   0.72040   0.01267  Uiso   1.00
C112   C     0.76120   0.74940   0.29050   0.01267  Uiso   1.00
C113   C     0.90970   0.74860   0.97810   0.01267  Uiso   1.00
C114   C     0.81080   0.06560   0.33590   0.01267  Uiso   1.00
C115   C     0.71390   0.53210   0.18820   0.01267  Uiso   1.00
C116   C     0.55160   0.22300   0.50750   0.01267  Uiso   1.00
C117   C     0.18370   0.64240   0.79960   0.01267  Uiso   1.00
C118   C     0.01360   0.38490   0.56630   0.01267  Uiso   1.00
C119   C     0.98980   0.30360   0.77830   0.01267  Uiso   1.00
C120   C     0.56000   0.97280   0.24970   0.01267  Uiso   1.00
C121   C     0.10420   0.19290   0.03610   0.01267  Uiso   1.00
C122   C     0.00760   0.22390   0.14830   0.01267  Uiso   1.00
C123   C     0.52440   0.21600   0.57430   0.01267  Uiso   1.00
C124   C     0.30250   0.05410   0.77960   0.01267  Uiso   1.00
C125   C     0.37620   0.36480   0.81550   0.01267  Uiso   1.00
C126   C     0.21240   0.70420   0.89860   0.01267  Uiso   1.00
C127   C     0.22730   0.43070   0.11200   0.01267  Uiso   1.00
C128   C     0.42920   0.83040   0.19960   0.01267  Uiso   1.00
C129   C     0.07090   0.03140   0.69680   0.01267  Uiso   1.00
C130   C     0.18540   0.71530   0.54820   0.01267  Uiso   1.00
C131   C     0.99240   0.77610   0.85170   0.01267  Uiso   1.00
C132   C     0.07290   0.52060   0.36330   0.01267  Uiso   1.00
C133   C     0.52710   0.01370   0.91720   0.01267  Uiso   1.00
C134   C     0.09030   0.25140   0.02190   0.01267  Uiso   1.00
C135   C     0.87230   0.22850   0.88440   0.01267  Uiso   1.00
C136   C     0.67970   0.89650   0.22790   0.01267  Uiso   1.00
C137   C     0.78340   0.36190   0.53730   0.01267  Uiso   1.00
C138   C     0.61520   0.19550   0.77800   0.01267  Uiso   1.00
C139   C     0.96170   0.69010   0.21070   0.01267  Uiso   1.00
C140   C     0.72600   0.30300   0.41840   0.01267  Uiso   1.00
C141   C     0.95230   0.21650   0.20080   0.01267  Uiso   1.00
C142   C     0.31650   0.31330   0.05110   0.01267  Uiso   1.00
C143   C     0.54050   0.35270   0.21040   0.01267  Uiso   1.00
C144   C     0.39140   0.67300   0.79530   0.01267  Uiso   1.00
C145   C     0.87410   0.73060   0.32110   0.01267  Uiso   1.00
C146   C     0.14020   0.25850   0.96760   0.01267  Uiso   1.00
C147   C     0.65880   0.56050   0.67530   0.01267  Uiso   1.00
C148   C     0.80420   0.62980   0.93660   0.01267  Uiso   1.00
C149   C     0.18450   0.74630   0.00020   0.01267  Uiso   1.00
C150   C     0.75030   0.32530   0.88630   0.01267  Uiso   1.00
C151   C     0.01320   0.17150   0.62050   0.01267  Uiso   1.00
C152   C     0.19800   0.61950   0.42720   0.01267  Uiso   1.00
C153   C     0.55310   0.38350   0.30750   0.01267  Uiso   1.00
C154   C     0.96140   0.86780   0.91400   0.01267  Uiso   1.00
C155   C     0.09600   0.72730   0.51750   0.01267  Uiso   1.00
C156   C     0.48430   0.41040   0.31390   0.01267  Uiso   1.00
C157   C     0.83180   0.20450   0.38200   0.01267  Uiso   1.00
C158   C     0.61380   0.12500   0.24290   0.01267  Uiso   1.00
C159   C     0.92910   0.96860   0.30320   0.01267  Uiso   1.00
C160   C     0.25170   0.51450   0.12060   0.01267  Uiso   1.00
C161   C     0.94300   0.88330   0.36730   0.01267  Uiso   1.00
C162   C     0.73730   0.04510   0.17080   0.01267  Uiso   1.00
C163   C     0.32030   0.10350   0.77210   0.01267  Uiso   1.00
C164   C     0.14220   0.80760   0.99250   0.01267  Uiso   1.00
C165   C     0.18920   0.93440   0.66410   0.01267  Uiso   1.00
C166   C     0.05880   0.48770   0.41210   0.01267  Uiso   1.00
C167   C     0.70400   0.41320   0.29410   0.01267  Uiso   1.00
C168   C     0.24330   0.90850   0.83630   0.01267  Uiso   1.00
C169   C     0.83380   0.30740   0.48940   0.01267  Uiso   1.00
C170   C     0.59450   0.17050   0.45810   0.01267  Uiso   1.00
C171   C     0.78760   0.29580   0.10140   0.01267  Uiso   1.00
C172   C     0.98680   0.82850   0.37950   0.01267  Uiso   1.00
C173   C     0.12740   0.75900   0.17220   0.01267  Uiso   1.00
C174   C     0.42280   0.97900   0.75840   0.01267  Uiso   1.00
C175   C     0.75670   0.09150   0.16370   0.01267  Uiso   1.00
C176   C     0.16620   0.69260   0.51060   0.01267  Uiso   1.00
C177   C     0.49850   0.04210   0.88130   0.01267  Uiso   1.00
C178   C     0.37910   0.82140   0.60460   0.01267  Uiso   1.00
C179   C     0.26270   0.95490   0.82920   0.01267  Uiso   1.00
C180   C     0.05700   0.11670   0.63270   0.01267  Uiso   1.00
C181   C     0.90360   0.02710   0.22740   0.01267  Uiso   1.00
C182   C     0.45330   0.72000   0.50980   0.01267  Uiso   1.00
C183   C     0.24830   0.36980   0.07520   0.01267  Uiso   1.00
C184   C     0.29600   0.58680   0.70590   0.01267  Uiso   1.00
C185   C     0.52240   0.60510   0.73480   0.01267  Uiso   1.00
C186   C     0.66820   0.73740   0.98580   0.01267  Uiso   1.00
C187   C     0.18800   0.73610   0.05800   0.01267  Uiso   1.00
C188   C     0.24970   0.40450   0.88620   0.01267  Uiso   1.00
C189   C     0.65730   0.37410   0.78870   0.01267  Uiso   1.00
C190   C     0.75170   0.63020   0.92480   0.01267  Uiso   1.00
C191   C     0.34270   0.62590   0.21130   0.01267  Uiso   1.00
C192   C     0.16820   0.79550   0.61800   0.01267  Uiso   1.00
C193   C     0.69750   0.94590   0.22040   0.01267  Uiso   1.00
C194   C     0.73510   0.47260   0.21240   0.01267  Uiso   1.00
C195   C     0.59530   0.57290   0.73130   0.01267  Uiso   1.00
C196   C     0.44000   0.02720   0.75030   0.01267  Uiso   1.00
C197   C     0.38480   0.80450   0.22200   0.01267  Uiso   1.00
C198   C     0.74720   0.32610   0.45150   0.01267  Uiso   1.00
C199   C     0.58920   0.25650   0.80420   0.01267  Uiso   1.00
C200   C     0.44690   0.61650   0.69250   0.01267  Uiso   1.00
C201   C     0.81200   0.26390   0.94200   0.01267  Uiso   1.00
C202   C     0.55670   0.15820   0.59210   0.01267  Uiso   1.00
C203   C     0.40710   0.05100   0.00490   0.01267  Uiso   1.00
C204   C     0.75070   0.31280   0.94230   0.01267  Uiso   1.00
C205   C     0.60300   0.55350   0.78220   0.01267  Uiso   1.00
C206   C     0.53480   0.73190   0.37790   0.01267  Uiso   1.00
C207   C     0.77270   0.56930   0.88800   0.01267  Uiso   1.00
C208   C     0.19210   0.32700   0.81880   0.01267  Uiso   1.00
C209   C     0.44840   0.77700   0.49250   0.01267  Uiso   1.00
C210   C     0.41080   0.74350   0.19580   0.01267  Uiso   1.00
C211   C     0.47120   0.83990   0.34390   0.01267  Uiso   1.00
C212   C     0.64240   0.58060   0.21110   0.01267  Uiso   1.00
C213   C     0.24970   0.67470   0.11370   0.01267  Uiso   1.00
C214   C     0.16410   0.29090   0.75110   0.01267  Uiso   1.00
C215   C     0.85620   0.01700   0.35080   0.01267  Uiso   1.00
C216   C     0.47960   0.26010   0.88170   0.01267  Uiso   1.00
C217   C     0.47290   0.98630   0.08280   0.01267  Uiso   1.00
C218   C     0.66600   0.52220   0.77860   0.01267  Uiso   1.00
C219   C     0.89580   0.80710   0.96390   0.01267  Uiso   1.00
C220   C     0.08000   0.70400   0.48010   0.01267  Uiso   1.00
C221   C     0.81460   0.28470   0.45180   0.01267  Uiso   1.00
C222   C     0.66460   0.06170   0.21390   0.01267  Uiso   1.00
C223   C     0.05030   0.02340   0.75720   0.01267  Uiso   1.00
C224   C     0.03860   0.13220   0.08600   0.01267  Uiso   1.00
C225   C     0.09640   0.97290   0.77260   0.01267  Uiso   1.00
C226   C     0.94970   0.97660   0.24280   0.01267  Uiso   1.00
C227   C     0.74830   0.48550   0.87940   0.01267  Uiso   1.00
C228   C     0.47760   0.39490   0.26520   0.01267  Uiso   1.00
C229   C     0.21660   0.63810   0.46270   0.01267  Uiso   1.00
C230   C     0.14410   0.77570   0.58510   0.01267  Uiso   1.00
C231   C     0.57720   0.02100   0.24160   0.01267  Uiso   1.00
C232   C     0.92000   0.29600   0.51990   0.01267  Uiso   1.00
C233   C     0.23880   0.25060   0.70950   0.01267  Uiso   1.00
C234   C     0.04770   0.78350   0.79920   0.01267  Uiso   1.00
C235   C     0.45950   0.64730   0.78960   0.01267  Uiso   1.00
C236   C     0.12770   0.77150   0.11560   0.01267  Uiso   1.00
C237   C     0.81630   0.35760   0.20040   0.01267  Uiso   1.00
C238   C     0.33400   0.47780   0.22140   0.01267  Uiso   1.00
C239   C     0.10910   0.29130   0.73870   0.01267  Uiso   1.00
C240   C     0.57080   0.16960   0.80040   0.01267  Uiso   1.00
N1     N     0.38700   0.08810   0.75970   0.01267  Uiso   1.00
N2     N     0.73500   0.71540   0.22040   0.01267  Uiso   1.00
N3     N     0.39090   0.76280   0.61550   0.01267  Uiso   1.00
N4     N     0.81340   0.45230   0.83020   0.01267  Uiso   1.00
N5     N     0.71640   0.34910   0.73040   0.01267  Uiso   1.00
N6     N     0.70630   0.15180   0.19730   0.01267  Uiso   1.00
N7     N     0.93910   0.17020   0.19330   0.01267  Uiso   1.00
N8     N     0.76690   0.24320   0.38600   0.01267  Uiso   1.00
N9     N     0.61300   0.91190   0.24030   0.01267  Uiso   1.00
N10    N     0.32090   0.35760   0.86330   0.01267  Uiso   1.00
N11    N     0.67910   0.64240   0.13670   0.01267  Uiso   1.00
N12    N     0.71530   0.73630   0.00030   0.01267  Uiso   1.00
N13    N     0.50250   0.20140   0.85120   0.01267  Uiso   1.00
N14    N     0.17190   0.76330   0.89370   0.01267  Uiso   1.00
N15    N     0.28470   0.26370   0.99970   0.01267  Uiso   1.00
N16    N     0.23310   0.75680   0.61400   0.01267  Uiso   1.00
N17    N     0.76540   0.35870   0.25800   0.01267  Uiso   1.00
N18    N     0.57660   0.92510   0.09370   0.01267  Uiso   1.00
N19    N     0.16530   0.92750   0.72560   0.01267  Uiso   1.00
N20    N     0.87030   0.34770   0.56310   0.01267  Uiso   1.00
N21    N     0.99370   0.71670   0.27840   0.01267  Uiso   1.00
N22    N     0.81080   0.28920   0.82990   0.01267  Uiso   1.00
N23    N     0.79280   0.79570   0.07130   0.01267  Uiso   1.00
N24    N     0.96380   0.41770   0.62300   0.01267  Uiso   1.00
N25    N     0.83470   0.07250   0.27440   0.01267  Uiso   1.00
N26    N     0.18920   0.71080   0.17010   0.01267  Uiso   1.00
N27    N     0.00630   0.28330   0.72160   0.01267  Uiso   1.00
N28    N     0.47950   0.21060   0.69990   0.01267  Uiso   1.00
N29    N     0.52050   0.78940   0.30010   0.01267  Uiso   1.00
N30    N     0.12970   0.65230   0.43690   0.01267  Uiso   1.00
N31    N     0.28360   0.65090   0.26960   0.01267  Uiso   1.00
N32    N     0.38470   0.65580   0.74840   0.01267  Uiso   1.00
N33    N     0.82810   0.23670   0.10630   0.01267  Uiso   1.00
N34    N     0.60910   0.23720   0.38450   0.01267  Uiso   1.00
N35    N     0.73080   0.50520   0.72320   0.01267  Uiso   1.00
N36    N     0.94210   0.19850   0.65180   0.01267  Uiso   1.00
N37    N     0.42340   0.07490   0.90630   0.01267  Uiso   1.00
N38    N     0.20720   0.20430   0.92870   0.01267  Uiso   1.00
N39    N     0.26500   0.28460   0.77960   0.01267  Uiso   1.00
N40    N     0.26920   0.49480   0.27680   0.01267  Uiso   1.00
N41    N     0.61530   0.34420   0.25160   0.01267  Uiso   1.00
N42    N     0.23460   0.64130   0.74200   0.01267  Uiso   1.00
N43    N     0.05790   0.80150   0.34820   0.01267  Uiso   1.00
N44    N     0.06090   0.82980   0.80670   0.01267  Uiso   1.00
N45    N     0.03620   0.58230   0.37700   0.01267  Uiso   1.00
N46    N     0.49750   0.79860   0.14880   0.01267  Uiso   1.00
N47    N     0.18660   0.54770   0.16980   0.01267  Uiso   1.00
N48    N     0.29370   0.84820   0.80270   0.01267  Uiso   1.00
O1     O     0.10070   0.74250   0.35600   0.01267  Uiso   1.00
O2     O     0.16780   0.60540   0.19590   0.01267  Uiso   1.00
O3     O     0.78820   0.11800   0.26040   0.01267  Uiso   1.00
O4     O     0.45800   0.17760   0.87170   0.01267  Uiso   1.00
O5     O     0.53780   0.79010   0.23960   0.01267  Uiso   1.00
O6     O     0.05030   0.61530   0.33150   0.01267  Uiso   1.00
O7     O     0.24790   0.61880   0.29220   0.01267  Uiso   1.00
O8     O     0.18910   0.69890   0.22260   0.01267  Uiso   1.00
O9     O     0.74370   0.22210   0.35800   0.01267  Uiso   1.00
O10    O     0.94970   0.38470   0.66850   0.01267  Uiso   1.00
O11    O     0.31250   0.28070   0.79550   0.01267  Uiso   1.00
O12    O     0.16390   0.76960   0.84390   0.01267  Uiso   1.00
O13    O     0.88290   0.16680   0.24050   0.01267  Uiso   1.00
O14    O     0.79570   0.46950   0.71960   0.01267  Uiso   1.00
O15    O     0.39720   0.10120   0.86750   0.01267  Uiso   1.00
O16    O     0.21180   0.88200   0.73960   0.01267  Uiso   1.00
O17    O     0.96090   0.27530   0.71160   0.01267  Uiso   1.00
O18    O     0.35760   0.75800   0.67740   0.01267  Uiso   1.00
O19    O     0.21940   0.69460   0.72160   0.01267  Uiso   1.00
O20    O     0.75210   0.38120   0.70780   0.01267  Uiso   1.00
O21    O     0.74560   0.78810   0.12440   0.01267  Uiso   1.00
O22    O     0.69810   0.78300   0.03950   0.01267  Uiso   1.00
O23    O     0.83220   0.39460   0.80410   0.01267  Uiso   1.00
O24    O     0.27250   0.80410   0.80970   0.01267  Uiso   1.00
O25    O     0.33730   0.30500   0.88910   0.01267  Uiso   1.00
O26    O     0.66270   0.69500   0.11090   0.01267  Uiso   1.00
O27    O     0.68070   0.32350   0.24430   0.01267  Uiso   1.00
O28    O     0.11440   0.63030   0.39950   0.01267  Uiso   1.00
O29    O     0.03910   0.72470   0.28840   0.01267  Uiso   1.00
O30    O     0.83610   0.23040   0.15610   0.01267  Uiso   1.00
O31    O     0.89930   0.25750   0.64400   0.01267  Uiso   1.00
O32    O     0.68750   0.71930   0.20450   0.01267  Uiso   1.00
O33    O     0.20430   0.53050   0.28040   0.01267  Uiso   1.00
O34    O     0.25630   0.77790   0.64200   0.01267  Uiso   1.00
O35    O     0.78060   0.30540   0.27840   0.01267  Uiso   1.00
O36    O     0.88560   0.36970   0.60050   0.01267  Uiso   1.00
O37    O     0.30190   0.21700   0.96050   0.01267  Uiso   1.00
O38    O     0.54200   0.82240   0.12830   0.01267  Uiso   1.00
O39    O     0.60130   0.86270   0.24170   0.01267  Uiso   1.00
O40    O     0.60280   0.89880   0.13250   0.01267  Uiso   1.00
O41    O     0.64240   0.24200   0.32260   0.01267  Uiso   1.00
O42    O     0.81090   0.30110   0.77740   0.01267  Uiso   1.00
O43    O     0.39870   0.13730   0.75830   0.01267  Uiso   1.00
O44    O     0.25440   0.21190   0.87560   0.01267  Uiso   1.00
O45    O     0.46220   0.20990   0.76040   0.01267  Uiso   1.00
O46    O     0.72750   0.19590   0.19030   0.01267  Uiso   1.00
O47    O     0.31930   0.67650   0.75570   0.01267  Uiso   1.00
O48    O     0.11710   0.83320   0.75950   0.01267  Uiso   1.00
C241   C     0.87200   0.41560   0.97250   0.01267  Uiso   1.00
S1     S     0.94340   0.37130   0.99330   0.01267  Uiso   1.00
O49    O     0.00840   0.34510   0.93400   0.01267  Uiso   1.00
O50    O     0.92160   0.32790   0.02920   0.01267  Uiso   1.00
O51    O     0.93250   0.41930   0.03380   0.01267  Uiso   1.00
F1     F     0.88610   0.44830   0.93550   0.01267  Uiso   1.00
F2     F     0.87590   0.37440   0.93550   0.01267  Uiso   1.00
F3     F     0.80630   0.44110   0.02130   0.01267  Uiso   1.00
C242   C     0.12800   0.58440   0.02750   0.01267  Uiso   1.00
S2     S     0.05660   0.62870   0.00670   0.01267  Uiso   1.00
O52    O     0.07840   0.67210   0.97080   0.01267  Uiso   1.00
O53    O     0.06750   0.58070   0.96620   0.01267  Uiso   1.00
O54    O     0.99160   0.65490   0.06600   0.01267  Uiso   1.00
F4     F     0.11390   0.55170   0.06450   0.01267  Uiso   1.00
F5     F     0.12410   0.62560   0.06450   0.01267  Uiso   1.00
F6     F     0.19370   0.55890   0.97870   0.01267  Uiso   1.00
