data_image0
_cell_length_a       24.024
_cell_length_b       24.1876
_cell_length_c       24.399
_cell_angle_alpha    84.067
_cell_angle_beta     61.943
_cell_angle_gamma    61.651

_symmetry_space_group_name_H-M    "P 1"
_symmetry_int_tables_number       1

loop_
  _symmetry_equiv_pos_as_xyz
  'x, y, z'

loop_
  _atom_site_label
  _atom_site_occupancy
  _atom_site_fract_x
  _atom_site_fract_y
  _atom_site_fract_z
  _atom_site_thermal_displace_type
  _atom_site_B_iso_or_equiv
  _atom_site_type_symbol
  Dy1      1.0000 0.35131  0.85629  0.20968  Biso   1.000  Dy
  O1       1.0000 0.24530  0.88000  0.21050  Biso   1.000  O
  O2       1.0000 0.28380  0.96900  0.22810  Biso   1.000  O
  O3       1.0000 0.37020  0.88220  0.10790  Biso   1.000  O
  O4       1.0000 0.43940  0.88680  0.17490  Biso   1.000  O
  O5       1.0000 0.39000  0.76320  0.14560  Biso   1.000  O
  O6       1.0000 0.33010  0.89130  0.30630  Biso   1.000  O
  O7       1.0000 0.45300  0.77170  0.21450  Biso   1.000  O
  O8       1.0000 0.30130  0.79800  0.28350  Biso   1.000  O
  N1       1.0000 0.20650  0.85030  0.23930  Biso   1.000  N
  N2       1.0000 0.22170  0.00580  0.23030  Biso   1.000  N
  N3       1.0000 0.35430  0.86210  0.07110  Biso   1.000  N
  N4       1.0000 0.45720  0.91790  0.12590  Biso   1.000  N
  N5       1.0000 0.43860  0.70280  0.14590  Biso   1.000  N
  C1       1.0000 0.22400  0.79660  0.20630  Biso   1.000  C
  C2       1.0000 0.14430  0.87620  0.29460  Biso   1.000  C
  C3       1.0000 0.22050  0.02300  0.17790  Biso   1.000  C
  C4       1.0000 0.16230  0.02360  0.28170  Biso   1.000  C
  C5       1.0000 0.28910  0.88720  0.08060  Biso   1.000  C
  C6       1.0000 0.41020  0.81510  0.02250  Biso   1.000  C
  C7       1.0000 0.41730  0.98100  0.14030  Biso   1.000  C
  C8       1.0000 0.50980  0.88630  0.07380  Biso   1.000  C
  C9       1.0000 0.40890  0.67200  0.19280  Biso   1.000  C
  C10      1.0000 0.50790  0.68010  0.10960  Biso   1.000  C
  H1       1.0000 0.26480  0.77960  0.16560  Biso   1.000  H
  C11      1.0000 0.18270  0.76810  0.23240  Biso   1.000  C
  C12      1.0000 0.10740  0.84580  0.32090  Biso   1.000  C
  H2       1.0000 0.12720  0.91690  0.31460  Biso   1.000  H
  H3       1.0000 0.26460  0.01090  0.14010  Biso   1.000  H
  C13      1.0000 0.15660  0.05780  0.17670  Biso   1.000  C
  C14      1.0000 0.09160  0.06050  0.28470  Biso   1.000  C
  H4       1.0000 0.16420  0.01240  0.31950  Biso   1.000  H
  H5       1.0000 0.25170  0.92150  0.11400  Biso   1.000  H
  C15      1.0000 0.27180  0.86560  0.04370  Biso   1.000  C
  C16      1.0000 0.39630  0.79190  0.98090  Biso   1.000  C
  H6       1.0000 0.45790  0.79770  0.01600  Biso   1.000  H
  H7       1.0000 0.38140  0.00200  0.18200  Biso   1.000  H
  C17      1.0000 0.43300  0.01540  0.08660  Biso   1.000  C
  C18      1.0000 0.53100  0.91710  0.01800  Biso   1.000  C
  H8       1.0000 0.53700  0.84150  0.07030  Biso   1.000  H
  H9       1.0000 0.35820  0.69060  0.21900  Biso   1.000  H
  C19      1.0000 0.45650  0.61210  0.20030  Biso   1.000  C
  C20      1.0000 0.55380  0.62360  0.11460  Biso   1.000  C
  H10      1.0000 0.52550  0.70400  0.07950  Biso   1.000  H
  H11      1.0000 0.19710  0.73050  0.20870  Biso   1.000  H
  C21      1.0000 0.12440  0.78770  0.28770  Biso   1.000  C
  H12      1.0000 0.06860  0.86170  0.36270  Biso   1.000  H
  H13      1.0000 0.15770  0.07020  0.13810  Biso   1.000  H
  C22      1.0000 0.08860  0.07630  0.23140  Biso   1.000  C
  H14      1.0000 0.04860  0.07300  0.32370  Biso   1.000  H
  H15      1.0000 0.22290  0.88430  0.05270  Biso   1.000  H
  C23      1.0000 0.32540  0.81650  0.99350  Biso   1.000  C
  H16      1.0000 0.43490  0.76030  0.94540  Biso   1.000  H
  H17      1.0000 0.40420  0.06030  0.09320  Biso   1.000  H
  C24      1.0000 0.48710  0.98530  0.02840  Biso   1.000  C
  H18      1.0000 0.56970  0.89370  0.97800  Biso   1.000  H
  H19      1.0000 0.43850  0.58790  0.22950  Biso   1.000  H
  C25      1.0000 0.52680  0.59090  0.16530  Biso   1.000  C
  H20      1.0000 0.60380  0.60470  0.08540  Biso   1.000  H
  C26      1.0000 0.07500  0.76040  0.31900  Biso   1.000  C
  C27      1.0000 0.01940  0.11030  0.23250  Biso   1.000  C
  C28      1.0000 0.30480  0.79020  0.95820  Biso   1.000  C
  C29      1.0000 0.58060  0.53400  0.17690  Biso   1.000  C
  C30      1.0000 0.09800  0.70010  0.28760  Biso   1.000  C
  C31      1.0000 0.01110  0.78810  0.36790  Biso   1.000  C
  C32      1.0000 0.00990  0.09220  0.18730  Biso   1.000  C
  C33      1.0000 0.96120  0.15500  0.27890  Biso   1.000  C
  C34      1.0000 0.24060  0.82420  0.96190  Biso   1.000  C
  C35      1.0000 0.34710  0.73320  0.92640  Biso   1.000  C
  C36      1.0000 0.64450  0.49150  0.12880  Biso   1.000  C
  C37      1.0000 0.56450  0.52250  0.23820  Biso   1.000  C
  C38      1.0000 0.04720  0.67580  0.31720  Biso   1.000  C
  H21      1.0000 0.14290  0.67800  0.25040  Biso   1.000  H
  H22      1.0000 0.99660  0.82820  0.38710  Biso   1.000  H
  C39      1.0000 0.96310  0.76660  0.39460  Biso   1.000  C
  C40      1.0000 0.94050  0.11680  0.19480  Biso   1.000  C
  H23      1.0000 0.05060  0.06280  0.15090  Biso   1.000  H
  H24      1.0000 0.96500  0.17130  0.31000  Biso   1.000  H
  C41      1.0000 0.89280  0.17890  0.28270  Biso   1.000  C
  C42      1.0000 0.22020  0.79910  0.93050  Biso   1.000  C
  H25      1.0000 0.20860  0.86560  0.98580  Biso   1.000  H
  H26      1.0000 0.39190  0.70950  0.92650  Biso   1.000  H
  C43      1.0000 0.33270  0.70260  0.89120  Biso   1.000  C
  C44      1.0000 0.69480  0.43850  0.13870  Biso   1.000  C
  H27      1.0000 0.65490  0.49850  0.08680  Biso   1.000  H
  H28      1.0000 0.51820  0.54870  0.27250  Biso   1.000  H
  C45      1.0000 0.61870  0.47070  0.24850  Biso   1.000  C
  N6       1.0000 0.98260  0.71060  0.36640  Biso   1.000  N
  H29      1.0000 0.06020  0.63480  0.30130  Biso   1.000  H
  H30      1.0000 0.91810  0.78970  0.43130  Biso   1.000  H
  N7       1.0000 0.88470  0.15970  0.24100  Biso   1.000  N
  H31      1.0000 0.93470  0.10130  0.16480  Biso   1.000  H
  H32      1.0000 0.85140  0.21030  0.31730  Biso   1.000  H
  N8       1.0000 0.26260  0.74200  0.89670  Biso   1.000  N
  H33      1.0000 0.17380  0.82410  0.93360  Biso   1.000  H
  H34      1.0000 0.36570  0.66120  0.86720  Biso   1.000  H
  N9       1.0000 0.67920  0.42950  0.20030  Biso   1.000  N
  H35      1.0000 0.73880  0.40910  0.10440  Biso   1.000  H
  H36      1.0000 0.61140  0.46570  0.29010  Biso   1.000  H
  O9       1.0000 0.93790  0.68680  0.38750  Biso   1.000  O
  O10      1.0000 0.82000  0.18360  0.24530  Biso   1.000  O
  O11      1.0000 0.24130  0.71510  0.87120  Biso   1.000  O
  O12      1.0000 0.72550  0.38200  0.21400  Biso   1.000  O
  Dy2      1.0000 0.84516  0.71722  0.36043  Biso   1.000  Dy
  Dy3      1.0000 0.74278  0.27976  0.23153  Biso   1.000  Dy
  O13      1.0000 0.87090  0.61430  0.38430  Biso   1.000  O
  O14      1.0000 0.78030  0.73180  0.47360  Biso   1.000  O
  O15      1.0000 0.79260  0.79400  0.30710  Biso   1.000  O
  O16      1.0000 0.82400  0.81250  0.39650  Biso   1.000  O
  O17      1.0000 0.73600  0.72060  0.39080  Biso   1.000  O
  O18      1.0000 0.94210  0.72060  0.27520  Biso   1.000  O
  O19      1.0000 0.87120  0.65680  0.27410  Biso   1.000  O
  O20      1.0000 0.71750  0.20250  0.21280  Biso   1.000  O
  O21      1.0000 0.76870  0.30950  0.30180  Biso   1.000  O
  O22      1.0000 0.66480  0.27420  0.33310  Biso   1.000  O
  O23      1.0000 0.62330  0.33810  0.24620  Biso   1.000  O
  O24      1.0000 0.86140  0.26460  0.16830  Biso   1.000  O
  N10      1.0000 0.90690  0.58300  0.41790  Biso   1.000  N
  N11      1.0000 0.76020  0.78170  0.51320  Biso   1.000  N
  N12      1.0000 0.74660  0.79390  0.28960  Biso   1.000  N
  N13      1.0000 0.80690  0.86870  0.36760  Biso   1.000  N
  N14      1.0000 0.68650  0.71490  0.44400  Biso   1.000  N
  N15      1.0000 0.96360  0.71940  0.21430  Biso   1.000  N
  N16      1.0000 0.73020  0.14790  0.23520  Biso   1.000  N
  N17      1.0000 0.78340  0.36000  0.29660  Biso   1.000  N
  N18      1.0000 0.67500  0.26330  0.38420  Biso   1.000  N
  N19      1.0000 0.56370  0.33810  0.29800  Biso   1.000  N
  N20      1.0000 0.10760  0.73320  0.89100  Biso   1.000  N
  C46      1.0000 0.97500  0.54580  0.38400  Biso   1.000  C
  C47      1.0000 0.87270  0.59090  0.47980  Biso   1.000  C
  C48      1.0000 0.81090  0.77630  0.52870  Biso   1.000  C
  C49      1.0000 0.70340  0.83090  0.52740  Biso   1.000  C
  C50      1.0000 0.67680  0.83310  0.32880  Biso   1.000  C
  C51      1.0000 0.77020  0.76280  0.23580  Biso   1.000  C
  C52      1.0000 0.86410  0.87430  0.31930  Biso   1.000  C
  C53      1.0000 0.74060  0.91190  0.39020  Biso   1.000  C
  C54      1.0000 0.62710  0.76370  0.48340  Biso   1.000  C
  C55      1.0000 0.70810  0.64900  0.45570  Biso   1.000  C
  C56      1.0000 0.93380  0.77170  0.19200  Biso   1.000  C
  C57      1.0000 0.01500  0.66610  0.17420  Biso   1.000  C
  C58      1.0000 0.68260  0.14730  0.29430  Biso   1.000  C
  C59      1.0000 0.79030  0.09620  0.20170  Biso   1.000  C
  C60      1.0000 0.85090  0.34570  0.26010  Biso   1.000  C
  C61      1.0000 0.73480  0.41340  0.32860  Biso   1.000  C
  C62      1.0000 0.72030  0.20560  0.38750  Biso   1.000  C
  C63      1.0000 0.63000  0.31130  0.43310  Biso   1.000  C
  C64      1.0000 0.55350  0.28870  0.28440  Biso   1.000  C
  C65      1.0000 0.52050  0.38040  0.35070  Biso   1.000  C
  C66      1.0000 0.11810  0.67340  0.90150  Biso   1.000  C
  C67      1.0000 0.07260  0.78760  0.93460  Biso   1.000  C
  H37      1.0000 0.99820  0.53980  0.33980  Biso   1.000  H
  C68      1.0000 0.01430  0.51270  0.41990  Biso   1.000  C
  C69      1.0000 0.91180  0.55600  0.51180  Biso   1.000  C
  H38      1.0000 0.82240  0.61980  0.50270  Biso   1.000  H
  H39      1.0000 0.85430  0.73730  0.51720  Biso   1.000  H
  C70      1.0000 0.79780  0.82560  0.55930  Biso   1.000  C
  C71      1.0000 0.68460  0.88040  0.56480  Biso   1.000  C
  H40      1.0000 0.67250  0.83400  0.51200  Biso   1.000  H
  H41      1.0000 0.66270  0.86080  0.36330  Biso   1.000  H
  C72      1.0000 0.62110  0.83210  0.31650  Biso   1.000  C
  C73      1.0000 0.72450  0.76160  0.21810  Biso   1.000  C
  H42      1.0000 0.82070  0.74030  0.20810  Biso   1.000  H
  H43      1.0000 0.91210  0.84060  0.30470  Biso   1.000  H
  C74      1.0000 0.85080  0.92900  0.29290  Biso   1.000  C
  C75      1.0000 0.72660  0.96420  0.36420  Biso   1.000  C
  H44      1.0000 0.70320  0.90650  0.42420  Biso   1.000  H
  H45      1.0000 0.61760  0.80550  0.47470  Biso   1.000  H
  C76      1.0000 0.57840  0.75500  0.53720  Biso   1.000  C
  C77      1.0000 0.66020  0.63980  0.50910  Biso   1.000  C
  H46      1.0000 0.75320  0.61460  0.42740  Biso   1.000  H
  H47      1.0000 0.89480  0.80950  0.22050  Biso   1.000  H
  C78      1.0000 0.95840  0.77180  0.12880  Biso   1.000  C
  C79      1.0000 0.04470  0.66510  0.10840  Biso   1.000  C
  H48      1.0000 0.03320  0.62760  0.19000  Biso   1.000  H
  H49      1.0000 0.63940  0.18520  0.31900  Biso   1.000  H
  C80      1.0000 0.69790  0.09240  0.31690  Biso   1.000  C
  C81      1.0000 0.80770  0.03690  0.22310  Biso   1.000  C
  H50      1.0000 0.82350  0.09860  0.16130  Biso   1.000  H
  H51      1.0000 0.88620  0.30350  0.23890  Biso   1.000  H
  C82      1.0000 0.87080  0.39280  0.25260  Biso   1.000  C
  C83      1.0000 0.74970  0.46400  0.32500  Biso   1.000  C
  H52      1.0000 0.68730  0.42010  0.35570  Biso   1.000  H
  H53      1.0000 0.74630  0.17220  0.35350  Biso   1.000  H
  C84      1.0000 0.73080  0.19240  0.44320  Biso   1.000  C
  C85      1.0000 0.64010  0.30460  0.48580  Biso   1.000  C
  H54      1.0000 0.59270  0.34940  0.43150  Biso   1.000  H
  H55      1.0000 0.58100  0.26340  0.24420  Biso   1.000  H
  C86      1.0000 0.49760  0.28060  0.33740  Biso   1.000  C
  C87      1.0000 0.47200  0.37030  0.39650  Biso   1.000  C
  H56      1.0000 0.52530  0.41650  0.35420  Biso   1.000  H
  H57      1.0000 0.14400  0.63780  0.86980  Biso   1.000  H
  C88      1.0000 0.08080  0.67270  0.97380  Biso   1.000  C
  C89      1.0000 0.04260  0.78020  0.99730  Biso   1.000  C
  H58      1.0000 0.06970  0.82700  0.92190  Biso   1.000  H
  H59      1.0000 0.06530  0.48720  0.39780  Biso   1.000  H
  C90      1.0000 0.97830  0.51840  0.48370  Biso   1.000  C
  H60      1.0000 0.88660  0.56120  0.55640  Biso   1.000  H
  H61      1.0000 0.83420  0.82260  0.56730  Biso   1.000  H
  C91      1.0000 0.73430  0.88170  0.58050  Biso   1.000  C
  H62      1.0000 0.63710  0.91540  0.58120  Biso   1.000  H
  H63      1.0000 0.57090  0.85420  0.34540  Biso   1.000  H
  C92      1.0000 0.64970  0.79540  0.25820  Biso   1.000  C
  H64      1.0000 0.74320  0.73800  0.17900  Biso   1.000  H
  H65      1.0000 0.88920  0.93570  0.26260  Biso   1.000  H
  C93      1.0000 0.77720  0.97570  0.31230  Biso   1.000  C
  H66      1.0000 0.67780  0.99700  0.38250  Biso   1.000  H
  H67      1.0000 0.53450  0.79070  0.56510  Biso   1.000  H
  C94      1.0000 0.59340  0.69130  0.55180  Biso   1.000  C
  H68      1.0000 0.67180  0.59780  0.51810  Biso   1.000  H
  H69      1.0000 0.93670  0.81050  0.11480  Biso   1.000  H
  C95      1.0000 0.01270  0.71920  0.08490  Biso   1.000  C
  H70      1.0000 0.08600  0.62780  0.08050  Biso   1.000  H
  H71      1.0000 0.66300  0.09220  0.35740  Biso   1.000  H
  C96      1.0000 0.75850  0.03800  0.28670  Biso   1.000  C
  H72      1.0000 0.84930  0.99870  0.19710  Biso   1.000  H
  H73      1.0000 0.91870  0.38430  0.22390  Biso   1.000  H
  C97      1.0000 0.81780  0.45320  0.28870  Biso   1.000  C
  H74      1.0000 0.71210  0.50510  0.34780  Biso   1.000  H
  H75      1.0000 0.76430  0.15200  0.44620  Biso   1.000  H
  C98      1.0000 0.68710  0.24480  0.49180  Biso   1.000  C
  H76      1.0000 0.61510  0.34020  0.51720  Biso   1.000  H
  H77      1.0000 0.48780  0.24780  0.33400  Biso   1.000  H
  C99      1.0000 0.45840  0.32190  0.39340  Biso   1.000  C
  H78      1.0000 0.44360  0.39830  0.43510  Biso   1.000  H
  H79      1.0000 0.08220  0.63400  0.98740  Biso   1.000  H
  C100     1.0000 0.04600  0.72400  0.01930  Biso   1.000  C
  H80      1.0000 0.01750  0.81660  0.02780  Biso   1.000  H
  C101     1.0000 0.72240  0.94070  0.61110  Biso   1.000  C
  C102     1.0000 0.59950  0.79090  0.24330  Biso   1.000  C
  C103     1.0000 0.83600  0.51180  0.28040  Biso   1.000  C
  C104     1.0000 0.69090  0.23720  0.55200  Biso   1.000  C
  C105     1.0000 0.65290  0.97740  0.66200  Biso   1.000  C
  C106     1.0000 0.76700  0.96270  0.59020  Biso   1.000  C
  C107     1.0000 0.61320  0.77170  0.18760  Biso   1.000  C
  C108     1.0000 0.53040  0.80540  0.29680  Biso   1.000  C
  C109     1.0000 0.90550  0.49270  0.26120  Biso   1.000  C
  C110     1.0000 0.78130  0.56890  0.29340  Biso   1.000  C
  C111     1.0000 0.63460  0.27300  0.60690  Biso   1.000  C
  C112     1.0000 0.75240  0.18380  0.55220  Biso   1.000  C
  C113     1.0000 0.63090  0.03830  0.69390  Biso   1.000  C
  H81      1.0000 0.61910  0.96230  0.67620  Biso   1.000  H
  H82      1.0000 0.81260  0.94080  0.55380  Biso   1.000  H
  C114     1.0000 0.74700  0.02010  0.62240  Biso   1.000  C
  C115     1.0000 0.56150  0.76710  0.17930  Biso   1.000  C
  H83      1.0000 0.65900  0.76060  0.15230  Biso   1.000  H
  H84      1.0000 0.51860  0.81770  0.33820  Biso   1.000  H
  C116     1.0000 0.47730  0.79980  0.28270  Biso   1.000  C
  C117     1.0000 0.91580  0.54710  0.26210  Biso   1.000  C
  H85      1.0000 0.94280  0.44970  0.24880  Biso   1.000  H
  H86      1.0000 0.73450  0.57430  0.30810  Biso   1.000  H
  C118     1.0000 0.79160  0.61950  0.28580  Biso   1.000  C
  C119     1.0000 0.64040  0.26110  0.66220  Biso   1.000  C
  H87      1.0000 0.59120  0.30600  0.60840  Biso   1.000  H
  H88      1.0000 0.79230  0.15530  0.51490  Biso   1.000  H
  C120     1.0000 0.75000  0.17650  0.60780  Biso   1.000  C
  N21      1.0000 0.68580  0.05460  0.66670  Biso   1.000  N
  H89      1.0000 0.58490  0.06360  0.72880  Biso   1.000  H
  H90      1.0000 0.78240  0.03300  0.60940  Biso   1.000  H
  N22      1.0000 0.49760  0.77960  0.22500  Biso   1.000  N
  H91      1.0000 0.57370  0.75420  0.13800  Biso   1.000  H
  H92      1.0000 0.43000  0.81090  0.31550  Biso   1.000  H
  N23      1.0000 0.85900  0.60810  0.27640  Biso   1.000  N
  H93      1.0000 0.96180  0.54060  0.25280  Biso   1.000  H
  H94      1.0000 0.75580  0.66050  0.28670  Biso   1.000  H
  N24      1.0000 0.69630  0.21320  0.66110  Biso   1.000  N
  H95      1.0000 0.60260  0.28880  0.70060  Biso   1.000  H
  H96      1.0000 0.79060  0.14180  0.60910  Biso   1.000  H
  Dy4      1.0000 0.64869  0.14371  0.79032  Biso   1.000  Dy
  O25      1.0000 0.75470  0.12000  0.78950  Biso   1.000  O
  O26      1.0000 0.71620  0.03100  0.77190  Biso   1.000  O
  O27      1.0000 0.62980  0.11780  0.89210  Biso   1.000  O
  O28      1.0000 0.56060  0.11320  0.82510  Biso   1.000  O
  O29      1.0000 0.61000  0.23680  0.85440  Biso   1.000  O
  O30      1.0000 0.66990  0.10870  0.69370  Biso   1.000  O
  O31      1.0000 0.54700  0.22830  0.78550  Biso   1.000  O
  O32      1.0000 0.69870  0.20200  0.71650  Biso   1.000  O
  N25      1.0000 0.79350  0.14970  0.76070  Biso   1.000  N
  N26      1.0000 0.77830  0.99420  0.76970  Biso   1.000  N
  N27      1.0000 0.64570  0.13790  0.92890  Biso   1.000  N
  N28      1.0000 0.54280  0.08210  0.87410  Biso   1.000  N
  N29      1.0000 0.56140  0.29720  0.85410  Biso   1.000  N
  C121     1.0000 0.77600  0.20340  0.79370  Biso   1.000  C
  C122     1.0000 0.85570  0.12380  0.70540  Biso   1.000  C
  C123     1.0000 0.77950  0.97700  0.82210  Biso   1.000  C
  C124     1.0000 0.83770  0.97640  0.71830  Biso   1.000  C
  C125     1.0000 0.71090  0.11280  0.91940  Biso   1.000  C
  C126     1.0000 0.58980  0.18490  0.97750  Biso   1.000  C
  C127     1.0000 0.58270  0.01900  0.85970  Biso   1.000  C
  C128     1.0000 0.49020  0.11370  0.92620  Biso   1.000  C
  C129     1.0000 0.59110  0.32800  0.80720  Biso   1.000  C
  C130     1.0000 0.49210  0.31990  0.89040  Biso   1.000  C
  H97      1.0000 0.73520  0.22040  0.83440  Biso   1.000  H
  C131     1.0000 0.81730  0.23190  0.76760  Biso   1.000  C
  C132     1.0000 0.89260  0.15420  0.67910  Biso   1.000  C
  H98      1.0000 0.87280  0.08310  0.68540  Biso   1.000  H
  H99      1.0000 0.73540  0.98910  0.85990  Biso   1.000  H
  C133     1.0000 0.84340  0.94220  0.82330  Biso   1.000  C
  C134     1.0000 0.90840  0.93950  0.71530  Biso   1.000  C
  H100     1.0000 0.83580  0.98760  0.68050  Biso   1.000  H
  H101     1.0000 0.74830  0.07850  0.88600  Biso   1.000  H
  C135     1.0000 0.72820  0.13440  0.95630  Biso   1.000  C
  C136     1.0000 0.60370  0.20810  0.01910  Biso   1.000  C
  H102     1.0000 0.54210  0.20230  0.98400  Biso   1.000  H
  H103     1.0000 0.61860  0.99800  0.81800  Biso   1.000  H
  C137     1.0000 0.56700  0.98460  0.91340  Biso   1.000  C
  C138     1.0000 0.46900  0.08290  0.98200  Biso   1.000  C
  H104     1.0000 0.46300  0.15850  0.92970  Biso   1.000  H
  H105     1.0000 0.64180  0.30940  0.78100  Biso   1.000  H
  C139     1.0000 0.54350  0.38790  0.79970  Biso   1.000  C
  C140     1.0000 0.44620  0.37640  0.88540  Biso   1.000  C
  H106     1.0000 0.47450  0.29600  0.92050  Biso   1.000  H
  H107     1.0000 0.80290  0.26950  0.79130  Biso   1.000  H
  C141     1.0000 0.87560  0.21230  0.71230  Biso   1.000  C
  H108     1.0000 0.93140  0.13830  0.63730  Biso   1.000  H
  H109     1.0000 0.84230  0.92980  0.86190  Biso   1.000  H
  C142     1.0000 0.91140  0.92370  0.76860  Biso   1.000  C
  H110     1.0000 0.95140  0.92700  0.67630  Biso   1.000  H
  H111     1.0000 0.77710  0.11570  0.94730  Biso   1.000  H
  C143     1.0000 0.67460  0.18350  0.00650  Biso   1.000  C
  H112     1.0000 0.56510  0.23970  0.05460  Biso   1.000  H
  H113     1.0000 0.59580  0.93970  0.90680  Biso   1.000  H
  C144     1.0000 0.51290  0.01470  0.97160  Biso   1.000  C
  H114     1.0000 0.43030  0.10630  0.02200  Biso   1.000  H
  H115     1.0000 0.56150  0.41210  0.77050  Biso   1.000  H
  C145     1.0000 0.47320  0.40910  0.83470  Biso   1.000  C
  H116     1.0000 0.39620  0.39530  0.91460  Biso   1.000  H
  C146     1.0000 0.92500  0.23960  0.68100  Biso   1.000  C
  C147     1.0000 0.98060  0.88970  0.76750  Biso   1.000  C
  C148     1.0000 0.69520  0.20980  0.04180  Biso   1.000  C
  C149     1.0000 0.41940  0.46600  0.82310  Biso   1.000  C
  C150     1.0000 0.90200  0.29990  0.71240  Biso   1.000  C
  C151     1.0000 0.98890  0.21190  0.63210  Biso   1.000  C
  C152     1.0000 0.99010  0.90780  0.81270  Biso   1.000  C
  C153     1.0000 0.03880  0.84500  0.72110  Biso   1.000  C
  C154     1.0000 0.75940  0.17580  0.03810  Biso   1.000  C
  C155     1.0000 0.65290  0.26680  0.07360  Biso   1.000  C
  C156     1.0000 0.35550  0.50850  0.87120  Biso   1.000  C
  C157     1.0000 0.43550  0.47750  0.76180  Biso   1.000  C
  C158     1.0000 0.95280  0.32420  0.68280  Biso   1.000  C
  H117     1.0000 0.85710  0.32200  0.74960  Biso   1.000  H
  H118     1.0000 0.00340  0.17180  0.61290  Biso   1.000  H
  C159     1.0000 0.03690  0.23340  0.60540  Biso   1.000  C
  C160     1.0000 0.05950  0.88320  0.80520  Biso   1.000  C
  H119     1.0000 0.94940  0.93720  0.84910  Biso   1.000  H
  H120     1.0000 0.03500  0.82870  0.69000  Biso   1.000  H
  C161     1.0000 0.10720  0.82110  0.71730  Biso   1.000  C
  C162     1.0000 0.77980  0.20090  0.06950  Biso   1.000  C
  H121     1.0000 0.79140  0.13440  0.01420  Biso   1.000  H
  H122     1.0000 0.60810  0.29050  0.07350  Biso   1.000  H
  C163     1.0000 0.66730  0.29740  0.10880  Biso   1.000  C
  C164     1.0000 0.30520  0.56150  0.86130  Biso   1.000  C
  H123     1.0000 0.34510  0.50150  0.91320  Biso   1.000  H
  H124     1.0000 0.48180  0.45130  0.72750  Biso   1.000  H
  C165     1.0000 0.38130  0.52930  0.75150  Biso   1.000  C
  N30      1.0000 0.01740  0.28940  0.63360  Biso   1.000  N
  H125     1.0000 0.93980  0.36520  0.69870  Biso   1.000  H
  H126     1.0000 0.08190  0.21030  0.56870  Biso   1.000  H
  N31      1.0000 0.11530  0.84030  0.75900  Biso   1.000  N
  H127     1.0000 0.06530  0.89870  0.83520  Biso   1.000  H
  H128     1.0000 0.14860  0.78970  0.68270  Biso   1.000  H
  N32      1.0000 0.73740  0.25800  0.10330  Biso   1.000  N
  H129     1.0000 0.82620  0.17590  0.06640  Biso   1.000  H
  H130     1.0000 0.63430  0.33880  0.13280  Biso   1.000  H
  N33      1.0000 0.32080  0.57050  0.79970  Biso   1.000  N
  H131     1.0000 0.26120  0.59090  0.89560  Biso   1.000  H
  H132     1.0000 0.38860  0.53430  0.70990  Biso   1.000  H
  O33      1.0000 0.06210  0.31320  0.61250  Biso   1.000  O
  O34      1.0000 0.18000  0.81640  0.75470  Biso   1.000  O
  O35      1.0000 0.75870  0.28490  0.12880  Biso   1.000  O
  O36      1.0000 0.27450  0.61800  0.78600  Biso   1.000  O
  Dy5      1.0000 0.15484  0.28278  0.63957  Biso   1.000  Dy
  Dy6      1.0000 0.25722  0.72024  0.76847  Biso   1.000  Dy
  O37      1.0000 0.12910  0.38570  0.61570  Biso   1.000  O
  O38      1.0000 0.21970  0.26820  0.52640  Biso   1.000  O
  O39      1.0000 0.20740  0.20600  0.69290  Biso   1.000  O
  O40      1.0000 0.17600  0.18750  0.60350  Biso   1.000  O
  O41      1.0000 0.26400  0.27940  0.60920  Biso   1.000  O
  O42      1.0000 0.05790  0.27940  0.72480  Biso   1.000  O
  O43      1.0000 0.12880  0.34320  0.72590  Biso   1.000  O
  O44      1.0000 0.28250  0.79750  0.78720  Biso   1.000  O
  O45      1.0000 0.23130  0.69050  0.69820  Biso   1.000  O
  O46      1.0000 0.33520  0.72580  0.66690  Biso   1.000  O
  O47      1.0000 0.37670  0.66190  0.75380  Biso   1.000  O
  O48      1.0000 0.13860  0.73540  0.83170  Biso   1.000  O
  N34      1.0000 0.09310  0.41700  0.58210  Biso   1.000  N
  N35      1.0000 0.23980  0.21830  0.48680  Biso   1.000  N
  N36      1.0000 0.25340  0.20610  0.71040  Biso   1.000  N
  N37      1.0000 0.19310  0.13130  0.63240  Biso   1.000  N
  N38      1.0000 0.31350  0.28510  0.55600  Biso   1.000  N
  N39      1.0000 0.03640  0.28060  0.78570  Biso   1.000  N
  N40      1.0000 0.26980  0.85210  0.76480  Biso   1.000  N
  N41      1.0000 0.21660  0.64000  0.70340  Biso   1.000  N
  N42      1.0000 0.32500  0.73670  0.61580  Biso   1.000  N
  N43      1.0000 0.43630  0.66190  0.70200  Biso   1.000  N
  N44      1.0000 0.89240  0.26680  0.10900  Biso   1.000  N
  C166     1.0000 0.02500  0.45420  0.61600  Biso   1.000  C
  C167     1.0000 0.12730  0.40910  0.52020  Biso   1.000  C
  C168     1.0000 0.18910  0.22370  0.47130  Biso   1.000  C
  C169     1.0000 0.29660  0.16910  0.47260  Biso   1.000  C
  C170     1.0000 0.32320  0.16690  0.67120  Biso   1.000  C
  C171     1.0000 0.22980  0.23720  0.76420  Biso   1.000  C
  C172     1.0000 0.13590  0.12570  0.68070  Biso   1.000  C
  C173     1.0000 0.25940  0.08810  0.60980  Biso   1.000  C
  C174     1.0000 0.37290  0.23630  0.51660  Biso   1.000  C
  C175     1.0000 0.29190  0.35100  0.54430  Biso   1.000  C
  C176     1.0000 0.06620  0.22830  0.80800  Biso   1.000  C
  C177     1.0000 0.98500  0.33390  0.82580  Biso   1.000  C
  C178     1.0000 0.31740  0.85270  0.70570  Biso   1.000  C
  C179     1.0000 0.20970  0.90380  0.79830  Biso   1.000  C
  C180     1.0000 0.14910  0.65430  0.73990  Biso   1.000  C
  C181     1.0000 0.26520  0.58660  0.67140  Biso   1.000  C
  C182     1.0000 0.27970  0.79440  0.61250  Biso   1.000  C
  C183     1.0000 0.37000  0.68870  0.56690  Biso   1.000  C
  C184     1.0000 0.44650  0.71130  0.71560  Biso   1.000  C
  C185     1.0000 0.47950  0.61960  0.64930  Biso   1.000  C
  C186     1.0000 0.88190  0.32660  0.09850  Biso   1.000  C
  C187     1.0000 0.92740  0.21240  0.06540  Biso   1.000  C
  H133     1.0000 0.00180  0.46020  0.66020  Biso   1.000  H
  C188     1.0000 0.98570  0.48730  0.58010  Biso   1.000  C
  C189     1.0000 0.08820  0.44400  0.48820  Biso   1.000  C
  H134     1.0000 0.17760  0.38020  0.49730  Biso   1.000  H
  H135     1.0000 0.14570  0.26270  0.48280  Biso   1.000  H
  C190     1.0000 0.20220  0.17440  0.44070  Biso   1.000  C
  C191     1.0000 0.31540  0.11960  0.43520  Biso   1.000  C
  H136     1.0000 0.32750  0.16600  0.48800  Biso   1.000  H
  H137     1.0000 0.33730  0.13920  0.63670  Biso   1.000  H
  C192     1.0000 0.37890  0.16790  0.68350  Biso   1.000  C
  C193     1.0000 0.27550  0.23840  0.78190  Biso   1.000  C
  H138     1.0000 0.17930  0.25970  0.79190  Biso   1.000  H
  H139     1.0000 0.08790  0.15940  0.69530  Biso   1.000  H
  C194     1.0000 0.14920  0.07100  0.70710  Biso   1.000  C
  C195     1.0000 0.27340  0.03580  0.63580  Biso   1.000  C
  H140     1.0000 0.29680  0.09350  0.57580  Biso   1.000  H
  H141     1.0000 0.38240  0.19450  0.52530  Biso   1.000  H
  C196     1.0000 0.42160  0.24500  0.46280  Biso   1.000  C
  C197     1.0000 0.33980  0.36020  0.49090  Biso   1.000  C
  H142     1.0000 0.24680  0.38540  0.57260  Biso   1.000  H
  H143     1.0000 0.10520  0.19050  0.77950  Biso   1.000  H
  C198     1.0000 0.04160  0.22820  0.87120  Biso   1.000  C
  C199     1.0000 0.95530  0.33490  0.89160  Biso   1.000  C
  H144     1.0000 0.96680  0.37240  0.81000  Biso   1.000  H
  H145     1.0000 0.36060  0.81480  0.68100  Biso   1.000  H
  C200     1.0000 0.30210  0.90760  0.68310  Biso   1.000  C
  C201     1.0000 0.19230  0.96310  0.77690  Biso   1.000  C
  H146     1.0000 0.17650  0.90140  0.83870  Biso   1.000  H
  H147     1.0000 0.11380  0.69650  0.76110  Biso   1.000  H
  C202     1.0000 0.12920  0.60720  0.74740  Biso   1.000  C
  C203     1.0000 0.25030  0.53600  0.67500  Biso   1.000  C
  H148     1.0000 0.31270  0.57990  0.64430  Biso   1.000  H
  H149     1.0000 0.25370  0.82780  0.64650  Biso   1.000  H
  C204     1.0000 0.26920  0.80760  0.55680  Biso   1.000  C
  C205     1.0000 0.35990  0.69540  0.51420  Biso   1.000  C
  H150     1.0000 0.40730  0.65060  0.56850  Biso   1.000  H
  H151     1.0000 0.41900  0.73660  0.75580  Biso   1.000  H
  C206     1.0000 0.50240  0.71940  0.66260  Biso   1.000  C
  C207     1.0000 0.52800  0.62970  0.60350  Biso   1.000  C
  H152     1.0000 0.47470  0.58350  0.64580  Biso   1.000  H
  H153     1.0000 0.85600  0.36220  0.13020  Biso   1.000  H
  C208     1.0000 0.91920  0.32730  0.02620  Biso   1.000  C
  C209     1.0000 0.95740  0.21980  0.00270  Biso   1.000  C
  H154     1.0000 0.93030  0.17300  0.07810  Biso   1.000  H
  H155     1.0000 0.93470  0.51280  0.60220  Biso   1.000  H
  C210     1.0000 0.02170  0.48160  0.51630  Biso   1.000  C
  H156     1.0000 0.11340  0.43880  0.44360  Biso   1.000  H
  H157     1.0000 0.16580  0.17740  0.43270  Biso   1.000  H
  C211     1.0000 0.26570  0.11830  0.41950  Biso   1.000  C
  H158     1.0000 0.36290  0.08460  0.41880  Biso   1.000  H
  H159     1.0000 0.42910  0.14580  0.65460  Biso   1.000  H
  C212     1.0000 0.35030  0.20460  0.74180  Biso   1.000  C
  H160     1.0000 0.25680  0.26200  0.82100  Biso   1.000  H
  H161     1.0000 0.11080  0.06430  0.73740  Biso   1.000  H
  C213     1.0000 0.22280  0.02430  0.68770  Biso   1.000  C
  H162     1.0000 0.32220  0.00300  0.61750  Biso   1.000  H
  H163     1.0000 0.46550  0.20930  0.43490  Biso   1.000  H
  C214     1.0000 0.40660  0.30870  0.44820  Biso   1.000  C
  H164     1.0000 0.32820  0.40220  0.48190  Biso   1.000  H
  H165     1.0000 0.06330  0.18950  0.88520  Biso   1.000  H
  C215     1.0000 0.98730  0.28080  0.91510  Biso   1.000  C
  H166     1.0000 0.91400  0.37220  0.91950  Biso   1.000  H
  H167     1.0000 0.33700  0.90780  0.64260  Biso   1.000  H
  C216     1.0000 0.24150  0.96200  0.71330  Biso   1.000  C
  H168     1.0000 0.15070  0.00130  0.80290  Biso   1.000  H
  H169     1.0000 0.08130  0.61570  0.77610  Biso   1.000  H
  C217     1.0000 0.18220  0.54680  0.71130  Biso   1.000  C
  H170     1.0000 0.28790  0.49490  0.65220  Biso   1.000  H
  H171     1.0000 0.23570  0.84800  0.55380  Biso   1.000  H
  C218     1.0000 0.31290  0.75520  0.50820  Biso   1.000  C
  H172     1.0000 0.38490  0.65980  0.48280  Biso   1.000  H
  H173     1.0000 0.51220  0.75220  0.66600  Biso   1.000  H
  C219     1.0000 0.54160  0.67810  0.60660  Biso   1.000  C
  H174     1.0000 0.55640  0.60170  0.56490  Biso   1.000  H
  H175     1.0000 0.91780  0.36600  0.01260  Biso   1.000  H
  C220     1.0000 0.95400  0.27600  0.98070  Biso   1.000  C
  H176     1.0000 0.98250  0.18340  0.97220  Biso   1.000  H
  C221     1.0000 0.27760  0.05930  0.38890  Biso   1.000  C
  C222     1.0000 0.40050  0.20910  0.75670  Biso   1.000  C
  C223     1.0000 0.16400  0.48820  0.71960  Biso   1.000  C
  C224     1.0000 0.30910  0.76280  0.44800  Biso   1.000  C
  C225     1.0000 0.34710  0.02260  0.33800  Biso   1.000  C
  C226     1.0000 0.23300  0.03730  0.40980  Biso   1.000  C
  C227     1.0000 0.38680  0.22830  0.81240  Biso   1.000  C
  C228     1.0000 0.46960  0.19460  0.70320  Biso   1.000  C
  C229     1.0000 0.09450  0.50730  0.73880  Biso   1.000  C
  C230     1.0000 0.21870  0.43110  0.70660  Biso   1.000  C
  C231     1.0000 0.36540  0.72700  0.39310  Biso   1.000  C
  C232     1.0000 0.24760  0.81620  0.44780  Biso   1.000  C
  C233     1.0000 0.36910  0.96170  0.30610  Biso   1.000  C
  H177     1.0000 0.38090  0.03770  0.32380  Biso   1.000  H
  H178     1.0000 0.18740  0.05920  0.44620  Biso   1.000  H
  C234     1.0000 0.25300  0.97990  0.37760  Biso   1.000  C
  C235     1.0000 0.43850  0.23290  0.82070  Biso   1.000  C
  H179     1.0000 0.34100  0.23940  0.84770  Biso   1.000  H
  H180     1.0000 0.48140  0.18230  0.66180  Biso   1.000  H
  C236     1.0000 0.52270  0.20020  0.71730  Biso   1.000  C
  C237     1.0000 0.08420  0.45290  0.73790  Biso   1.000  C
  H181     1.0000 0.05720  0.55030  0.75120  Biso   1.000  H
  H182     1.0000 0.26550  0.42570  0.69190  Biso   1.000  H
  C238     1.0000 0.20840  0.38050  0.71420  Biso   1.000  C
  C239     1.0000 0.35960  0.73890  0.33780  Biso   1.000  C
  H183     1.0000 0.40880  0.69400  0.39160  Biso   1.000  H
  H184     1.0000 0.20770  0.84470  0.48510  Biso   1.000  H
  C240     1.0000 0.25000  0.82350  0.39220  Biso   1.000  C
  N45      1.0000 0.31420  0.94540  0.33330  Biso   1.000  N
  H185     1.0000 0.41510  0.93640  0.27120  Biso   1.000  H
  H186     1.0000 0.21760  0.96700  0.39060  Biso   1.000  H
  N46      1.0000 0.50240  0.22040  0.77500  Biso   1.000  N
  H187     1.0000 0.42630  0.24580  0.86200  Biso   1.000  H
  H188     1.0000 0.57000  0.18910  0.68450  Biso   1.000  H
  N47      1.0000 0.14100  0.39190  0.72360  Biso   1.000  N
  H189     1.0000 0.03820  0.45940  0.74720  Biso   1.000  H
  H190     1.0000 0.24420  0.33950  0.71330  Biso   1.000  H
  N48      1.0000 0.30370  0.78680  0.33890  Biso   1.000  N
  H191     1.0000 0.39740  0.71120  0.29940  Biso   1.000  H
  H192     1.0000 0.20940  0.85820  0.39090  Biso   1.000  H
