data_image0
_cell_length_a       24.03
_cell_length_b       24.1348
_cell_length_c       24.3922
_cell_angle_alpha    85.032
_cell_angle_beta     61.325
_cell_angle_gamma    61.265

_symmetry_space_group_name_H-M    "P 1"
_symmetry_int_tables_number       1

loop_
  _symmetry_equiv_pos_as_xyz
  'x, y, z'

loop_
  _atom_site_label
  _atom_site_occupancy
  _atom_site_fract_x
  _atom_site_fract_y
  _atom_site_fract_z
  _atom_site_thermal_displace_type
  _atom_site_B_iso_or_equiv
  _atom_site_type_symbol
  Ho1      1.0000 0.36089  0.84689  0.20156  Biso   1.000  Ho
  O1       1.0000 0.25170  0.87450  0.20660  Biso   1.000  O
  O2       1.0000 0.29570  0.96090  0.22180  Biso   1.000  O
  O3       1.0000 0.38050  0.87090  0.09950  Biso   1.000  O
  O4       1.0000 0.45090  0.87550  0.16430  Biso   1.000  O
  O5       1.0000 0.39980  0.75390  0.13720  Biso   1.000  O
  O6       1.0000 0.33960  0.88240  0.29910  Biso   1.000  O
  O7       1.0000 0.46040  0.76400  0.20860  Biso   1.000  O
  O8       1.0000 0.30830  0.79240  0.27550  Biso   1.000  O
  N1       1.0000 0.21220  0.84610  0.23070  Biso   1.000  N
  N2       1.0000 0.23030  0.99840  0.22460  Biso   1.000  N
  N3       1.0000 0.36410  0.85030  0.06330  Biso   1.000  N
  N4       1.0000 0.46380  0.91000  0.11920  Biso   1.000  N
  N5       1.0000 0.44530  0.69340  0.13940  Biso   1.000  N
  C1       1.0000 0.23130  0.79260  0.19670  Biso   1.000  C
  C2       1.0000 0.15280  0.87100  0.28970  Biso   1.000  C
  C3       1.0000 0.22980  0.01810  0.17100  Biso   1.000  C
  C4       1.0000 0.17010  0.01590  0.27880  Biso   1.000  C
  C5       1.0000 0.29670  0.87950  0.07290  Biso   1.000  C
  C6       1.0000 0.41870  0.79920  0.01550  Biso   1.000  C
  C7       1.0000 0.42530  0.97430  0.13540  Biso   1.000  C
  C8       1.0000 0.51590  0.87960  0.05960  Biso   1.000  C
  C9       1.0000 0.41540  0.66300  0.18160  Biso   1.000  C
  C10      1.0000 0.51690  0.66920  0.10340  Biso   1.000  C
  H1       1.0000 0.27450  0.77440  0.15600  Biso   1.000  H
  C11      1.0000 0.18880  0.76400  0.22040  Biso   1.000  C
  C12      1.0000 0.11010  0.84380  0.31610  Biso   1.000  C
  H2       1.0000 0.14070  0.90830  0.31320  Biso   1.000  H
  H3       1.0000 0.27460  0.00770  0.13310  Biso   1.000  H
  C13      1.0000 0.16570  0.05250  0.17130  Biso   1.000  C
  C14      1.0000 0.10110  0.05370  0.28320  Biso   1.000  C
  H4       1.0000 0.17280  0.00320  0.31580  Biso   1.000  H
  H5       1.0000 0.25970  0.91630  0.10580  Biso   1.000  H
  C15      1.0000 0.27850  0.85920  0.03780  Biso   1.000  C
  C16      1.0000 0.40310  0.77570  0.97840  Biso   1.000  C
  H6       1.0000 0.46760  0.77960  0.00760  Biso   1.000  H
  H7       1.0000 0.38950  0.99490  0.17840  Biso   1.000  H
  C17      1.0000 0.43910  0.01050  0.08750  Biso   1.000  C
  C18      1.0000 0.53030  0.91520  0.01170  Biso   1.000  C
  H8       1.0000 0.54310  0.83390  0.04970  Biso   1.000  H
  H9       1.0000 0.36370  0.68090  0.20510  Biso   1.000  H
  C19      1.0000 0.46110  0.60510  0.19040  Biso   1.000  C
  C20      1.0000 0.56570  0.61110  0.10880  Biso   1.000  C
  H10      1.0000 0.53510  0.69240  0.07310  Biso   1.000  H
  H11      1.0000 0.20120  0.72810  0.19470  Biso   1.000  H
  C21      1.0000 0.12730  0.78710  0.28220  Biso   1.000  C
  H12      1.0000 0.06830  0.86260  0.35760  Biso   1.000  H
  H13      1.0000 0.16640  0.06370  0.13270  Biso   1.000  H
  C22      1.0000 0.09750  0.07240  0.22790  Biso   1.000  C
  H14      1.0000 0.05740  0.06660  0.32300  Biso   1.000  H
  H15      1.0000 0.22910  0.88170  0.04680  Biso   1.000  H
  C23      1.0000 0.32970  0.80650  0.98900  Biso   1.000  C
  H16      1.0000 0.44110  0.73890  0.94570  Biso   1.000  H
  H17      1.0000 0.41220  0.05610  0.09840  Biso   1.000  H
  C24      1.0000 0.49210  0.98060  0.02340  Biso   1.000  C
  H18      1.0000 0.56820  0.89300  0.96950  Biso   1.000  H
  H19      1.0000 0.44080  0.58220  0.21950  Biso   1.000  H
  C25      1.0000 0.53840  0.57930  0.15620  Biso   1.000  C
  H20      1.0000 0.61700  0.59290  0.08090  Biso   1.000  H
  C26      1.0000 0.08010  0.75870  0.30990  Biso   1.000  C
  C27      1.0000 0.02770  0.10440  0.22880  Biso   1.000  C
  C28      1.0000 0.30910  0.78140  0.95360  Biso   1.000  C
  C29      1.0000 0.58860  0.52240  0.17110  Biso   1.000  C
  C30      1.0000 0.09960  0.69990  0.28600  Biso   1.000  C
  C31      1.0000 0.01110  0.79140  0.36470  Biso   1.000  C
  C32      1.0000 0.01800  0.09030  0.18300  Biso   1.000  C
  C33      1.0000 0.96490  0.15090  0.28430  Biso   1.000  C
  C34      1.0000 0.24200  0.82010  0.95590  Biso   1.000  C
  C35      1.0000 0.35350  0.71970  0.91500  Biso   1.000  C
  C36      1.0000 0.65710  0.47930  0.12630  Biso   1.000  C
  C37      1.0000 0.56920  0.51830  0.23600  Biso   1.000  C
  C38      1.0000 0.05210  0.67630  0.31120  Biso   1.000  C
  H21      1.0000 0.14740  0.67400  0.25090  Biso   1.000  H
  H22      1.0000 0.99670  0.83190  0.38450  Biso   1.000  H
  C39      1.0000 0.96350  0.76900  0.39140  Biso   1.000  C
  C40      1.0000 0.94950  0.11600  0.19070  Biso   1.000  C
  H23      1.0000 0.05960  0.06200  0.14440  Biso   1.000  H
  H24      1.0000 0.96980  0.16370  0.31680  Biso   1.000  H
  C41      1.0000 0.89750  0.17670  0.28930  Biso   1.000  C
  C42      1.0000 0.22020  0.79630  0.92410  Biso   1.000  C
  H25      1.0000 0.21090  0.86290  0.97920  Biso   1.000  H
  H26      1.0000 0.40080  0.69210  0.91000  Biso   1.000  H
  C43      1.0000 0.33030  0.69930  0.88530  Biso   1.000  C
  C44      1.0000 0.70450  0.43020  0.14320  Biso   1.000  C
  H27      1.0000 0.67330  0.48240  0.08270  Biso   1.000  H
  H28      1.0000 0.52270  0.54960  0.26930  Biso   1.000  H
  C45      1.0000 0.61660  0.47070  0.24940  Biso   1.000  C
  N6       1.0000 0.98540  0.70990  0.36300  Biso   1.000  N
  H29      1.0000 0.06680  0.63560  0.29180  Biso   1.000  H
  H30      1.0000 0.91680  0.79320  0.42830  Biso   1.000  H
  N7       1.0000 0.89020  0.15770  0.24390  Biso   1.000  N
  H31      1.0000 0.94390  0.10430  0.15820  Biso   1.000  H
  H32      1.0000 0.85520  0.20850  0.32530  Biso   1.000  H
  N8       1.0000 0.26390  0.73600  0.89100  Biso   1.000  N
  H33      1.0000 0.17430  0.82290  0.92600  Biso   1.000  H
  H34      1.0000 0.36180  0.65760  0.85940  Biso   1.000  H
  N9       1.0000 0.68370  0.42700  0.20400  Biso   1.000  N
  H35      1.0000 0.75200  0.39880  0.11110  Biso   1.000  H
  H36      1.0000 0.60230  0.46740  0.29270  Biso   1.000  H
  O9       1.0000 0.94000  0.68740  0.38550  Biso   1.000  O
  O10      1.0000 0.82430  0.18000  0.25120  Biso   1.000  O
  O11      1.0000 0.23910  0.71520  0.86500  Biso   1.000  O
  O12      1.0000 0.73190  0.38300  0.21920  Biso   1.000  O
  Ho2      1.0000 0.84706  0.71697  0.35933  Biso   1.000  Ho
  Ho3      1.0000 0.74664  0.27997  0.23623  Biso   1.000  Ho
  O13      1.0000 0.87810  0.61430  0.38260  Biso   1.000  O
  O14      1.0000 0.77820  0.73500  0.47350  Biso   1.000  O
  O15      1.0000 0.79110  0.79340  0.30800  Biso   1.000  O
  O16      1.0000 0.82170  0.81770  0.39670  Biso   1.000  O
  O17      1.0000 0.74350  0.71160  0.38480  Biso   1.000  O
  O18      1.0000 0.94320  0.72220  0.27410  Biso   1.000  O
  O19      1.0000 0.88260  0.65310  0.26780  Biso   1.000  O
  O20      1.0000 0.72220  0.20280  0.21470  Biso   1.000  O
  O21      1.0000 0.77480  0.31010  0.30440  Biso   1.000  O
  O22      1.0000 0.66920  0.27440  0.33850  Biso   1.000  O
  O23      1.0000 0.62480  0.34470  0.25480  Biso   1.000  O
  O24      1.0000 0.86770  0.25970  0.17090  Biso   1.000  O
  N10      1.0000 0.91080  0.58490  0.41550  Biso   1.000  N
  N11      1.0000 0.76120  0.78390  0.51110  Biso   1.000  N
  N12      1.0000 0.74430  0.79310  0.29210  Biso   1.000  N
  N13      1.0000 0.80660  0.86950  0.37170  Biso   1.000  N
  N14      1.0000 0.69820  0.70220  0.43750  Biso   1.000  N
  N15      1.0000 0.96290  0.72120  0.21200  Biso   1.000  N
  N16      1.0000 0.73360  0.14880  0.23940  Biso   1.000  N
  N17      1.0000 0.79270  0.35540  0.29940  Biso   1.000  N
  N18      1.0000 0.67860  0.26620  0.38750  Biso   1.000  N
  N19      1.0000 0.56610  0.34290  0.30230  Biso   1.000  N
  N20      1.0000 0.10260  0.73510  0.88950  Biso   1.000  N
  C46      1.0000 0.98420  0.54300  0.38420  Biso   1.000  C
  C47      1.0000 0.87120  0.59420  0.48010  Biso   1.000  C
  C48      1.0000 0.80880  0.78060  0.52860  Biso   1.000  C
  C49      1.0000 0.69590  0.83660  0.53480  Biso   1.000  C
  C50      1.0000 0.67100  0.82780  0.33320  Biso   1.000  C
  C51      1.0000 0.77340  0.76020  0.23280  Biso   1.000  C
  C52      1.0000 0.86260  0.87700  0.32290  Biso   1.000  C
  C53      1.0000 0.73970  0.91440  0.39040  Biso   1.000  C
  C54      1.0000 0.63400  0.75150  0.48080  Biso   1.000  C
  C55      1.0000 0.71710  0.63970  0.44950  Biso   1.000  C
  C56      1.0000 0.92810  0.77320  0.19150  Biso   1.000  C
  C57      1.0000 0.01940  0.66460  0.16890  Biso   1.000  C
  C58      1.0000 0.68180  0.15020  0.29770  Biso   1.000  C
  C59      1.0000 0.79650  0.09290  0.20330  Biso   1.000  C
  C60      1.0000 0.86250  0.34020  0.26090  Biso   1.000  C
  C61      1.0000 0.73950  0.41490  0.33120  Biso   1.000  C
  C62      1.0000 0.72210  0.20550  0.39450  Biso   1.000  C
  C63      1.0000 0.64320  0.31720  0.43430  Biso   1.000  C
  C64      1.0000 0.55260  0.29810  0.29080  Biso   1.000  C
  C65      1.0000 0.52660  0.38170  0.35810  Biso   1.000  C
  C66      1.0000 0.10710  0.67770  0.90510  Biso   1.000  C
  C67      1.0000 0.07170  0.78420  0.93430  Biso   1.000  C
  H37      1.0000 0.01110  0.53680  0.33910  Biso   1.000  H
  C68      1.0000 0.01860  0.51100  0.41460  Biso   1.000  C
  C69      1.0000 0.90690  0.56180  0.51270  Biso   1.000  C
  H38      1.0000 0.81970  0.62270  0.50230  Biso   1.000  H
  H39      1.0000 0.85350  0.74150  0.51670  Biso   1.000  H
  C70      1.0000 0.79360  0.82990  0.56090  Biso   1.000  C
  C71      1.0000 0.68040  0.88720  0.56930  Biso   1.000  C
  H40      1.0000 0.65990  0.83850  0.52720  Biso   1.000  H
  H41      1.0000 0.65190  0.85180  0.37300  Biso   1.000  H
  C72      1.0000 0.62530  0.82670  0.31480  Biso   1.000  C
  C73      1.0000 0.72670  0.75840  0.21710  Biso   1.000  C
  H42      1.0000 0.82460  0.73930  0.20360  Biso   1.000  H
  H43      1.0000 0.91220  0.84410  0.30750  Biso   1.000  H
  C74      1.0000 0.84750  0.93080  0.29660  Biso   1.000  C
  C75      1.0000 0.72020  0.97050  0.36520  Biso   1.000  C
  H44      1.0000 0.70140  0.90900  0.42360  Biso   1.000  H
  H45      1.0000 0.62310  0.79410  0.47410  Biso   1.000  H
  C76      1.0000 0.58370  0.74340  0.53420  Biso   1.000  C
  C77      1.0000 0.66910  0.62960  0.50000  Biso   1.000  C
  H46      1.0000 0.76420  0.60450  0.42150  Biso   1.000  H
  H47      1.0000 0.88550  0.81030  0.22180  Biso   1.000  H
  C78      1.0000 0.95200  0.77390  0.13010  Biso   1.000  C
  C79      1.0000 0.04530  0.66290  0.10620  Biso   1.000  C
  H48      1.0000 0.04000  0.62640  0.18380  Biso   1.000  H
  H49      1.0000 0.63680  0.18920  0.32120  Biso   1.000  H
  C80      1.0000 0.69480  0.09510  0.32230  Biso   1.000  C
  C81      1.0000 0.80900  0.03720  0.22730  Biso   1.000  C
  H50      1.0000 0.83140  0.09240  0.16190  Biso   1.000  H
  H51      1.0000 0.89850  0.29690  0.23980  Biso   1.000  H
  C82      1.0000 0.88360  0.38620  0.25130  Biso   1.000  C
  C83      1.0000 0.75690  0.46230  0.32680  Biso   1.000  C
  H52      1.0000 0.69000  0.42450  0.35660  Biso   1.000  H
  H53      1.0000 0.74960  0.16930  0.36160  Biso   1.000  H
  C84      1.0000 0.72480  0.19850  0.45070  Biso   1.000  C
  C85      1.0000 0.64820  0.31100  0.48800  Biso   1.000  C
  H54      1.0000 0.61380  0.35880  0.42930  Biso   1.000  H
  H55      1.0000 0.58150  0.27050  0.25060  Biso   1.000  H
  C86      1.0000 0.49350  0.29490  0.34160  Biso   1.000  C
  C87      1.0000 0.46890  0.37670  0.40760  Biso   1.000  C
  H56      1.0000 0.53780  0.41270  0.36420  Biso   1.000  H
  H57      1.0000 0.13050  0.64240  0.87250  Biso   1.000  H
  C88      1.0000 0.07840  0.67130  0.96660  Biso   1.000  C
  C89      1.0000 0.04060  0.77960  0.99770  Biso   1.000  C
  H58      1.0000 0.07090  0.82310  0.92270  Biso   1.000  H
  H59      1.0000 0.07010  0.48250  0.39130  Biso   1.000  H
  C90      1.0000 0.98000  0.51800  0.48270  Biso   1.000  C
  H60      1.0000 0.87960  0.57020  0.55780  Biso   1.000  H
  H61      1.0000 0.82840  0.82700  0.57080  Biso   1.000  H
  C91      1.0000 0.72770  0.88740  0.58180  Biso   1.000  C
  H62      1.0000 0.63320  0.92450  0.58550  Biso   1.000  H
  H63      1.0000 0.57380  0.85190  0.34230  Biso   1.000  H
  C92      1.0000 0.65170  0.79010  0.25710  Biso   1.000  C
  H64      1.0000 0.74680  0.73430  0.17700  Biso   1.000  H
  H65      1.0000 0.88670  0.93520  0.26340  Biso   1.000  H
  C93      1.0000 0.77700  0.97820  0.31730  Biso   1.000  C
  H66      1.0000 0.67020  0.00200  0.38000  Biso   1.000  H
  H67      1.0000 0.53810  0.77940  0.56310  Biso   1.000  H
  C94      1.0000 0.60040  0.68140  0.54530  Biso   1.000  C
  H68      1.0000 0.68100  0.58670  0.50600  Biso   1.000  H
  H69      1.0000 0.92720  0.81190  0.11710  Biso   1.000  H
  C95      1.0000 0.01260  0.72010  0.08450  Biso   1.000  C
  H70      1.0000 0.08490  0.62420  0.07670  Biso   1.000  H
  H71      1.0000 0.65880  0.09630  0.36340  Biso   1.000  H
  C96      1.0000 0.75940  0.03750  0.28850  Biso   1.000  C
  H72      1.0000 0.85220  0.99790  0.20170  Biso   1.000  H
  H73      1.0000 0.93280  0.37560  0.22210  Biso   1.000  H
  C97      1.0000 0.82970  0.44910  0.28600  Biso   1.000  C
  H74      1.0000 0.71980  0.50420  0.35140  Biso   1.000  H
  H75      1.0000 0.75040  0.15640  0.45730  Biso   1.000  H
  C98      1.0000 0.69230  0.24950  0.49600  Biso   1.000  C
  H76      1.0000 0.62230  0.34780  0.51990  Biso   1.000  H
  H77      1.0000 0.48160  0.26510  0.33410  Biso   1.000  H
  C99      1.0000 0.45260  0.33050  0.40000  Biso   1.000  C
  H78      1.0000 0.44000  0.40520  0.44730  Biso   1.000  H
  H79      1.0000 0.08130  0.63160  0.97750  Biso   1.000  H
  C100     1.0000 0.04320  0.72530  0.01580  Biso   1.000  C
  H80      1.0000 0.01690  0.81610  0.02920  Biso   1.000  H
  C101     1.0000 0.70970  0.94790  0.61780  Biso   1.000  C
  C102     1.0000 0.60030  0.78530  0.24420  Biso   1.000  C
  C103     1.0000 0.84550  0.50150  0.27880  Biso   1.000  C
  C104     1.0000 0.69310  0.24010  0.55640  Biso   1.000  C
  C105     1.0000 0.64160  0.98730  0.66880  Biso   1.000  C
  C106     1.0000 0.76320  0.96760  0.59540  Biso   1.000  C
  C107     1.0000 0.61970  0.76550  0.18270  Biso   1.000  C
  C108     1.0000 0.53460  0.79660  0.29170  Biso   1.000  C
  C109     1.0000 0.91290  0.49310  0.26510  Biso   1.000  C
  C110     1.0000 0.79260  0.56460  0.28500  Biso   1.000  C
  C111     1.0000 0.63360  0.28280  0.61440  Biso   1.000  C
  C112     1.0000 0.75150  0.18760  0.55990  Biso   1.000  C
  C113     1.0000 0.62480  0.04440  0.69720  Biso   1.000  C
  H81      1.0000 0.60530  0.97500  0.68500  Biso   1.000  H
  H82      1.0000 0.81150  0.94090  0.56120  Biso   1.000  H
  C114     1.0000 0.74400  0.02500  0.62360  Biso   1.000  C
  C115     1.0000 0.57040  0.76050  0.17110  Biso   1.000  C
  H83      1.0000 0.66680  0.75530  0.14830  Biso   1.000  H
  H84      1.0000 0.52120  0.80930  0.33400  Biso   1.000  H
  C116     1.0000 0.48380  0.79040  0.28180  Biso   1.000  C
  C117     1.0000 0.92620  0.54310  0.26070  Biso   1.000  C
  H85      1.0000 0.95140  0.45070  0.25840  Biso   1.000  H
  H86      1.0000 0.74660  0.57330  0.29170  Biso   1.000  H
  C118     1.0000 0.80610  0.61300  0.28150  Biso   1.000  C
  C119     1.0000 0.63490  0.27060  0.66990  Biso   1.000  C
  H87      1.0000 0.59290  0.31980  0.61490  Biso   1.000  H
  H88      1.0000 0.79310  0.15800  0.52220  Biso   1.000  H
  C120     1.0000 0.74970  0.17830  0.61620  Biso   1.000  C
  N21      1.0000 0.67780  0.06070  0.67410  Biso   1.000  N
  H89      1.0000 0.57730  0.07180  0.73200  Biso   1.000  H
  H90      1.0000 0.77820  0.03970  0.60710  Biso   1.000  H
  N22      1.0000 0.50620  0.77120  0.22010  Biso   1.000  N
  H91      1.0000 0.58260  0.74960  0.12880  Biso   1.000  H
  H92      1.0000 0.43720  0.79900  0.31600  Biso   1.000  H
  N23      1.0000 0.87180  0.60300  0.26980  Biso   1.000  N
  H93      1.0000 0.97270  0.53550  0.25160  Biso   1.000  H
  H94      1.0000 0.76850  0.65570  0.28740  Biso   1.000  H
  N24      1.0000 0.69200  0.21970  0.67050  Biso   1.000  N
  H95      1.0000 0.59420  0.29900  0.70880  Biso   1.000  H
  H96      1.0000 0.78970  0.14210  0.61730  Biso   1.000  H
  Ho4      1.0000 0.63911  0.15311  0.79844  Biso   1.000  Ho
  O25      1.0000 0.74830  0.12550  0.79340  Biso   1.000  O
  O26      1.0000 0.70430  0.03910  0.77820  Biso   1.000  O
  O27      1.0000 0.61950  0.12910  0.90050  Biso   1.000  O
  O28      1.0000 0.54910  0.12450  0.83570  Biso   1.000  O
  O29      1.0000 0.60020  0.24610  0.86280  Biso   1.000  O
  O30      1.0000 0.66040  0.11760  0.70090  Biso   1.000  O
  O31      1.0000 0.53960  0.23600  0.79140  Biso   1.000  O
  O32      1.0000 0.69170  0.20760  0.72450  Biso   1.000  O
  N25      1.0000 0.78780  0.15390  0.76930  Biso   1.000  N
  N26      1.0000 0.76970  0.00160  0.77540  Biso   1.000  N
  N27      1.0000 0.63590  0.14970  0.93670  Biso   1.000  N
  N28      1.0000 0.53620  0.09000  0.88080  Biso   1.000  N
  N29      1.0000 0.55470  0.30660  0.86060  Biso   1.000  N
  C121     1.0000 0.76870  0.20740  0.80330  Biso   1.000  C
  C122     1.0000 0.84720  0.12900  0.71030  Biso   1.000  C
  C123     1.0000 0.77020  0.98190  0.82900  Biso   1.000  C
  C124     1.0000 0.82990  0.98410  0.72120  Biso   1.000  C
  C125     1.0000 0.70330  0.12050  0.92710  Biso   1.000  C
  C126     1.0000 0.58130  0.20080  0.98450  Biso   1.000  C
  C127     1.0000 0.57470  0.02570  0.86460  Biso   1.000  C
  C128     1.0000 0.48410  0.12040  0.94040  Biso   1.000  C
  C129     1.0000 0.58460  0.33700  0.81840  Biso   1.000  C
  C130     1.0000 0.48310  0.33080  0.89660  Biso   1.000  C
  H97      1.0000 0.72550  0.22560  0.84400  Biso   1.000  H
  C131     1.0000 0.81120  0.23600  0.77960  Biso   1.000  C
  C132     1.0000 0.88990  0.15620  0.68390  Biso   1.000  C
  H98      1.0000 0.85930  0.09170  0.68680  Biso   1.000  H
  H99      1.0000 0.72540  0.99230  0.86690  Biso   1.000  H
  C133     1.0000 0.83430  0.94750  0.82870  Biso   1.000  C
  C134     1.0000 0.89890  0.94630  0.71680  Biso   1.000  C
  H100     1.0000 0.82720  0.99680  0.68420  Biso   1.000  H
  H101     1.0000 0.74030  0.08370  0.89420  Biso   1.000  H
  C135     1.0000 0.72150  0.14080  0.96220  Biso   1.000  C
  C136     1.0000 0.59690  0.22430  0.02160  Biso   1.000  C
  H102     1.0000 0.53240  0.22040  0.99240  Biso   1.000  H
  H103     1.0000 0.61050  0.00510  0.82160  Biso   1.000  H
  C137     1.0000 0.56090  0.98950  0.91250  Biso   1.000  C
  C138     1.0000 0.46970  0.08480  0.98830  Biso   1.000  C
  H104     1.0000 0.45690  0.16610  0.95030  Biso   1.000  H
  H105     1.0000 0.63630  0.31910  0.79490  Biso   1.000  H
  C139     1.0000 0.53890  0.39490  0.80960  Biso   1.000  C
  C140     1.0000 0.43430  0.38890  0.89120  Biso   1.000  C
  H106     1.0000 0.46490  0.30760  0.92690  Biso   1.000  H
  H107     1.0000 0.79880  0.27190  0.80530  Biso   1.000  H
  C141     1.0000 0.87270  0.21290  0.71780  Biso   1.000  C
  H108     1.0000 0.93170  0.13740  0.64240  Biso   1.000  H
  H109     1.0000 0.83360  0.93630  0.86730  Biso   1.000  H
  C142     1.0000 0.90250  0.92760  0.77210  Biso   1.000  C
  H110     1.0000 0.94260  0.93340  0.67700  Biso   1.000  H
  H111     1.0000 0.77090  0.11830  0.95320  Biso   1.000  H
  C143     1.0000 0.67030  0.19350  0.01100  Biso   1.000  C
  H112     1.0000 0.55890  0.26110  0.05430  Biso   1.000  H
  H113     1.0000 0.58780  0.94390  0.90160  Biso   1.000  H
  C144     1.0000 0.50790  0.01940  0.97660  Biso   1.000  C
  H114     1.0000 0.43180  0.10700  0.03050  Biso   1.000  H
  H115     1.0000 0.55920  0.41780  0.78050  Biso   1.000  H
  C145     1.0000 0.46160  0.42070  0.84380  Biso   1.000  C
  H116     1.0000 0.38300  0.40710  0.91910  Biso   1.000  H
  C146     1.0000 0.91990  0.24130  0.69010  Biso   1.000  C
  C147     1.0000 0.97230  0.89560  0.77120  Biso   1.000  C
  C148     1.0000 0.69090  0.21860  0.04640  Biso   1.000  C
  C149     1.0000 0.41140  0.47760  0.82890  Biso   1.000  C
  C150     1.0000 0.90040  0.30010  0.71400  Biso   1.000  C
  C151     1.0000 0.98890  0.20860  0.63530  Biso   1.000  C
  C152     1.0000 0.98200  0.90970  0.81700  Biso   1.000  C
  C153     1.0000 0.03510  0.84910  0.71570  Biso   1.000  C
  C154     1.0000 0.75800  0.17990  0.04410  Biso   1.000  C
  C155     1.0000 0.64650  0.28030  0.08500  Biso   1.000  C
  C156     1.0000 0.34290  0.52070  0.87370  Biso   1.000  C
  C157     1.0000 0.43080  0.48170  0.76400  Biso   1.000  C
  C158     1.0000 0.94790  0.32370  0.68880  Biso   1.000  C
  H117     1.0000 0.85260  0.32600  0.74910  Biso   1.000  H
  H118     1.0000 0.00330  0.16810  0.61550  Biso   1.000  H
  C159     1.0000 0.03650  0.23100  0.60860  Biso   1.000  C
  C160     1.0000 0.05050  0.88400  0.80930  Biso   1.000  C
  H119     1.0000 0.94040  0.93800  0.85560  Biso   1.000  H
  H120     1.0000 0.03020  0.83630  0.68320  Biso   1.000  H
  C161     1.0000 0.10250  0.82330  0.71070  Biso   1.000  C
  C162     1.0000 0.77980  0.20370  0.07590  Biso   1.000  C
  H121     1.0000 0.78910  0.13710  0.02080  Biso   1.000  H
  H122     1.0000 0.59920  0.30790  0.09000  Biso   1.000  H
  C163     1.0000 0.66970  0.30070  0.11470  Biso   1.000  C
  C164     1.0000 0.29550  0.56980  0.85680  Biso   1.000  C
  H123     1.0000 0.32670  0.51760  0.91730  Biso   1.000  H
  H124     1.0000 0.47730  0.45040  0.73070  Biso   1.000  H
  C165     1.0000 0.38340  0.52930  0.75060  Biso   1.000  C
  N30      1.0000 0.01460  0.29010  0.63700  Biso   1.000  N
  H125     1.0000 0.93320  0.36440  0.70820  Biso   1.000  H
  H126     1.0000 0.08320  0.20680  0.57170  Biso   1.000  H
  N31      1.0000 0.10980  0.84230  0.75610  Biso   1.000  N
  H127     1.0000 0.05610  0.89570  0.84180  Biso   1.000  H
  H128     1.0000 0.14480  0.79150  0.67470  Biso   1.000  H
  N32      1.0000 0.73610  0.26400  0.10900  Biso   1.000  N
  H129     1.0000 0.82570  0.17710  0.07400  Biso   1.000  H
  H130     1.0000 0.63820  0.34240  0.14060  Biso   1.000  H
  N33      1.0000 0.31630  0.57300  0.79600  Biso   1.000  N
  H131     1.0000 0.24800  0.60120  0.88890  Biso   1.000  H
  H132     1.0000 0.39770  0.53260  0.70730  Biso   1.000  H
  O33      1.0000 0.06000  0.31260  0.61450  Biso   1.000  O
  O34      1.0000 0.17570  0.82000  0.74880  Biso   1.000  O
  O35      1.0000 0.76090  0.28480  0.13500  Biso   1.000  O
  O36      1.0000 0.26810  0.61700  0.78080  Biso   1.000  O
  Ho5      1.0000 0.15294  0.28303  0.64067  Biso   1.000  Ho
  Ho6      1.0000 0.25336  0.72003  0.76377  Biso   1.000  Ho
  O37      1.0000 0.12190  0.38570  0.61740  Biso   1.000  O
  O38      1.0000 0.22180  0.26500  0.52650  Biso   1.000  O
  O39      1.0000 0.20890  0.20660  0.69200  Biso   1.000  O
  O40      1.0000 0.17830  0.18230  0.60330  Biso   1.000  O
  O41      1.0000 0.25650  0.28840  0.61520  Biso   1.000  O
  O42      1.0000 0.05680  0.27780  0.72590  Biso   1.000  O
  O43      1.0000 0.11740  0.34690  0.73220  Biso   1.000  O
  O44      1.0000 0.27780  0.79720  0.78530  Biso   1.000  O
  O45      1.0000 0.22520  0.68990  0.69560  Biso   1.000  O
  O46      1.0000 0.33080  0.72560  0.66150  Biso   1.000  O
  O47      1.0000 0.37520  0.65530  0.74520  Biso   1.000  O
  O48      1.0000 0.13230  0.74030  0.82910  Biso   1.000  O
  N34      1.0000 0.08920  0.41510  0.58450  Biso   1.000  N
  N35      1.0000 0.23880  0.21610  0.48890  Biso   1.000  N
  N36      1.0000 0.25570  0.20690  0.70790  Biso   1.000  N
  N37      1.0000 0.19340  0.13050  0.62830  Biso   1.000  N
  N38      1.0000 0.30180  0.29780  0.56250  Biso   1.000  N
  N39      1.0000 0.03710  0.27880  0.78800  Biso   1.000  N
  N40      1.0000 0.26640  0.85120  0.76060  Biso   1.000  N
  N41      1.0000 0.20730  0.64460  0.70060  Biso   1.000  N
  N42      1.0000 0.32140  0.73380  0.61250  Biso   1.000  N
  N43      1.0000 0.43390  0.65710  0.69770  Biso   1.000  N
  N44      1.0000 0.89740  0.26490  0.11050  Biso   1.000  N
  C166     1.0000 0.01580  0.45700  0.61580  Biso   1.000  C
  C167     1.0000 0.12880  0.40580  0.51990  Biso   1.000  C
  C168     1.0000 0.19120  0.21940  0.47140  Biso   1.000  C
  C169     1.0000 0.30410  0.16340  0.46520  Biso   1.000  C
  C170     1.0000 0.32900  0.17220  0.66680  Biso   1.000  C
  C171     1.0000 0.22660  0.23980  0.76720  Biso   1.000  C
  C172     1.0000 0.13740  0.12300  0.67710  Biso   1.000  C
  C173     1.0000 0.26030  0.08560  0.60960  Biso   1.000  C
  C174     1.0000 0.36600  0.24850  0.51920  Biso   1.000  C
  C175     1.0000 0.28290  0.36030  0.55050  Biso   1.000  C
  C176     1.0000 0.07190  0.22680  0.80850  Biso   1.000  C
  C177     1.0000 0.98060  0.33540  0.83110  Biso   1.000  C
  C178     1.0000 0.31820  0.84980  0.70230  Biso   1.000  C
  C179     1.0000 0.20350  0.90710  0.79670  Biso   1.000  C
  C180     1.0000 0.13750  0.65980  0.73910  Biso   1.000  C
  C181     1.0000 0.26050  0.58510  0.66880  Biso   1.000  C
  C182     1.0000 0.27790  0.79450  0.60550  Biso   1.000  C
  C183     1.0000 0.35680  0.68280  0.56570  Biso   1.000  C
  C184     1.0000 0.44740  0.70190  0.70920  Biso   1.000  C
  C185     1.0000 0.47340  0.61830  0.64190  Biso   1.000  C
  C186     1.0000 0.89290  0.32230  0.09490  Biso   1.000  C
  C187     1.0000 0.92830  0.21580  0.06570  Biso   1.000  C
  H133     1.0000 0.98890  0.46320  0.66090  Biso   1.000  H
  C188     1.0000 0.98140  0.48900  0.58540  Biso   1.000  C
  C189     1.0000 0.09310  0.43820  0.48730  Biso   1.000  C
  H134     1.0000 0.18030  0.37730  0.49770  Biso   1.000  H
  H135     1.0000 0.14650  0.25850  0.48330  Biso   1.000  H
  C190     1.0000 0.20640  0.17010  0.43910  Biso   1.000  C
  C191     1.0000 0.31960  0.11280  0.43070  Biso   1.000  C
  H136     1.0000 0.34010  0.16150  0.47280  Biso   1.000  H
  H137     1.0000 0.34810  0.14820  0.62700  Biso   1.000  H
  C192     1.0000 0.37470  0.17330  0.68520  Biso   1.000  C
  C193     1.0000 0.27330  0.24160  0.78290  Biso   1.000  C
  H138     1.0000 0.17540  0.26070  0.79640  Biso   1.000  H
  H139     1.0000 0.08780  0.15590  0.69250  Biso   1.000  H
  C194     1.0000 0.15250  0.06920  0.70340  Biso   1.000  C
  C195     1.0000 0.27980  0.02950  0.63480  Biso   1.000  C
  H140     1.0000 0.29860  0.09100  0.57640  Biso   1.000  H
  H141     1.0000 0.37690  0.20590  0.52590  Biso   1.000  H
  C196     1.0000 0.41630  0.25660  0.46580  Biso   1.000  C
  C197     1.0000 0.33090  0.37040  0.50000  Biso   1.000  C
  H142     1.0000 0.23580  0.39550  0.57850  Biso   1.000  H
  H143     1.0000 0.11450  0.18970  0.77820  Biso   1.000  H
  C198     1.0000 0.04800  0.22610  0.86990  Biso   1.000  C
  C199     1.0000 0.95470  0.33710  0.89380  Biso   1.000  C
  H144     1.0000 0.96000  0.37360  0.81620  Biso   1.000  H
  H145     1.0000 0.36320  0.81080  0.67880  Biso   1.000  H
  C200     1.0000 0.30520  0.90490  0.67770  Biso   1.000  C
  C201     1.0000 0.19100  0.96280  0.77270  Biso   1.000  C
  H146     1.0000 0.16860  0.90760  0.83810  Biso   1.000  H
  H147     1.0000 0.10150  0.70310  0.76020  Biso   1.000  H
  C202     1.0000 0.11640  0.61380  0.74870  Biso   1.000  C
  C203     1.0000 0.24310  0.53770  0.67320  Biso   1.000  C
  H148     1.0000 0.31000  0.57550  0.64340  Biso   1.000  H
  H149     1.0000 0.25040  0.83070  0.63840  Biso   1.000  H
  C204     1.0000 0.27520  0.80150  0.54930  Biso   1.000  C
  C205     1.0000 0.35180  0.68900  0.51200  Biso   1.000  C
  H150     1.0000 0.38620  0.64120  0.57070  Biso   1.000  H
  H151     1.0000 0.41850  0.72950  0.74940  Biso   1.000  H
  C206     1.0000 0.50650  0.70510  0.65840  Biso   1.000  C
  C207     1.0000 0.53110  0.62330  0.59240  Biso   1.000  C
  H152     1.0000 0.46220  0.58730  0.63580  Biso   1.000  H
  H153     1.0000 0.86950  0.35760  0.12750  Biso   1.000  H
  C208     1.0000 0.92160  0.32870  0.03340  Biso   1.000  C
  C209     1.0000 0.95940  0.22040  0.00230  Biso   1.000  C
  H154     1.0000 0.92910  0.17690  0.07730  Biso   1.000  H
  H155     1.0000 0.92990  0.51750  0.60870  Biso   1.000  H
  C210     1.0000 0.02000  0.48200  0.51730  Biso   1.000  C
  H156     1.0000 0.12040  0.42980  0.44220  Biso   1.000  H
  H157     1.0000 0.17160  0.17300  0.42920  Biso   1.000  H
  C211     1.0000 0.27230  0.11260  0.41820  Biso   1.000  C
  H158     1.0000 0.36680  0.07550  0.41450  Biso   1.000  H
  H159     1.0000 0.42620  0.14810  0.65770  Biso   1.000  H
  C212     1.0000 0.34830  0.20990  0.74290  Biso   1.000  C
  H160     1.0000 0.25320  0.26570  0.82300  Biso   1.000  H
  H161     1.0000 0.11330  0.06480  0.73660  Biso   1.000  H
  C213     1.0000 0.22300  0.02180  0.68270  Biso   1.000  C
  H162     1.0000 0.32980  0.99800  0.62000  Biso   1.000  H
  H163     1.0000 0.46190  0.22060  0.43690  Biso   1.000  H
  C214     1.0000 0.39960  0.31860  0.45470  Biso   1.000  C
  H164     1.0000 0.31900  0.41330  0.49400  Biso   1.000  H
  H165     1.0000 0.07280  0.18810  0.88290  Biso   1.000  H
  C215     1.0000 0.98740  0.27990  0.91550  Biso   1.000  C
  H166     1.0000 0.91510  0.37580  0.92330  Biso   1.000  H
  H167     1.0000 0.34120  0.90370  0.63660  Biso   1.000  H
  C216     1.0000 0.24060  0.96250  0.71150  Biso   1.000  C
  H168     1.0000 0.14780  0.00210  0.79830  Biso   1.000  H
  H169     1.0000 0.06720  0.62440  0.77790  Biso   1.000  H
  C217     1.0000 0.17030  0.55090  0.71400  Biso   1.000  C
  H170     1.0000 0.28020  0.49580  0.64860  Biso   1.000  H
  H171     1.0000 0.24960  0.84360  0.54270  Biso   1.000  H
  C218     1.0000 0.30770  0.75050  0.50400  Biso   1.000  C
  H172     1.0000 0.37770  0.65220  0.48010  Biso   1.000  H
  H173     1.0000 0.51840  0.73490  0.66590  Biso   1.000  H
  C219     1.0000 0.54740  0.66950  0.60000  Biso   1.000  C
  H174     1.0000 0.56000  0.59480  0.55270  Biso   1.000  H
  H175     1.0000 0.91870  0.36840  0.02250  Biso   1.000  H
  C220     1.0000 0.95680  0.27470  0.98420  Biso   1.000  C
  H176     1.0000 0.98310  0.18390  0.97080  Biso   1.000  H
  C221     1.0000 0.29030  0.05210  0.38220  Biso   1.000  C
  C222     1.0000 0.39970  0.21470  0.75580  Biso   1.000  C
  C223     1.0000 0.15450  0.49850  0.72120  Biso   1.000  C
  C224     1.0000 0.30690  0.75990  0.44360  Biso   1.000  C
  C225     1.0000 0.35840  0.01270  0.33120  Biso   1.000  C
  C226     1.0000 0.23680  0.03240  0.40460  Biso   1.000  C
  C227     1.0000 0.38030  0.23450  0.81730  Biso   1.000  C
  C228     1.0000 0.46540  0.20340  0.70830  Biso   1.000  C
  C229     1.0000 0.08710  0.50690  0.73490  Biso   1.000  C
  C230     1.0000 0.20740  0.43540  0.71500  Biso   1.000  C
  C231     1.0000 0.36640  0.71720  0.38560  Biso   1.000  C
  C232     1.0000 0.24850  0.81240  0.44010  Biso   1.000  C
  C233     1.0000 0.37520  0.95560  0.30280  Biso   1.000  C
  H177     1.0000 0.39470  0.02500  0.31500  Biso   1.000  H
  H178     1.0000 0.18850  0.05910  0.43880  Biso   1.000  H
  C234     1.0000 0.25600  0.97500  0.37640  Biso   1.000  C
  C235     1.0000 0.42960  0.23950  0.82890  Biso   1.000  C
  H179     1.0000 0.33320  0.24470  0.85170  Biso   1.000  H
  H180     1.0000 0.47880  0.19070  0.66600  Biso   1.000  H
  C236     1.0000 0.51620  0.20960  0.71820  Biso   1.000  C
  C237     1.0000 0.07380  0.45690  0.73930  Biso   1.000  C
  H181     1.0000 0.04860  0.54930  0.74160  Biso   1.000  H
  H182     1.0000 0.25340  0.42670  0.70830  Biso   1.000  H
  C238     1.0000 0.19390  0.38700  0.71850  Biso   1.000  C
  C239     1.0000 0.36510  0.72940  0.33010  Biso   1.000  C
  H183     1.0000 0.40710  0.68020  0.38510  Biso   1.000  H
  H184     1.0000 0.20690  0.84200  0.47780  Biso   1.000  H
  C240     1.0000 0.25030  0.82170  0.38380  Biso   1.000  C
  N45      1.0000 0.32220  0.93930  0.32590  Biso   1.000  N
  H185     1.0000 0.42270  0.92820  0.26800  Biso   1.000  H
  H186     1.0000 0.22180  0.96030  0.39290  Biso   1.000  H
  N46      1.0000 0.49380  0.22880  0.77990  Biso   1.000  N
  H187     1.0000 0.41740  0.25040  0.87120  Biso   1.000  H
  H188     1.0000 0.56280  0.20100  0.68400  Biso   1.000  H
  N47      1.0000 0.12820  0.39700  0.73020  Biso   1.000  N
  H189     1.0000 0.02730  0.46450  0.74840  Biso   1.000  H
  H190     1.0000 0.23150  0.34430  0.71260  Biso   1.000  H
  N48      1.0000 0.30800  0.78030  0.32950  Biso   1.000  N
  H191     1.0000 0.40580  0.70100  0.29120  Biso   1.000  H
  H192     1.0000 0.21030  0.85790  0.38270  Biso   1.000  H
