data_image0
_cell_length_a       8.4377
_cell_length_b       9.3015
_cell_length_c       12.848
_cell_angle_alpha    90
_cell_angle_beta     105.566
_cell_angle_gamma    90

_symmetry_space_group_name_H-M    "P 1"
_symmetry_int_tables_number       1

loop_
  _symmetry_equiv_pos_as_xyz
  'x, y, z'

loop_
  _atom_site_label
  _atom_site_occupancy
  _atom_site_fract_x
  _atom_site_fract_y
  _atom_site_fract_z
  _atom_site_thermal_displace_type
  _atom_site_B_iso_or_equiv
  _atom_site_type_symbol
  Mn1      1.0000 0.25629  0.74864  0.00990  Biso   1.000  Mn
  N1       1.0000 0.32199  0.79673  0.18720  Biso   1.000  N
  N2       1.0000 0.26717  0.79872  0.26128  Biso   1.000  N
  N3       1.0000 0.21297  0.80513  0.33538  Biso   1.000  N
  N4       1.0000 0.04234  0.61953  0.01655  Biso   1.000  N
  N5       1.0000 0.10512  0.94532  0.97111  Biso   1.000  N
  N6       1.0000 0.47992  0.87601  0.00714  Biso   1.000  N
  N7       1.0000 0.42770  0.55994  0.05307  Biso   1.000  N
  Mn2      1.0000 0.74371  0.24864  0.49010  Biso   1.000  Mn
  N8       1.0000 0.67801  0.29673  0.31280  Biso   1.000  N
  N9       1.0000 0.73283  0.29872  0.23872  Biso   1.000  N
  N10      1.0000 0.78703  0.30513  0.16462  Biso   1.000  N
  N11      1.0000 0.95766  0.11953  0.48345  Biso   1.000  N
  N12      1.0000 0.89488  0.44532  0.52889  Biso   1.000  N
  N13      1.0000 0.52008  0.37601  0.49286  Biso   1.000  N
  N14      1.0000 0.57230  0.05994  0.44693  Biso   1.000  N
  Mn3      1.0000 0.74371  0.25136  0.99010  Biso   1.000  Mn
  N15      1.0000 0.67801  0.20327  0.81280  Biso   1.000  N
  N16      1.0000 0.73283  0.20128  0.73872  Biso   1.000  N
  N17      1.0000 0.78703  0.19487  0.66462  Biso   1.000  N
  N18      1.0000 0.95766  0.38047  0.98345  Biso   1.000  N
  N19      1.0000 0.89488  0.05468  0.02889  Biso   1.000  N
  N20      1.0000 0.52008  0.12399  0.99286  Biso   1.000  N
  N21      1.0000 0.57230  0.44006  0.94693  Biso   1.000  N
  Mn4      1.0000 0.25629  0.75136  0.50990  Biso   1.000  Mn
  N22      1.0000 0.32199  0.70327  0.68720  Biso   1.000  N
  N23      1.0000 0.26717  0.70128  0.76128  Biso   1.000  N
  N24      1.0000 0.21297  0.69487  0.83538  Biso   1.000  N
  N25      1.0000 0.04234  0.88047  0.51655  Biso   1.000  N
  N26      1.0000 0.10512  0.55468  0.47111  Biso   1.000  N
  N27      1.0000 0.47992  0.62399  0.50714  Biso   1.000  N
  N28      1.0000 0.42770  0.94006  0.55307  Biso   1.000  N
  N29      1.0000 0.00000  0.50000  0.00000  Biso   1.000  N
  N30      1.0000 0.00000  0.00000  0.50000  Biso   1.000  N
  N31      1.0000 0.00000  0.00000  0.00000  Biso   1.000  N
  N32      1.0000 0.00000  0.50000  0.50000  Biso   1.000  N
  N33      1.0000 0.50000  0.00000  0.00000  Biso   1.000  N
  N34      1.0000 0.50000  0.50000  0.50000  Biso   1.000  N
  N35      1.0000 0.50000  0.50000  0.00000  Biso   1.000  N
  N36      1.0000 0.50000  0.00000  0.50000  Biso   1.000  N
