data_image0
_cell_length_a       12.02
_cell_length_b       11.19
_cell_length_c       11.067
_cell_angle_alpha    90
_cell_angle_beta     121.78
_cell_angle_gamma    90

_symmetry_space_group_name_H-M    "P 1"
_symmetry_int_tables_number       1

loop_
  _symmetry_equiv_pos_as_xyz
  'x, y, z'

loop_
  _atom_site_label
  _atom_site_occupancy
  _atom_site_fract_x
  _atom_site_fract_y
  _atom_site_fract_z
  _atom_site_thermal_displace_type
  _atom_site_B_iso_or_equiv
  _atom_site_type_symbol
  O1       1.0000 0.03400  0.11960  0.11420  Biso   1.000  O
  O2       1.0000 0.33860  0.12920  0.49390  Biso   1.000  O
  O3       1.0000 0.40970  0.29340  0.62520  Biso   1.000  O
  C1       1.0000 0.32190  0.22770  0.53400  Biso   1.000  C
  H1       1.0000 0.32700  0.06300  0.22000  Biso   1.000  H
  O4       1.0000 0.53400  0.61960  0.11420  Biso   1.000  O
  O5       1.0000 0.83860  0.62920  0.49390  Biso   1.000  O
  O6       1.0000 0.90970  0.79340  0.62520  Biso   1.000  O
  C2       1.0000 0.82190  0.72770  0.53400  Biso   1.000  C
  H2       1.0000 0.82700  0.56300  0.22000  Biso   1.000  H
  O7       1.0000 0.96600  0.11960  0.88580  Biso   1.000  O
  O8       1.0000 0.66140  0.12920  0.50610  Biso   1.000  O
  O9       1.0000 0.59030  0.29340  0.37480  Biso   1.000  O
  C3       1.0000 0.67810  0.22770  0.46600  Biso   1.000  C
  H3       1.0000 0.67300  0.06300  0.78000  Biso   1.000  H
  O10      1.0000 0.46600  0.61960  0.88580  Biso   1.000  O
  O11      1.0000 0.16140  0.62920  0.50610  Biso   1.000  O
  O12      1.0000 0.09030  0.79340  0.37480  Biso   1.000  O
  C4       1.0000 0.17810  0.72770  0.46600  Biso   1.000  C
  H4       1.0000 0.17300  0.56300  0.78000  Biso   1.000  H
  O13      1.0000 0.96600  0.88040  0.88580  Biso   1.000  O
  O14      1.0000 0.66140  0.87080  0.50610  Biso   1.000  O
  O15      1.0000 0.59030  0.70660  0.37480  Biso   1.000  O
  C5       1.0000 0.67810  0.77230  0.46600  Biso   1.000  C
  H5       1.0000 0.67300  0.93700  0.78000  Biso   1.000  H
  O16      1.0000 0.46600  0.38040  0.88580  Biso   1.000  O
  O17      1.0000 0.16140  0.37080  0.50610  Biso   1.000  O
  O18      1.0000 0.09030  0.20660  0.37480  Biso   1.000  O
  C6       1.0000 0.17810  0.27230  0.46600  Biso   1.000  C
  H6       1.0000 0.17300  0.43700  0.78000  Biso   1.000  H
  O19      1.0000 0.03400  0.88040  0.11420  Biso   1.000  O
  O20      1.0000 0.33860  0.87080  0.49390  Biso   1.000  O
  O21      1.0000 0.40970  0.70660  0.62520  Biso   1.000  O
  C7       1.0000 0.32190  0.77230  0.53400  Biso   1.000  C
  H7       1.0000 0.32700  0.93700  0.22000  Biso   1.000  H
  O22      1.0000 0.53400  0.38040  0.11420  Biso   1.000  O
  O23      1.0000 0.83860  0.37080  0.49390  Biso   1.000  O
  O24      1.0000 0.90970  0.20660  0.62520  Biso   1.000  O
  C8       1.0000 0.82190  0.27230  0.53400  Biso   1.000  C
  H8       1.0000 0.82700  0.43700  0.22000  Biso   1.000  H
  Bi1      1.0000 0.14318  0.00000  0.33987  Biso   1.000  Bi
  O25      1.0000 0.93590  0.00000  0.31550  Biso   1.000  O
  O26      1.0000 0.83170  0.00000  0.43120  Biso   1.000  O
  C9       1.0000 0.93430  0.00000  0.42780  Biso   1.000  C
  O27      1.0000 0.32110  0.00000  0.25730  Biso   1.000  O
  Bi2      1.0000 0.64318  0.50000  0.33987  Biso   1.000  Bi
  O28      1.0000 0.43590  0.50000  0.31550  Biso   1.000  O
  O29      1.0000 0.33170  0.50000  0.43120  Biso   1.000  O
  C10      1.0000 0.43430  0.50000  0.42780  Biso   1.000  C
  O30      1.0000 0.82110  0.50000  0.25730  Biso   1.000  O
  Bi3      1.0000 0.85682  0.00000  0.66013  Biso   1.000  Bi
  O31      1.0000 0.06410  0.00000  0.68450  Biso   1.000  O
  O32      1.0000 0.16830  0.00000  0.56880  Biso   1.000  O
  C11      1.0000 0.06570  0.00000  0.57220  Biso   1.000  C
  O33      1.0000 0.67890  0.00000  0.74270  Biso   1.000  O
  Bi4      1.0000 0.35682  0.50000  0.66013  Biso   1.000  Bi
  O34      1.0000 0.56410  0.50000  0.68450  Biso   1.000  O
  O35      1.0000 0.66830  0.50000  0.56880  Biso   1.000  O
  C12      1.0000 0.56570  0.50000  0.57220  Biso   1.000  C
  O36      1.0000 0.17890  0.50000  0.74270  Biso   1.000  O
  Na1      1.0000 0.50000  0.00000  0.50000  Biso   1.000  Na
  Na2      1.0000 0.00000  0.50000  0.50000  Biso   1.000  Na
  C13      1.0000 0.00000  0.06860  0.00000  Biso   1.000  C
  C14      1.0000 0.50000  0.56860  0.00000  Biso   1.000  C
  C15      1.0000 0.00000  0.93140  0.00000  Biso   1.000  C
  C16      1.0000 0.50000  0.43140  0.00000  Biso   1.000  C
