data_fcu_sym_12_mc_11__L_2
_audit_creation_date              2015-10-09
_audit_creation_method            'Materials Studio'
_symmetry_space_group_name_H-M    'P1'
_symmetry_Int_Tables_number       1
_symmetry_cell_setting            triclinic
loop_
_symmetry_equiv_pos_as_xyz
  x,y,z
_cell_length_a                    17.9309
_cell_length_b                    17.9309
_cell_length_c                    17.9309
_cell_angle_alpha                 90.0000
_cell_angle_beta                  90.0000
_cell_angle_gamma                 90.0000
loop_
_atom_site_label
_atom_site_type_symbol
_atom_site_fract_x
_atom_site_fract_y
_atom_site_fract_z
_atom_site_U_iso_or_equiv
_atom_site_adp_type
_atom_site_occupancy
O1     O    -0.19973   0.08928  -0.01010   0.00000  Uiso   1.00
O2     O     0.18740   0.11581   0.00421   0.00000  Uiso   1.00
O3     O    -0.01357   0.20015   0.08968   0.00000  Uiso   1.00
O4     O    -0.00421   0.18740  -0.11581   0.00000  Uiso   1.00
O5     O     0.00954   0.09017  -0.19936   0.00000  Uiso   1.00
O6     O    -0.01299   0.11623   0.18744   0.00000  Uiso   1.00
O7     O     0.09017   0.19936  -0.00955   0.00000  Uiso   1.00
O8     O    -0.11581   0.18705  -0.00834   0.00000  Uiso   1.00
Zr9    Zr   -0.00828   0.13265  -0.00848   0.00000  Uiso   1.00
O10    O     0.06757   0.06757  -0.06757   0.00000  Uiso   1.00
O11    O    -0.07651   0.06728   0.05875   0.00000  Uiso   1.00
X12    C    -0.18387   0.16027  -0.00752   0.00000  Uiso   1.00
X13    C     0.16093   0.18355  -0.00384   0.00000  Uiso   1.00
X14    C    -0.01320   0.18435   0.16075   0.00000  Uiso   1.00
X15    C     0.00384   0.16093  -0.18355   0.00000  Uiso   1.00
H16    H     0.08856   0.10952   0.09840   0.00000  Uiso   1.00
O17    O     0.05901   0.07538   0.06681   0.00000  Uiso   1.00
H18    H    -0.09840   0.08856  -0.10951   0.00000  Uiso   1.00
O19    O    -0.06681   0.05901  -0.07538   0.00000  Uiso   1.00
O20    O     0.20015  -0.08968   0.01357   0.00000  Uiso   1.00
O21    O    -0.18625  -0.11701  -0.00852   0.00000  Uiso   1.00
O22    O     0.08928   0.01010   0.19973   0.00000  Uiso   1.00
O23    O     0.11581  -0.00421  -0.18740   0.00000  Uiso   1.00
O24    O    -0.08968  -0.01357  -0.20015   0.00000  Uiso   1.00
O25    O    -0.11701   0.00852   0.18625   0.00000  Uiso   1.00
O26    O     0.00852  -0.18625   0.11701   0.00000  Uiso   1.00
O27    O     0.01010  -0.19973  -0.08928   0.00000  Uiso   1.00
O28    O    -0.00639  -0.08890   0.20021   0.00000  Uiso   1.00
O29    O     0.00834  -0.11581  -0.18705   0.00000  Uiso   1.00
O30    O     0.18705   0.00834   0.11581   0.00000  Uiso   1.00
O31    O    -0.20021  -0.00639   0.08890   0.00000  Uiso   1.00
O32    O    -0.18744  -0.01299  -0.11623   0.00000  Uiso   1.00
O33    O     0.19936   0.00954  -0.09017   0.00000  Uiso   1.00
O34    O     0.11623  -0.18744   0.01299   0.00000  Uiso   1.00
O35    O    -0.08890  -0.20021   0.00640   0.00000  Uiso   1.00
Zr36   Zr    0.13265   0.00848   0.00828   0.00000  Uiso   1.00
Zr37   Zr   -0.13255  -0.00909  -0.00890   0.00000  Uiso   1.00
Zr38   Zr   -0.00909   0.00890   0.13255   0.00000  Uiso   1.00
Zr39   Zr    0.00848  -0.00828  -0.13265   0.00000  Uiso   1.00
Zr40   Zr    0.00890  -0.13255   0.00909   0.00000  Uiso   1.00
O41    O    -0.05875  -0.07651  -0.06728   0.00000  Uiso   1.00
O42    O     0.06728  -0.05875   0.07651   0.00000  Uiso   1.00
X43    C     0.18435  -0.16075   0.01320   0.00000  Uiso   1.00
X44    C    -0.15954  -0.18475  -0.00142   0.00000  Uiso   1.00
X45    C     0.16027   0.00752   0.18387   0.00000  Uiso   1.00
X46    C     0.18355   0.00384  -0.16093   0.00000  Uiso   1.00
X47    C    -0.16075  -0.01320  -0.18435   0.00000  Uiso   1.00
X48    C    -0.18475   0.00142   0.15954   0.00000  Uiso   1.00
X49    C     0.00142  -0.15954   0.18476   0.00000  Uiso   1.00
X50    C     0.00752  -0.18387  -0.16027   0.00000  Uiso   1.00
H51    H    -0.09882  -0.09882   0.09882   0.00000  Uiso   1.00
O52    O    -0.06701  -0.06701   0.06701   0.00000  Uiso   1.00
H53    H     0.10951  -0.09840  -0.08856   0.00000  Uiso   1.00
O54    O     0.07538  -0.06681  -0.05901   0.00000  Uiso   1.00
O55    O     0.30027   0.58928  -0.01010   0.00000  Uiso   1.00
O56    O     0.68740   0.61581   0.00421   0.00000  Uiso   1.00
O57    O     0.48643   0.70015   0.08968   0.00000  Uiso   1.00
O58    O     0.49579   0.68740  -0.11581   0.00000  Uiso   1.00
O59    O     0.50954   0.59017  -0.19936   0.00000  Uiso   1.00
O60    O     0.48701   0.61623   0.18744   0.00000  Uiso   1.00
O61    O     0.59017   0.69936  -0.00955   0.00000  Uiso   1.00
O62    O     0.38419   0.68705  -0.00834   0.00000  Uiso   1.00
Zr63   Zr    0.49172   0.63265  -0.00848   0.00000  Uiso   1.00
O64    O     0.56757   0.56757  -0.06757   0.00000  Uiso   1.00
O65    O     0.42349   0.56728   0.05875   0.00000  Uiso   1.00
X66    C     0.31613   0.66027  -0.00752   0.00000  Uiso   1.00
X67    C     0.66093   0.68355  -0.00384   0.00000  Uiso   1.00
X68    C     0.48680   0.68435   0.16075   0.00000  Uiso   1.00
X69    C     0.50384   0.66093  -0.18355   0.00000  Uiso   1.00
H70    H     0.58856   0.60952   0.09840   0.00000  Uiso   1.00
O71    O     0.55901   0.57538   0.06681   0.00000  Uiso   1.00
H72    H     0.40160   0.58856  -0.10951   0.00000  Uiso   1.00
O73    O     0.43319   0.55901  -0.07538   0.00000  Uiso   1.00
O74    O     0.70015   0.41032   0.01357   0.00000  Uiso   1.00
O75    O     0.31375   0.38299  -0.00852   0.00000  Uiso   1.00
O76    O     0.58928   0.51010   0.19973   0.00000  Uiso   1.00
O77    O     0.61581   0.49579  -0.18740   0.00000  Uiso   1.00
O78    O     0.41032   0.48643  -0.20015   0.00000  Uiso   1.00
O79    O     0.38299   0.50852   0.18625   0.00000  Uiso   1.00
O80    O     0.50852   0.31375   0.11701   0.00000  Uiso   1.00
O81    O     0.51010   0.30027  -0.08928   0.00000  Uiso   1.00
O82    O     0.49361   0.41110   0.20021   0.00000  Uiso   1.00
O83    O     0.50834   0.38419  -0.18705   0.00000  Uiso   1.00
O84    O     0.68705   0.50834   0.11581   0.00000  Uiso   1.00
O85    O     0.29979   0.49361   0.08890   0.00000  Uiso   1.00
O86    O     0.31256   0.48701  -0.11623   0.00000  Uiso   1.00
O87    O     0.69936   0.50954  -0.09017   0.00000  Uiso   1.00
O88    O     0.61623   0.31256   0.01299   0.00000  Uiso   1.00
O89    O     0.41110   0.29979   0.00640   0.00000  Uiso   1.00
Zr90   Zr    0.63265   0.50848   0.00828   0.00000  Uiso   1.00
Zr91   Zr    0.36745   0.49091  -0.00890   0.00000  Uiso   1.00
Zr92   Zr    0.49091   0.50890   0.13255   0.00000  Uiso   1.00
Zr93   Zr    0.50848   0.49172  -0.13265   0.00000  Uiso   1.00
Zr94   Zr    0.50890   0.36745   0.00909   0.00000  Uiso   1.00
O95    O     0.44125   0.42349  -0.06728   0.00000  Uiso   1.00
O96    O     0.56728   0.44125   0.07651   0.00000  Uiso   1.00
X97    C     0.68435   0.33925   0.01320   0.00000  Uiso   1.00
X98    C     0.34046   0.31525  -0.00142   0.00000  Uiso   1.00
X99    C     0.66027   0.50752   0.18387   0.00000  Uiso   1.00
X100   C     0.68355   0.50384  -0.16093   0.00000  Uiso   1.00
X101   C     0.33925   0.48680  -0.18435   0.00000  Uiso   1.00
X102   C     0.31525   0.50142   0.15954   0.00000  Uiso   1.00
X103   C     0.50142   0.34046   0.18476   0.00000  Uiso   1.00
X104   C     0.50752   0.31613  -0.16027   0.00000  Uiso   1.00
H105   H     0.40118   0.40118   0.09882   0.00000  Uiso   1.00
O106   O     0.43299   0.43299   0.06701   0.00000  Uiso   1.00
H107   H     0.60951   0.40160  -0.08856   0.00000  Uiso   1.00
O108   O     0.57538   0.43319  -0.05901   0.00000  Uiso   1.00
O109   O    -0.19973   0.58928   0.48990   0.00000  Uiso   1.00
O110   O     0.18740   0.61581   0.50421   0.00000  Uiso   1.00
O111   O    -0.01357   0.70015   0.58968   0.00000  Uiso   1.00
O112   O    -0.00421   0.68740   0.38419   0.00000  Uiso   1.00
O113   O     0.00954   0.59017   0.30064   0.00000  Uiso   1.00
O114   O    -0.01299   0.61623   0.68744   0.00000  Uiso   1.00
O115   O     0.09017   0.69936   0.49046   0.00000  Uiso   1.00
O116   O    -0.11581   0.68705   0.49166   0.00000  Uiso   1.00
Zr117  Zr   -0.00828   0.63265   0.49152   0.00000  Uiso   1.00
O118   O     0.06757   0.56757   0.43243   0.00000  Uiso   1.00
O119   O    -0.07651   0.56728   0.55875   0.00000  Uiso   1.00
X120   C    -0.18387   0.66027   0.49248   0.00000  Uiso   1.00
X121   C     0.16093   0.68355   0.49616   0.00000  Uiso   1.00
X122   C    -0.01320   0.68435   0.66075   0.00000  Uiso   1.00
X123   C     0.00384   0.66093   0.31645   0.00000  Uiso   1.00
H124   H     0.08856   0.60951   0.59840   0.00000  Uiso   1.00
O125   O     0.05901   0.57538   0.56681   0.00000  Uiso   1.00
H126   H    -0.09840   0.58856   0.39049   0.00000  Uiso   1.00
O127   O    -0.06681   0.55901   0.42462   0.00000  Uiso   1.00
O128   O     0.20015   0.41032   0.51357   0.00000  Uiso   1.00
O129   O    -0.18625   0.38299   0.49148   0.00000  Uiso   1.00
O130   O     0.08928   0.51010   0.69973   0.00000  Uiso   1.00
O131   O     0.11581   0.49579   0.31260   0.00000  Uiso   1.00
O132   O    -0.08968   0.48643   0.29985   0.00000  Uiso   1.00
O133   O    -0.11701   0.50852   0.68625   0.00000  Uiso   1.00
O134   O     0.00852   0.31375   0.61701   0.00000  Uiso   1.00
O135   O     0.01010   0.30027   0.41072   0.00000  Uiso   1.00
O136   O    -0.00640   0.41110   0.70021   0.00000  Uiso   1.00
O137   O     0.00834   0.38419   0.31295   0.00000  Uiso   1.00
O138   O     0.18705   0.50834   0.61581   0.00000  Uiso   1.00
O139   O    -0.20021   0.49360   0.58890   0.00000  Uiso   1.00
O140   O    -0.18744   0.48701   0.38377   0.00000  Uiso   1.00
O141   O     0.19936   0.50954   0.40983   0.00000  Uiso   1.00
O142   O     0.11623   0.31256   0.51299   0.00000  Uiso   1.00
O143   O    -0.08890   0.29979   0.50639   0.00000  Uiso   1.00
Zr144  Zr    0.13265   0.50848   0.50828   0.00000  Uiso   1.00
Zr145  Zr   -0.13255   0.49091   0.49110   0.00000  Uiso   1.00
Zr146  Zr   -0.00909   0.50890   0.63255   0.00000  Uiso   1.00
Zr147  Zr    0.00848   0.49172   0.36735   0.00000  Uiso   1.00
Zr148  Zr    0.00890   0.36745   0.50909   0.00000  Uiso   1.00
O149   O    -0.05875   0.42349   0.43272   0.00000  Uiso   1.00
O150   O     0.06728   0.44125   0.57651   0.00000  Uiso   1.00
X151   C     0.18435   0.33925   0.51320   0.00000  Uiso   1.00
X152   C    -0.15954   0.31525   0.49858   0.00000  Uiso   1.00
X153   C     0.16027   0.50752   0.68387   0.00000  Uiso   1.00
X154   C     0.18355   0.50384   0.33907   0.00000  Uiso   1.00
X155   C    -0.16075   0.48680   0.31565   0.00000  Uiso   1.00
X156   C    -0.18476   0.50142   0.65954   0.00000  Uiso   1.00
X157   C     0.00142   0.34046   0.68475   0.00000  Uiso   1.00
X158   C     0.00752   0.31613   0.33973   0.00000  Uiso   1.00
H159   H    -0.09882   0.40118   0.59882   0.00000  Uiso   1.00
O160   O    -0.06701   0.43299   0.56701   0.00000  Uiso   1.00
H161   H     0.10952   0.40160   0.41144   0.00000  Uiso   1.00
O162   O     0.07538   0.43319   0.44099   0.00000  Uiso   1.00
O163   O     0.30027   0.08928   0.48990   0.00000  Uiso   1.00
O164   O     0.68740   0.11581   0.50421   0.00000  Uiso   1.00
O165   O     0.48643   0.20015   0.58968   0.00000  Uiso   1.00
O166   O     0.49579   0.18740   0.38419   0.00000  Uiso   1.00
O167   O     0.50954   0.09017   0.30064   0.00000  Uiso   1.00
O168   O     0.48701   0.11623   0.68744   0.00000  Uiso   1.00
O169   O     0.59017   0.19936   0.49046   0.00000  Uiso   1.00
O170   O     0.38419   0.18705   0.49166   0.00000  Uiso   1.00
Zr171  Zr    0.49172   0.13265   0.49152   0.00000  Uiso   1.00
O172   O     0.56757   0.06757   0.43243   0.00000  Uiso   1.00
O173   O     0.42349   0.06728   0.55875   0.00000  Uiso   1.00
X174   C     0.31613   0.16027   0.49248   0.00000  Uiso   1.00
X175   C     0.66093   0.18355   0.49616   0.00000  Uiso   1.00
X176   C     0.48680   0.18435   0.66075   0.00000  Uiso   1.00
X177   C     0.50384   0.16093   0.31645   0.00000  Uiso   1.00
H178   H     0.58856   0.10951   0.59840   0.00000  Uiso   1.00
O179   O     0.55901   0.07538   0.56681   0.00000  Uiso   1.00
H180   H     0.40160   0.08856   0.39049   0.00000  Uiso   1.00
O181   O     0.43319   0.05901   0.42462   0.00000  Uiso   1.00
O182   O     0.70015  -0.08968   0.51357   0.00000  Uiso   1.00
O183   O     0.31375  -0.11701   0.49148   0.00000  Uiso   1.00
O184   O     0.58928   0.01010   0.69973   0.00000  Uiso   1.00
O185   O     0.61581  -0.00421   0.31260   0.00000  Uiso   1.00
O186   O     0.41032  -0.01357   0.29985   0.00000  Uiso   1.00
O187   O     0.38299   0.00852   0.68625   0.00000  Uiso   1.00
O188   O     0.50852  -0.18625   0.61701   0.00000  Uiso   1.00
O189   O     0.51010  -0.19973   0.41072   0.00000  Uiso   1.00
O190   O     0.49360  -0.08890   0.70021   0.00000  Uiso   1.00
O191   O     0.50834  -0.11581   0.31295   0.00000  Uiso   1.00
O192   O     0.68705   0.00834   0.61581   0.00000  Uiso   1.00
O193   O     0.29979  -0.00640   0.58890   0.00000  Uiso   1.00
O194   O     0.31256  -0.01299   0.38377   0.00000  Uiso   1.00
O195   O     0.69936   0.00954   0.40983   0.00000  Uiso   1.00
O196   O     0.61623  -0.18744   0.51299   0.00000  Uiso   1.00
O197   O     0.41110  -0.20021   0.50639   0.00000  Uiso   1.00
Zr198  Zr    0.63265   0.00848   0.50828   0.00000  Uiso   1.00
Zr199  Zr    0.36745  -0.00909   0.49110   0.00000  Uiso   1.00
Zr200  Zr    0.49091   0.00890   0.63255   0.00000  Uiso   1.00
Zr201  Zr    0.50848  -0.00828   0.36735   0.00000  Uiso   1.00
Zr202  Zr    0.50890  -0.13255   0.50909   0.00000  Uiso   1.00
O203   O     0.44125  -0.07651   0.43272   0.00000  Uiso   1.00
O204   O     0.56728  -0.05875   0.57651   0.00000  Uiso   1.00
X205   C     0.68435  -0.16075   0.51320   0.00000  Uiso   1.00
X206   C     0.34046  -0.18475   0.49858   0.00000  Uiso   1.00
X207   C     0.66027   0.00752   0.68387   0.00000  Uiso   1.00
X208   C     0.68355   0.00384   0.33907   0.00000  Uiso   1.00
X209   C     0.33925  -0.01320   0.31565   0.00000  Uiso   1.00
X210   C     0.31524   0.00142   0.65954   0.00000  Uiso   1.00
X211   C     0.50142  -0.15954   0.68475   0.00000  Uiso   1.00
X212   C     0.50752  -0.18387   0.33973   0.00000  Uiso   1.00
H213   H     0.40118  -0.09882   0.59882   0.00000  Uiso   1.00
O214   O     0.43299  -0.06701   0.56701   0.00000  Uiso   1.00
H215   H     0.60952  -0.09840   0.41144   0.00000  Uiso   1.00
O216   O     0.57538  -0.06681   0.44099   0.00000  Uiso   1.00
X217   C     0.21311   0.25041  -0.00600   0.00000  Uiso   1.00
X218   C     0.28849   0.24818  -0.00076   0.00000  Uiso   1.00
H219   H     0.18715   0.30465  -0.01183   0.00000  Uiso   1.00
H220   H     0.31448   0.19397   0.00516   0.00000  Uiso   1.00
X221   C     0.21311   0.75041   0.49400   0.00000  Uiso   1.00
X222   C     0.28849   0.74818   0.49924   0.00000  Uiso   1.00
H223   H     0.18715   0.80465   0.48818   0.00000  Uiso   1.00
H224   H     0.31448   0.69397   0.50516   0.00000  Uiso   1.00
X225   C     0.78849   0.74818  -0.00076   0.00000  Uiso   1.00
X226   C     0.71311   0.75041  -0.00600   0.00000  Uiso   1.00
H227   H     0.81448   0.69397   0.00516   0.00000  Uiso   1.00
H228   H     0.68715   0.80465  -0.01183   0.00000  Uiso   1.00
X229   C     0.78849   0.24818   0.49924   0.00000  Uiso   1.00
X230   C     0.71311   0.25041   0.49400   0.00000  Uiso   1.00
H231   H     0.81448   0.19397   0.50516   0.00000  Uiso   1.00
H232   H     0.68715   0.30465   0.48818   0.00000  Uiso   1.00
X233   C     0.74916   0.21249  -0.00337   0.00000  Uiso   1.00
X234   C     0.75132   0.28693   0.01060   0.00000  Uiso   1.00
H235   H     0.69484   0.18716  -0.01090   0.00000  Uiso   1.00
H236   H     0.80563   0.31231   0.01804   0.00000  Uiso   1.00
X237   C     0.74916   0.71249   0.49663   0.00000  Uiso   1.00
X238   C     0.75132   0.78693   0.51060   0.00000  Uiso   1.00
H239   H     0.69484   0.68716   0.48910   0.00000  Uiso   1.00
H240   H     0.80563   0.81231   0.51804   0.00000  Uiso   1.00
X241   C     0.25132   0.28693   0.51060   0.00000  Uiso   1.00
X242   C     0.24916   0.21249   0.49663   0.00000  Uiso   1.00
H243   H     0.30563   0.31231   0.51804   0.00000  Uiso   1.00
H244   H     0.19484   0.18716   0.48910   0.00000  Uiso   1.00
X245   C     0.25132   0.78693   0.01060   0.00000  Uiso   1.00
X246   C     0.24916   0.71249  -0.00337   0.00000  Uiso   1.00
H247   H     0.30563   0.81231   0.01804   0.00000  Uiso   1.00
H248   H     0.19484   0.68716  -0.01090   0.00000  Uiso   1.00
X249   C    -0.01060   0.25132   0.21307   0.00000  Uiso   1.00
X250   C     0.00337   0.24916   0.28751   0.00000  Uiso   1.00
H251   H    -0.01804   0.30563   0.18769   0.00000  Uiso   1.00
H252   H     0.01090   0.19484   0.31284   0.00000  Uiso   1.00
X253   C     0.50337   0.24916   0.78751   0.00000  Uiso   1.00
X254   C     0.48940   0.25132   0.71307   0.00000  Uiso   1.00
H255   H     0.51090   0.19484   0.81284   0.00000  Uiso   1.00
H256   H     0.48196   0.30563   0.68769   0.00000  Uiso   1.00
X257   C     0.00337   0.74916   0.78751   0.00000  Uiso   1.00
X258   C    -0.01060   0.75132   0.71307   0.00000  Uiso   1.00
H259   H     0.01090   0.69484   0.81284   0.00000  Uiso   1.00
H260   H    -0.01804   0.80563   0.68769   0.00000  Uiso   1.00
X261   C     0.48940   0.75132   0.21307   0.00000  Uiso   1.00
X262   C     0.50337   0.74916   0.28751   0.00000  Uiso   1.00
H263   H     0.48196   0.80563   0.18769   0.00000  Uiso   1.00
H264   H     0.51090   0.69484   0.31284   0.00000  Uiso   1.00
X265   C     0.00076   0.78849   0.25182   0.00000  Uiso   1.00
X266   C     0.00600   0.71311   0.24959   0.00000  Uiso   1.00
H267   H    -0.00516   0.81448   0.30603   0.00000  Uiso   1.00
H268   H     0.01183   0.68715   0.19535   0.00000  Uiso   1.00
X269   C     0.50600   0.71311   0.74959   0.00000  Uiso   1.00
X270   C     0.50076   0.78849   0.75182   0.00000  Uiso   1.00
H271   H     0.51182   0.68715   0.69535   0.00000  Uiso   1.00
H272   H     0.49484   0.81448   0.80603   0.00000  Uiso   1.00
X273   C     0.50076   0.28849   0.25182   0.00000  Uiso   1.00
X274   C     0.50600   0.21311   0.24959   0.00000  Uiso   1.00
H275   H     0.49484   0.31448   0.30603   0.00000  Uiso   1.00
H276   H     0.51183   0.18715   0.19535   0.00000  Uiso   1.00
X277   C     0.00600   0.21311   0.74959   0.00000  Uiso   1.00
X278   C     0.00076   0.28849   0.75182   0.00000  Uiso   1.00
H279   H     0.01182   0.18715   0.69535   0.00000  Uiso   1.00
H280   H    -0.00516   0.31448   0.80603   0.00000  Uiso   1.00
X281   C     0.21249   0.00337   0.25084   0.00000  Uiso   1.00
X282   C     0.28693  -0.01060   0.24868   0.00000  Uiso   1.00
H283   H     0.18716   0.01090   0.30516   0.00000  Uiso   1.00
H284   H     0.31231  -0.01804   0.19437   0.00000  Uiso   1.00
X285   C     0.28693   0.48940   0.74868   0.00000  Uiso   1.00
X286   C     0.21249   0.50337   0.75084   0.00000  Uiso   1.00
H287   H     0.31231   0.48196   0.69437   0.00000  Uiso   1.00
H288   H     0.18716   0.51090   0.80516   0.00000  Uiso   1.00
X289   C     0.78693  -0.01060   0.74868   0.00000  Uiso   1.00
X290   C     0.71249   0.00337   0.75084   0.00000  Uiso   1.00
H291   H     0.81231  -0.01804   0.69437   0.00000  Uiso   1.00
H292   H     0.68716   0.01090   0.80516   0.00000  Uiso   1.00
X293   C     0.71249   0.50337   0.25084   0.00000  Uiso   1.00
X294   C     0.78693   0.48940   0.24868   0.00000  Uiso   1.00
H295   H     0.68716   0.51090   0.30516   0.00000  Uiso   1.00
H296   H     0.81231   0.48196   0.19437   0.00000  Uiso   1.00
X297   C     0.25041   0.00600   0.78689   0.00000  Uiso   1.00
X298   C     0.24818   0.00076   0.71151   0.00000  Uiso   1.00
H299   H     0.30465   0.01182   0.81285   0.00000  Uiso   1.00
H300   H     0.19397  -0.00516   0.68552   0.00000  Uiso   1.00
X301   C     0.24818   0.50076   0.21151   0.00000  Uiso   1.00
X302   C     0.25041   0.50600   0.28689   0.00000  Uiso   1.00
H303   H     0.19397   0.49484   0.18552   0.00000  Uiso   1.00
H304   H     0.30465   0.51182   0.31285   0.00000  Uiso   1.00
X305   C     0.74818   0.00076   0.21151   0.00000  Uiso   1.00
X306   C     0.75041   0.00600   0.28689   0.00000  Uiso   1.00
H307   H     0.69397  -0.00516   0.18552   0.00000  Uiso   1.00
H308   H     0.80465   0.01182   0.31285   0.00000  Uiso   1.00
X309   C     0.75041   0.50600   0.78689   0.00000  Uiso   1.00
X310   C     0.74818   0.50076   0.71151   0.00000  Uiso   1.00
H311   H     0.80465   0.51182   0.81285   0.00000  Uiso   1.00
H312   H     0.69397   0.49484   0.68552   0.00000  Uiso   1.00
loop_
_geom_bond_atom_site_label_1
_geom_bond_atom_site_label_2
_geom_bond_distance
_geom_bond_site_symmetry_2
_ccdc_geom_bond_type
O1     Zr37    2.136   .     S
O1     X12     1.305   .     A
O2     Zr36    2.162   .     S
O2     X13     1.312   .     A
O3     Zr9     2.138   .     S
O3     X14     1.306   .     A
O4     Zr9     2.162   .     S
O4     X15     1.312   .     A
O5     Zr39    2.133   .     S
O5     X15     1.304   .     A
O6     Zr38    2.163   .     S
O6     X14     1.312   .     A
O7     Zr9     2.133   .     S
O7     X13     1.304   .     A
O8     Zr9     2.161   .     S
O8     X12     1.311   .     A
Zr9    O10     2.082   .     S
Zr9    O11     2.079   .     S
Zr9    O19     2.070   .     S
Zr9    O17     2.082   .     S
O10    Zr36    2.082   .     S
O10    Zr39    2.082   .     S
O11    Zr37    2.087   .     S
O11    Zr38    2.076   .     S
X12    X233    1.525   1_455 S
X13    X217    1.521   .     S
X14    X249    1.525   .     S
X15    X277    1.521   1_554 S
H16    O17     0.988   .     S
O17    Zr36    2.070   .     S
O17    Zr38    2.074   .     S
H18    O19     0.988   .     S
O19    Zr37    2.074   .     S
O19    Zr39    2.082   .     S
O20    Zr36    2.138   .     S
O20    X43     1.306   .     A
O21    Zr37    2.161   .     S
O21    X44     1.312   .     A
O22    Zr38    2.136   .     S
O22    X45     1.305   .     A
O23    Zr39    2.162   .     S
O23    X46     1.312   .     A
O24    Zr39    2.138   .     S
O24    X47     1.306   .     A
O25    Zr38    2.161   .     S
O25    X48     1.312   .     A
O26    Zr40    2.161   .     S
O26    X49     1.312   .     A
O27    Zr40    2.136   .     S
O27    X50     1.305   .     A
O28    Zr38    2.133   .     S
O28    X49     1.304   .     A
O29    Zr39    2.161   .     S
O29    X50     1.311   .     A
O30    Zr36    2.161   .     S
O30    X45     1.311   .     A
O31    Zr37    2.133   .     S
O31    X48     1.304   .     A
O32    Zr37    2.163   .     S
O32    X47     1.312   .     A
O33    Zr36    2.133   .     S
O33    X46     1.304   .     A
O34    Zr40    2.163   .     S
O34    X43     1.312   .     A
O35    Zr40    2.133   .     S
O35    X44     1.304   .     A
Zr36   O42     2.079   .     S
Zr36   O54     2.082   .     S
Zr37   O41     2.076   .     S
Zr37   O52     2.077   .     S
Zr38   O42     2.087   .     S
Zr38   O52     2.077   .     S
Zr39   O41     2.079   .     S
Zr39   O54     2.070   .     S
Zr40   O41     2.087   .     S
Zr40   O42     2.076   .     S
Zr40   O54     2.074   .     S
Zr40   O52     2.077   .     S
X43    X245    1.525   1_545 S
X44    X225    1.521   1_445 S
X45    X281    1.525   .     S
X46    X297    1.521   1_554 S
X47    X289    1.525   1_454 S
X48    X305    1.521   1_455 S
X49    X265    1.521   1_545 S
X50    X257    1.525   1_544 S
H51    O52     0.988   .     S
H53    O54     0.988   .     S
O55    Zr91    2.136   .     S
O55    X66     1.305   .     A
O56    Zr90    2.162   .     S
O56    X67     1.312   .     A
O57    Zr63    2.138   .     S
O57    X68     1.306   .     A
O58    Zr63    2.162   .     S
O58    X69     1.312   .     A
O59    Zr93    2.133   .     S
O59    X69     1.304   .     A
O60    Zr92    2.163   .     S
O60    X68     1.312   .     A
O61    Zr63    2.133   .     S
O61    X67     1.304   .     A
O62    Zr63    2.161   .     S
O62    X66     1.311   .     A
Zr63   O64     2.082   .     S
Zr63   O65     2.079   .     S
Zr63   O73     2.070   .     S
Zr63   O71     2.082   .     S
O64    Zr90    2.082   .     S
O64    Zr93    2.082   .     S
O65    Zr91    2.087   .     S
O65    Zr92    2.076   .     S
X66    X246    1.525   .     S
X67    X226    1.521   .     S
X68    X261    1.525   .     S
X69    X269    1.521   1_554 S
H70    O71     0.988   .     S
O71    Zr90    2.070   .     S
O71    Zr92    2.074   .     S
H72    O73     0.988   .     S
O73    Zr91    2.074   .     S
O73    Zr93    2.082   .     S
O74    Zr90    2.138   .     S
O74    X97     1.306   .     A
O75    Zr91    2.161   .     S
O75    X98     1.312   .     A
O76    Zr92    2.136   .     S
O76    X99     1.305   .     A
O77    Zr93    2.162   .     S
O77    X100    1.312   .     A
O78    Zr93    2.138   .     S
O78    X101    1.306   .     A
O79    Zr92    2.161   .     S
O79    X102    1.312   .     A
O80    Zr94    2.161   .     S
O80    X103    1.312   .     A
O81    Zr94    2.136   .     S
O81    X104    1.305   .     A
O82    Zr92    2.133   .     S
O82    X103    1.304   .     A
O83    Zr93    2.161   .     S
O83    X104    1.311   .     A
O84    Zr90    2.161   .     S
O84    X99     1.311   .     A
O85    Zr91    2.133   .     S
O85    X102    1.304   .     A
O86    Zr91    2.163   .     S
O86    X101    1.312   .     A
O87    Zr90    2.133   .     S
O87    X100    1.304   .     A
O88    Zr94    2.163   .     S
O88    X97     1.312   .     A
O89    Zr94    2.133   .     S
O89    X98     1.304   .     A
Zr90   O96     2.079   .     S
Zr90   O108    2.082   .     S
Zr91   O95     2.076   .     S
Zr91   O106    2.077   .     S
Zr92   O96     2.087   .     S
Zr92   O106    2.077   .     S
Zr93   O95     2.079   .     S
Zr93   O108    2.070   .     S
Zr94   O95     2.087   .     S
Zr94   O96     2.076   .     S
Zr94   O108    2.074   .     S
Zr94   O106    2.077   .     S
X97    X234    1.525   .     S
X98    X218    1.521   .     S
X99    X293    1.525   .     S
X100   X309    1.521   1_554 S
X101   X285    1.525   1_554 S
X102   X301    1.521   .     S
X103   X273    1.521   .     S
X104   X253    1.525   1_554 S
H105   O106    0.988   .     S
H107   O108    0.988   .     S
O109   Zr145   2.136   .     S
O109   X120    1.305   .     A
O110   Zr144   2.162   .     S
O110   X121    1.312   .     A
O111   Zr117   2.138   .     S
O111   X122    1.306   .     A
O112   Zr117   2.162   .     S
O112   X123    1.312   .     A
O113   Zr147   2.133   .     S
O113   X123    1.304   .     A
O114   Zr146   2.163   .     S
O114   X122    1.312   .     A
O115   Zr117   2.133   .     S
O115   X121    1.304   .     A
O116   Zr117   2.161   .     S
O116   X120    1.311   .     A
Zr117  O118    2.082   .     S
Zr117  O119    2.079   .     S
Zr117  O127    2.070   .     S
Zr117  O125    2.082   .     S
O118   Zr144   2.082   .     S
O118   Zr147   2.082   .     S
O119   Zr145   2.087   .     S
O119   Zr146   2.076   .     S
X120   X237    1.525   1_455 S
X121   X221    1.521   .     S
X122   X258    1.525   .     S
X123   X266    1.521   .     S
H124   O125    0.988   .     S
O125   Zr144   2.070   .     S
O125   Zr146   2.074   .     S
H126   O127    0.988   .     S
O127   Zr145   2.074   .     S
O127   Zr147   2.082   .     S
O128   Zr144   2.138   .     S
O128   X151    1.306   .     A
O129   Zr145   2.161   .     S
O129   X152    1.312   .     A
O130   Zr146   2.136   .     S
O130   X153    1.305   .     A
O131   Zr147   2.162   .     S
O131   X154    1.312   .     A
O132   Zr147   2.138   .     S
O132   X155    1.306   .     A
O133   Zr146   2.161   .     S
O133   X156    1.312   .     A
O134   Zr148   2.161   .     S
O134   X157    1.312   .     A
O135   Zr148   2.136   .     S
O135   X158    1.305   .     A
O136   Zr146   2.133   .     S
O136   X157    1.304   .     A
O137   Zr147   2.161   .     S
O137   X158    1.311   .     A
O138   Zr144   2.161   .     S
O138   X153    1.311   .     A
O139   Zr145   2.133   .     S
O139   X156    1.304   .     A
O140   Zr145   2.163   .     S
O140   X155    1.312   .     A
O141   Zr144   2.133   .     S
O141   X154    1.304   .     A
O142   Zr148   2.163   .     S
O142   X151    1.312   .     A
O143   Zr148   2.133   .     S
O143   X152    1.304   .     A
Zr144  O150    2.079   .     S
Zr144  O162    2.082   .     S
Zr145  O149    2.076   .     S
Zr145  O160    2.077   .     S
Zr146  O150    2.087   .     S
Zr146  O160    2.077   .     S
Zr147  O149    2.079   .     S
Zr147  O162    2.070   .     S
Zr148  O149    2.087   .     S
Zr148  O150    2.076   .     S
Zr148  O162    2.074   .     S
Zr148  O160    2.077   .     S
X151   X241    1.525   .     S
X152   X229    1.521   1_455 S
X153   X286    1.525   .     S
X154   X302    1.521   .     S
X155   X294    1.525   1_455 S
X156   X310    1.521   1_455 S
X157   X278    1.521   .     S
X158   X250    1.525   .     S
H159   O160    0.988   .     S
H161   O162    0.988   .     S
O163   Zr199   2.136   .     S
O163   X174    1.305   .     A
O164   Zr198   2.162   .     S
O164   X175    1.312   .     A
O165   Zr171   2.138   .     S
O165   X176    1.306   .     A
O166   Zr171   2.162   .     S
O166   X177    1.312   .     A
O167   Zr201   2.133   .     S
O167   X177    1.304   .     A
O168   Zr200   2.163   .     S
O168   X176    1.312   .     A
O169   Zr171   2.133   .     S
O169   X175    1.304   .     A
O170   Zr171   2.161   .     S
O170   X174    1.311   .     A
Zr171  O172    2.082   .     S
Zr171  O173    2.079   .     S
Zr171  O181    2.070   .     S
Zr171  O179    2.082   .     S
O172   Zr198   2.082   .     S
O172   Zr201   2.082   .     S
O173   Zr199   2.087   .     S
O173   Zr200   2.076   .     S
X174   X242    1.525   .     S
X175   X230    1.521   .     S
X176   X254    1.525   .     S
X177   X274    1.521   .     S
H178   O179    0.988   .     S
O179   Zr198   2.070   .     S
O179   Zr200   2.074   .     S
H180   O181    0.988   .     S
O181   Zr199   2.074   .     S
O181   Zr201   2.082   .     S
O182   Zr198   2.138   .     S
O182   X205    1.306   .     A
O183   Zr199   2.161   .     S
O183   X206    1.312   .     A
O184   Zr200   2.136   .     S
O184   X207    1.305   .     A
O185   Zr201   2.162   .     S
O185   X208    1.312   .     A
O186   Zr201   2.138   .     S
O186   X209    1.306   .     A
O187   Zr200   2.161   .     S
O187   X210    1.312   .     A
O188   Zr202   2.161   .     S
O188   X211    1.312   .     A
O189   Zr202   2.136   .     S
O189   X212    1.305   .     A
O190   Zr200   2.133   .     S
O190   X211    1.304   .     A
O191   Zr201   2.161   .     S
O191   X212    1.311   .     A
O192   Zr198   2.161   .     S
O192   X207    1.311   .     A
O193   Zr199   2.133   .     S
O193   X210    1.304   .     A
O194   Zr199   2.163   .     S
O194   X209    1.312   .     A
O195   Zr198   2.133   .     S
O195   X208    1.304   .     A
O196   Zr202   2.163   .     S
O196   X205    1.312   .     A
O197   Zr202   2.133   .     S
O197   X206    1.304   .     A
Zr198  O204    2.079   .     S
Zr198  O216    2.082   .     S
Zr199  O203    2.076   .     S
Zr199  O214    2.077   .     S
Zr200  O204    2.087   .     S
Zr200  O214    2.077   .     S
Zr201  O203    2.079   .     S
Zr201  O216    2.070   .     S
Zr202  O203    2.087   .     S
Zr202  O204    2.076   .     S
Zr202  O216    2.074   .     S
Zr202  O214    2.077   .     S
X205   X238    1.525   1_545 S
X206   X222    1.521   1_545 S
X207   X290    1.525   .     S
X208   X306    1.521   .     S
X209   X282    1.525   .     S
X210   X298    1.521   .     S
X211   X270    1.521   1_545 S
X212   X262    1.525   1_545 S
H213   O214    0.988   .     S
H215   O216    0.988   .     S
X217   X218    1.356   .     D
X217   H219    1.083   .     S
X218   H220    1.083   .     S
X221   X222    1.356   .     D
X221   H223    1.083   .     S
X222   H224    1.083   .     S
X222   X206    1.521   1_565 S
X225   X226    1.356   .     D
X225   H227    1.083   .     S
X225   X44     1.521   1_665 S
X226   H228    1.083   .     S
X229   X230    1.356   .     D
X229   H231    1.083   .     S
X229   X152    1.521   1_655 S
X230   H232    1.083   .     S
X233   X234    1.359   .     D
X233   H235    1.083   .     S
X233   X12     1.525   1_655 S
X234   H236    1.083   .     S
X237   X238    1.359   .     D
X237   H239    1.083   .     S
X237   X120    1.525   1_655 S
X238   H240    1.083   .     S
X238   X205    1.525   1_565 S
X241   X242    1.359   .     D
X241   H243    1.083   .     S
X242   H244    1.083   .     S
X245   X246    1.359   .     D
X245   H247    1.083   .     S
X245   X43     1.525   1_565 S
X246   H248    1.083   .     S
X249   X250    1.359   .     D
X249   H251    1.083   .     S
X250   H252    1.083   .     S
X253   X254    1.359   .     D
X253   H255    1.083   .     S
X253   X104    1.525   1_556 S
X254   H256    1.083   .     S
X257   X258    1.359   .     D
X257   H259    1.083   .     S
X257   X50     1.525   1_566 S
X258   H260    1.083   .     S
X261   X262    1.359   .     D
X261   H263    1.083   .     S
X262   H264    1.083   .     S
X262   X212    1.525   1_565 S
X265   X266    1.356   .     D
X265   H267    1.083   .     S
X265   X49     1.521   1_565 S
X266   H268    1.083   .     S
X269   X270    1.356   .     D
X269   H271    1.083   .     S
X269   X69     1.521   1_556 S
X270   H272    1.083   .     S
X270   X211    1.521   1_565 S
X273   X274    1.356   .     D
X273   H275    1.083   .     S
X274   H276    1.083   .     S
X277   X278    1.356   .     D
X277   H279    1.083   .     S
X277   X15     1.521   1_556 S
X278   H280    1.083   .     S
X281   X282    1.359   .     D
X281   H283    1.083   .     S
X282   H284    1.083   .     S
X285   X286    1.359   .     D
X285   H287    1.083   .     S
X285   X101    1.525   1_556 S
X286   H288    1.083   .     S
X289   X290    1.359   .     D
X289   H291    1.083   .     S
X289   X47     1.525   1_656 S
X290   H292    1.083   .     S
X293   X294    1.359   .     D
X293   H295    1.083   .     S
X294   H296    1.083   .     S
X294   X155    1.525   1_655 S
X297   X298    1.356   .     D
X297   H299    1.083   .     S
X297   X46     1.521   1_556 S
X298   H300    1.083   .     S
X301   X302    1.356   .     D
X301   H303    1.083   .     S
X302   H304    1.083   .     S
X305   X306    1.356   .     D
X305   H307    1.083   .     S
X305   X48     1.521   1_655 S
X306   H308    1.083   .     S
X309   X310    1.356   .     D
X309   H311    1.083   .     S
X309   X100    1.521   1_556 S
X310   H312    1.083   .     S
X310   X156    1.521   1_655 S
