data_image0
_cell_length_a       14.7031
_cell_length_b       20.8379
_cell_length_c       20.8379
_cell_angle_alpha    82.8501
_cell_angle_beta     69.3415
_cell_angle_gamma    69.3416

_symmetry_space_group_name_H-M    P 1
_symmetry_int_tables_number       1

loop_
  _symmetry_equiv_pos_as_xyz
  'x, y, z'

loop_
  _atom_site_label
  _atom_site_occupancy
  _atom_site_fract_x
  _atom_site_fract_y
  _atom_site_fract_z
  _atom_site_thermal_displace_type
  _atom_site_B_iso_or_equiv
  _atom_site_type_symbol
  Mo1      1.0000 0.51022  0.94711  0.00341  Biso   1.000  Mo
  Mo2      1.0000 0.96074  0.55289  0.49659  Biso   1.000  Mo
  Mo3      1.0000 0.51363  0.99659  0.44711  Biso   1.000  Mo
  Mo4      1.0000 0.45733  0.50341  0.05289  Biso   1.000  Mo
  Mo5      1.0000 0.48978  0.05289  0.99659  Biso   1.000  Mo
  Mo6      1.0000 0.03926  0.44711  0.50341  Biso   1.000  Mo
  Mo7      1.0000 0.48637  0.00341  0.55289  Biso   1.000  Mo
  Mo8      1.0000 0.54267  0.49659  0.94711  Biso   1.000  Mo
  H1       1.0000 0.98670  0.93310  0.73730  Biso   1.000  H
  H2       1.0000 0.76710  0.04120  0.07220  Biso   1.000  H
  H3       1.0000 0.77480  0.94500  0.02040  Biso   1.000  H
  H4       1.0000 0.75740  0.06300  0.99780  Biso   1.000  H
  H5       1.0000 0.02780  0.93490  0.91810  Biso   1.000  H
  H6       1.0000 0.92830  0.86480  0.03220  Biso   1.000  H
  H7       1.0000 0.16900  0.91300  0.82000  Biso   1.000  H
  H8       1.0000 0.11960  0.00380  0.71980  Biso   1.000  H
  H9       1.0000 0.13180  0.01870  0.78930  Biso   1.000  H
  H10      1.0000 0.86420  0.04960  0.01000  Biso   1.000  H
  H11      1.0000 0.97620  0.92440  0.02540  Biso   1.000  H
  H12      1.0000 0.87980  0.92140  0.09120  Biso   1.000  H
  H13      1.0000 0.16570  0.85730  0.71290  Biso   1.000  H
  H14      1.0000 0.71710  0.94790  0.81410  Biso   1.000  H
  H15      1.0000 0.77300  0.89210  0.71450  Biso   1.000  H
  H16      1.0000 0.87100  0.91710  0.68250  Biso   1.000  H
  H17      1.0000 0.87040  0.85840  0.74000  Biso   1.000  H
  H18      1.0000 0.70870  0.03130  0.72010  Biso   1.000  H
  H19      1.0000 0.70120  0.06250  0.78890  Biso   1.000  H
  H20      1.0000 0.80730  0.04320  0.72580  Biso   1.000  H
  H21      1.0000 0.55470  0.89170  0.20970  Biso   1.000  H
  H22      1.0000 0.54140  0.08900  0.19040  Biso   1.000  H
  H23      1.0000 0.56770  0.89300  0.31720  Biso   1.000  H
  H24      1.0000 0.54460  0.08380  0.30040  Biso   1.000  H
  H25      1.0000 0.23080  0.97680  0.72860  Biso   1.000  H
  H26      1.0000 0.26540  0.85310  0.73010  Biso   1.000  H
  H27      1.0000 0.18160  0.82230  0.78270  Biso   1.000  H
  H28      1.0000 0.15710  0.56690  0.76270  Biso   1.000  H
  H29      1.0000 0.38050  0.45880  0.42780  Biso   1.000  H
  H30      1.0000 0.24020  0.55500  0.47960  Biso   1.000  H
  H31      1.0000 0.31820  0.43700  0.50220  Biso   1.000  H
  H32      1.0000 0.38080  0.56510  0.58190  Biso   1.000  H
  H33      1.0000 0.32530  0.63520  0.46780  Biso   1.000  H
  H34      1.0000 0.40200  0.58700  0.68000  Biso   1.000  H
  H35      1.0000 0.34320  0.49620  0.78020  Biso   1.000  H
  H36      1.0000 0.43980  0.48130  0.71070  Biso   1.000  H
  H37      1.0000 0.42380  0.45040  0.49000  Biso   1.000  H
  H38      1.0000 0.42600  0.57560  0.47460  Biso   1.000  H
  H39      1.0000 0.39240  0.57860  0.40880  Biso   1.000  H
  H40      1.0000 0.23590  0.64270  0.78710  Biso   1.000  H
  H41      1.0000 0.97910  0.55210  0.68590  Biso   1.000  H
  H42      1.0000 0.87960  0.60790  0.78550  Biso   1.000  H
  H43      1.0000 0.97060  0.58290  0.81750  Biso   1.000  H
  H44      1.0000 0.96880  0.64160  0.76000  Biso   1.000  H
  H45      1.0000 0.96010  0.46870  0.77990  Biso   1.000  H
  H46      1.0000 0.05260  0.43750  0.71110  Biso   1.000  H
  H47      1.0000 0.07630  0.45680  0.77420  Biso   1.000  H
  H48      1.0000 0.15610  0.60830  0.29030  Biso   1.000  H
  H49      1.0000 0.32080  0.41100  0.30960  Biso   1.000  H
  H50      1.0000 0.27790  0.60700  0.18280  Biso   1.000  H
  H51      1.0000 0.42880  0.41620  0.19960  Biso   1.000  H
  H52      1.0000 0.43620  0.52320  0.77140  Biso   1.000  H
  H53      1.0000 0.34860  0.64690  0.76990  Biso   1.000  H
  H54      1.0000 0.28660  0.67770  0.71730  Biso   1.000  H
  H55      1.0000 0.72400  0.26270  0.43310  Biso   1.000  H
  H56      1.0000 0.83930  0.92780  0.54120  Biso   1.000  H
  H57      1.0000 0.79520  0.97960  0.44500  Biso   1.000  H
  H58      1.0000 0.75520  0.00220  0.56300  Biso   1.000  H
  H59      1.0000 0.94590  0.08190  0.43490  Biso   1.000  H
  H60      1.0000 0.96050  0.96780  0.36480  Biso   1.000  H
  H61      1.0000 0.98900  0.18000  0.41300  Biso   1.000  H
  H62      1.0000 0.83940  0.28020  0.50380  Biso   1.000  H
  H63      1.0000 0.92110  0.21070  0.51870  Biso   1.000  H
  H64      1.0000 0.87420  0.99000  0.54960  Biso   1.000  H
  H65      1.0000 0.00160  0.97460  0.42440  Biso   1.000  H
  H66      1.0000 0.97100  0.90880  0.42140  Biso   1.000  H
  H67      1.0000 0.87860  0.28710  0.35730  Biso   1.000  H
  H68      1.0000 0.53120  0.18590  0.44790  Biso   1.000  H
  H69      1.0000 0.48750  0.28550  0.39210  Biso   1.000  H
  H70      1.0000 0.55350  0.31750  0.41710  Biso   1.000  H
  H71      1.0000 0.61040  0.26000  0.35840  Biso   1.000  H
  H72      1.0000 0.42880  0.27990  0.53130  Biso   1.000  H
  H73      1.0000 0.49010  0.21110  0.56250  Biso   1.000  H
  H74      1.0000 0.53310  0.27420  0.54320  Biso   1.000  H
  H75      1.0000 0.76440  0.79030  0.39170  Biso   1.000  H
  H76      1.0000 0.73180  0.80960  0.58900  Biso   1.000  H
  H77      1.0000 0.88490  0.68280  0.39300  Biso   1.000  H
  H78      1.0000 0.84500  0.69960  0.58380  Biso   1.000  H
  H79      1.0000 0.95940  0.27140  0.47680  Biso   1.000  H
  H80      1.0000 0.99550  0.26990  0.35310  Biso   1.000  H
  H81      1.0000 0.96430  0.21730  0.32230  Biso   1.000  H
  H82      1.0000 0.91980  0.23730  0.06690  Biso   1.000  H
  H83      1.0000 0.80830  0.57220  0.95880  Biso   1.000  H
  H84      1.0000 0.71980  0.52040  0.05500  Biso   1.000  H
  H85      1.0000 0.82040  0.49780  0.93700  Biso   1.000  H
  H86      1.0000 0.96270  0.41810  0.06510  Biso   1.000  H
  H87      1.0000 0.79310  0.53220  0.13520  Biso   1.000  H
  H88      1.0000 0.08200  0.32000  0.08700  Biso   1.000  H
  H89      1.0000 0.12340  0.21980  0.99620  Biso   1.000  H
  H90      1.0000 0.15050  0.28930  0.98130  Biso   1.000  H
  H91      1.0000 0.91380  0.51000  0.95040  Biso   1.000  H
  H92      1.0000 0.90060  0.52540  0.07560  Biso   1.000  H
  H93      1.0000 0.80120  0.59120  0.07860  Biso   1.000  H
  H94      1.0000 0.02300  0.21290  0.14270  Biso   1.000  H
  H95      1.0000 0.66500  0.31410  0.05210  Biso   1.000  H
  H96      1.0000 0.66510  0.21450  0.10790  Biso   1.000  H
  H97      1.0000 0.78810  0.18250  0.08290  Biso   1.000  H
  H98      1.0000 0.72880  0.24000  0.14160  Biso   1.000  H
  H99      1.0000 0.74000  0.22010  0.96870  Biso   1.000  H
  H100     1.0000 0.76370  0.28890  0.93750  Biso   1.000  H
  H101     1.0000 0.85050  0.22580  0.95680  Biso   1.000  H
  H102     1.0000 0.44640  0.70970  0.10830  Biso   1.000  H
  H103     1.0000 0.63040  0.69040  0.91100  Biso   1.000  H
  H104     1.0000 0.46070  0.81720  0.10700  Biso   1.000  H
  H105     1.0000 0.62840  0.80040  0.91620  Biso   1.000  H
  H106     1.0000 0.20760  0.22860  0.02320  Biso   1.000  H
  H107     1.0000 0.11850  0.23010  0.14690  Biso   1.000  H
  H108     1.0000 0.00390  0.28270  0.17770  Biso   1.000  H
  H109     1.0000 0.01330  0.06690  0.26270  Biso   1.000  H
  H110     1.0000 0.23290  0.95880  0.92780  Biso   1.000  H
  H111     1.0000 0.22520  0.05500  0.97960  Biso   1.000  H
  H112     1.0000 0.24260  0.93700  0.00220  Biso   1.000  H
  H113     1.0000 0.97220  0.06510  0.08190  Biso   1.000  H
  H114     1.0000 0.07170  0.13520  0.96780  Biso   1.000  H
  H115     1.0000 0.83100  0.08700  0.18000  Biso   1.000  H
  H116     1.0000 0.88040  0.99620  0.28020  Biso   1.000  H
  H117     1.0000 0.86820  0.98130  0.21070  Biso   1.000  H
  H118     1.0000 0.13580  0.95040  0.99000  Biso   1.000  H
  H119     1.0000 0.02380  0.07560  0.97460  Biso   1.000  H
  H120     1.0000 0.12020  0.07860  0.90880  Biso   1.000  H
  H121     1.0000 0.83430  0.14270  0.28710  Biso   1.000  H
  H122     1.0000 0.28290  0.05210  0.18590  Biso   1.000  H
  H123     1.0000 0.22700  0.10790  0.28550  Biso   1.000  H
  H124     1.0000 0.12900  0.08290  0.31750  Biso   1.000  H
  H125     1.0000 0.12960  0.14160  0.26000  Biso   1.000  H
  H126     1.0000 0.29130  0.96870  0.27990  Biso   1.000  H
  H127     1.0000 0.29880  0.93750  0.21110  Biso   1.000  H
  H128     1.0000 0.19270  0.95680  0.27420  Biso   1.000  H
  H129     1.0000 0.44530  0.10830  0.79030  Biso   1.000  H
  H130     1.0000 0.45860  0.91100  0.80960  Biso   1.000  H
  H131     1.0000 0.43230  0.10700  0.68280  Biso   1.000  H
  H132     1.0000 0.45540  0.91620  0.69960  Biso   1.000  H
  H133     1.0000 0.76920  0.02320  0.27140  Biso   1.000  H
  H134     1.0000 0.73460  0.14690  0.26990  Biso   1.000  H
  H135     1.0000 0.81840  0.17770  0.21730  Biso   1.000  H
  H136     1.0000 0.84290  0.43310  0.23730  Biso   1.000  H
  H137     1.0000 0.61950  0.54120  0.57220  Biso   1.000  H
  H138     1.0000 0.75980  0.44500  0.52040  Biso   1.000  H
  H139     1.0000 0.68180  0.56300  0.49780  Biso   1.000  H
  H140     1.0000 0.61920  0.43490  0.41810  Biso   1.000  H
  H141     1.0000 0.67470  0.36480  0.53220  Biso   1.000  H
  H142     1.0000 0.59800  0.41300  0.32000  Biso   1.000  H
  H143     1.0000 0.65680  0.50380  0.21980  Biso   1.000  H
  H144     1.0000 0.56020  0.51870  0.28930  Biso   1.000  H
  H145     1.0000 0.57620  0.54960  0.51000  Biso   1.000  H
  H146     1.0000 0.57400  0.42440  0.52540  Biso   1.000  H
  H147     1.0000 0.60760  0.42140  0.59120  Biso   1.000  H
  H148     1.0000 0.76410  0.35730  0.21290  Biso   1.000  H
  H149     1.0000 0.02090  0.44790  0.31410  Biso   1.000  H
  H150     1.0000 0.12040  0.39210  0.21450  Biso   1.000  H
  H151     1.0000 0.02940  0.41710  0.18250  Biso   1.000  H
  H152     1.0000 0.03120  0.35840  0.24000  Biso   1.000  H
  H153     1.0000 0.03990  0.53130  0.22010  Biso   1.000  H
  H154     1.0000 0.94740  0.56250  0.28890  Biso   1.000  H
  H155     1.0000 0.92370  0.54320  0.22580  Biso   1.000  H
  H156     1.0000 0.84390  0.39170  0.70970  Biso   1.000  H
  H157     1.0000 0.67920  0.58900  0.69040  Biso   1.000  H
  H158     1.0000 0.72210  0.39300  0.81720  Biso   1.000  H
  H159     1.0000 0.57120  0.58380  0.80040  Biso   1.000  H
  H160     1.0000 0.56380  0.47680  0.22860  Biso   1.000  H
  H161     1.0000 0.65140  0.35310  0.23010  Biso   1.000  H
  H162     1.0000 0.71340  0.32230  0.28270  Biso   1.000  H
  H163     1.0000 0.27600  0.73730  0.56690  Biso   1.000  H
  H164     1.0000 0.16070  0.07220  0.45880  Biso   1.000  H
  H165     1.0000 0.20480  0.02040  0.55500  Biso   1.000  H
  H166     1.0000 0.24480  0.99780  0.43700  Biso   1.000  H
  H167     1.0000 0.05410  0.91810  0.56510  Biso   1.000  H
  H168     1.0000 0.03950  0.03220  0.63520  Biso   1.000  H
  H169     1.0000 0.01100  0.82000  0.58700  Biso   1.000  H
  H170     1.0000 0.16060  0.71980  0.49620  Biso   1.000  H
  H171     1.0000 0.07890  0.78930  0.48130  Biso   1.000  H
  H172     1.0000 0.12580  0.01000  0.45040  Biso   1.000  H
  H173     1.0000 0.99840  0.02540  0.57560  Biso   1.000  H
  H174     1.0000 0.02900  0.09120  0.57860  Biso   1.000  H
  H175     1.0000 0.12140  0.71290  0.64270  Biso   1.000  H
  H176     1.0000 0.46880  0.81410  0.55210  Biso   1.000  H
  H177     1.0000 0.51250  0.71450  0.60790  Biso   1.000  H
  H178     1.0000 0.44650  0.68250  0.58290  Biso   1.000  H
  H179     1.0000 0.38960  0.74000  0.64160  Biso   1.000  H
  H180     1.0000 0.57120  0.72010  0.46870  Biso   1.000  H
  H181     1.0000 0.50990  0.78890  0.43750  Biso   1.000  H
  H182     1.0000 0.46690  0.72580  0.45680  Biso   1.000  H
  H183     1.0000 0.23560  0.20970  0.60830  Biso   1.000  H
  H184     1.0000 0.26820  0.19040  0.41100  Biso   1.000  H
  H185     1.0000 0.11510  0.31720  0.60700  Biso   1.000  H
  H186     1.0000 0.15500  0.30040  0.41620  Biso   1.000  H
  H187     1.0000 0.04060  0.72860  0.52320  Biso   1.000  H
  H188     1.0000 0.00450  0.73010  0.64690  Biso   1.000  H
  H189     1.0000 0.03570  0.78270  0.67770  Biso   1.000  H
  H190     1.0000 0.08020  0.76270  0.93310  Biso   1.000  H
  H191     1.0000 0.19170  0.42780  0.04120  Biso   1.000  H
  H192     1.0000 0.28020  0.47960  0.94500  Biso   1.000  H
  H193     1.0000 0.17960  0.50220  0.06300  Biso   1.000  H
  H194     1.0000 0.03730  0.58190  0.93490  Biso   1.000  H
  H195     1.0000 0.20690  0.46780  0.86480  Biso   1.000  H
  H196     1.0000 0.91800  0.68000  0.91300  Biso   1.000  H
  H197     1.0000 0.87660  0.78020  0.00380  Biso   1.000  H
  H198     1.0000 0.84950  0.71070  0.01870  Biso   1.000  H
  H199     1.0000 0.08620  0.49000  0.04960  Biso   1.000  H
  H200     1.0000 0.09940  0.47460  0.92440  Biso   1.000  H
  H201     1.0000 0.19880  0.40880  0.92140  Biso   1.000  H
  H202     1.0000 0.97700  0.78710  0.85730  Biso   1.000  H
  H203     1.0000 0.33500  0.68590  0.94790  Biso   1.000  H
  H204     1.0000 0.33490  0.78550  0.89210  Biso   1.000  H
  H205     1.0000 0.21190  0.81750  0.91710  Biso   1.000  H
  H206     1.0000 0.27120  0.76000  0.85840  Biso   1.000  H
  H207     1.0000 0.26000  0.77990  0.03130  Biso   1.000  H
  H208     1.0000 0.23630  0.71110  0.06250  Biso   1.000  H
  H209     1.0000 0.14950  0.77420  0.04320  Biso   1.000  H
  H210     1.0000 0.55360  0.29030  0.89170  Biso   1.000  H
  H211     1.0000 0.36960  0.30960  0.08900  Biso   1.000  H
  H212     1.0000 0.53930  0.18280  0.89300  Biso   1.000  H
  H213     1.0000 0.37160  0.19960  0.08380  Biso   1.000  H
  H214     1.0000 0.79240  0.77140  0.97680  Biso   1.000  H
  H215     1.0000 0.88150  0.76990  0.85310  Biso   1.000  H
  H216     1.0000 0.99610  0.71730  0.82230  Biso   1.000  H
  C1       1.0000 0.70300  0.97121  0.92779  Biso   1.000  C
  C2       1.0000 0.81581  0.95708  0.89030  Biso   1.000  C
  C3       1.0000 0.88176  0.95104  0.92664  Biso   1.000  C
  C4       1.0000 0.98340  0.93920  0.89280  Biso   1.000  C
  C5       1.0000 0.02370  0.93340  0.82300  Biso   1.000  C
  C6       1.0000 0.95900  0.93800  0.78580  Biso   1.000  C
  C7       1.0000 0.85310  0.95001  0.81959  Biso   1.000  C
  C8       1.0000 0.83778  0.95892  0.00412  Biso   1.000  C
  C9       1.0000 0.80350  0.03510  0.02270  Biso   1.000  C
  C10      1.0000 0.91230  0.91320  0.04180  Biso   1.000  C
  C11      1.0000 0.14030  0.92020  0.78180  Biso   1.000  C
  C12      1.0000 0.15710  0.98540  0.75240  Biso   1.000  C
  C13      1.0000 0.19170  0.85910  0.74970  Biso   1.000  C
  C14      1.0000 0.78020  0.95600  0.78060  Biso   1.000  C
  C15      1.0000 0.82800  0.90090  0.72430  Biso   1.000  C
  C16      1.0000 0.74620  0.03010  0.75110  Biso   1.000  C
  C17      1.0000 0.53355  0.99377  0.12053  Biso   1.000  C
  C18      1.0000 0.54373  0.99163  0.18831  Biso   1.000  C
  C19      1.0000 0.55272  0.93254  0.22682  Biso   1.000  C
  C20      1.0000 0.54367  0.04778  0.21608  Biso   1.000  C
  C21      1.0000 0.55880  0.93440  0.29160  Biso   1.000  C
  C22      1.0000 0.54700  0.04375  0.28145  Biso   1.000  C
  C23      1.0000 0.10200  0.52879  0.57221  Biso   1.000  C
  C24      1.0000 0.16319  0.54292  0.60970  Biso   1.000  C
  C25      1.0000 0.25944  0.54896  0.57336  Biso   1.000  C
  C26      1.0000 0.31540  0.56080  0.60720  Biso   1.000  C
  C27      1.0000 0.28010  0.56660  0.67700  Biso   1.000  C
  C28      1.0000 0.18280  0.56200  0.71420  Biso   1.000  C
  C29      1.0000 0.12270  0.54999  0.68041  Biso   1.000  C
  C30      1.0000 0.30082  0.54108  0.49588  Biso   1.000  C
  C31      1.0000 0.36130  0.46490  0.47730  Biso   1.000  C
  C32      1.0000 0.36730  0.58680  0.45820  Biso   1.000  C
  C33      1.0000 0.34230  0.57980  0.71820  Biso   1.000  C
  C34      1.0000 0.39490  0.51460  0.74760  Biso   1.000  C
  C35      1.0000 0.30050  0.64090  0.75030  Biso   1.000  C
  C36      1.0000 0.01680  0.54400  0.71940  Biso   1.000  C
  C37      1.0000 0.95320  0.59910  0.77570  Biso   1.000  C
  C38      1.0000 0.02740  0.46990  0.74890  Biso   1.000  C
  C39      1.0000 0.14785  0.50623  0.37947  Biso   1.000  C
  C40      1.0000 0.22367  0.50837  0.31169  Biso   1.000  C
  C41      1.0000 0.21208  0.56746  0.27318  Biso   1.000  C
  C42      1.0000 0.30753  0.45222  0.28392  Biso   1.000  C
  C43      1.0000 0.28480  0.56560  0.20840  Biso   1.000  C
  C44      1.0000 0.37220  0.45625  0.21855  Biso   1.000  C
  C45      1.0000 0.63079  0.07221  0.47121  Biso   1.000  C
  C46      1.0000 0.70611  0.10970  0.45708  Biso   1.000  C
  C47      1.0000 0.80840  0.07336  0.45104  Biso   1.000  C
  C48      1.0000 0.87620  0.10720  0.43920  Biso   1.000  C
  C49      1.0000 0.84670  0.17700  0.43340  Biso   1.000  C
  C50      1.0000 0.74480  0.21420  0.43800  Biso   1.000  C
  C51      1.0000 0.67269  0.18041  0.45001  Biso   1.000  C
  C52      1.0000 0.84190  0.99588  0.45892  Biso   1.000  C
  C53      1.0000 0.82620  0.97730  0.53510  Biso   1.000  C
  C54      1.0000 0.95410  0.95820  0.41320  Biso   1.000  C
  C55      1.0000 0.92210  0.21820  0.42020  Biso   1.000  C
  C56      1.0000 0.90950  0.24760  0.48540  Biso   1.000  C
  C57      1.0000 0.94140  0.25030  0.35910  Biso   1.000  C
  C58      1.0000 0.56080  0.21940  0.45600  Biso   1.000  C
  C59      1.0000 0.55230  0.27570  0.40090  Biso   1.000  C
  C60      1.0000 0.49730  0.24890  0.53010  Biso   1.000  C
  C61      1.0000 0.65408  0.87947  0.49377  Biso   1.000  C
  C62      1.0000 0.73204  0.81169  0.49163  Biso   1.000  C
  C63      1.0000 0.77954  0.77318  0.43254  Biso   1.000  C
  C64      1.0000 0.75975  0.78392  0.54778  Biso   1.000  C
  C65      1.0000 0.85040  0.70840  0.43440  Biso   1.000  C
  C66      1.0000 0.82845  0.71855  0.54375  Biso   1.000  C
  C67      1.0000 0.67421  0.42779  0.02879  Biso   1.000  C
  C68      1.0000 0.77289  0.39030  0.04292  Biso   1.000  C
  C69      1.0000 0.83280  0.42664  0.04896  Biso   1.000  C
  C70      1.0000 0.92260  0.39280  0.06080  Biso   1.000  C
  C71      1.0000 0.95710  0.32300  0.06660  Biso   1.000  C
  C72      1.0000 0.89700  0.28580  0.06200  Biso   1.000  C
  C73      1.0000 0.80311  0.31959  0.04999  Biso   1.000  C
  C74      1.0000 0.79670  0.50412  0.04108  Biso   1.000  C
  C75      1.0000 0.83860  0.52270  0.96490  Biso   1.000  C
  C76      1.0000 0.82550  0.54180  0.08680  Biso   1.000  C
  C77      1.0000 0.06050  0.28180  0.07980  Biso   1.000  C
  C78      1.0000 0.14250  0.25240  0.01460  Biso   1.000  C
  C79      1.0000 0.05080  0.24970  0.14090  Biso   1.000  C
  C80      1.0000 0.73620  0.28060  0.04400  Biso   1.000  C
  C81      1.0000 0.72890  0.22430  0.09910  Biso   1.000  C
  C82      1.0000 0.77630  0.25110  0.96990  Biso   1.000  C
  C83      1.0000 0.52732  0.62053  0.00623  Biso   1.000  C
  C84      1.0000 0.53536  0.68831  0.00837  Biso   1.000  C
  C85      1.0000 0.48526  0.72682  0.06746  Biso   1.000  C
  C86      1.0000 0.59145  0.71608  0.95222  Biso   1.000  C
  C87      1.0000 0.49320  0.79160  0.06560  Biso   1.000  C
  C88      1.0000 0.59075  0.78145  0.95625  Biso   1.000  C
  C89      1.0000 0.29700  0.02879  0.07221  Biso   1.000  C
  C90      1.0000 0.18419  0.04292  0.10970  Biso   1.000  C
  C91      1.0000 0.11824  0.04896  0.07336  Biso   1.000  C
  C92      1.0000 0.01660  0.06080  0.10720  Biso   1.000  C
  C93      1.0000 0.97630  0.06660  0.17700  Biso   1.000  C
  C94      1.0000 0.04100  0.06200  0.21420  Biso   1.000  C
  C95      1.0000 0.14690  0.04999  0.18041  Biso   1.000  C
  C96      1.0000 0.16222  0.04108  0.99588  Biso   1.000  C
  C97      1.0000 0.19650  0.96490  0.97730  Biso   1.000  C
  C98      1.0000 0.08770  0.08680  0.95820  Biso   1.000  C
  C99      1.0000 0.85970  0.07980  0.21820  Biso   1.000  C
  C100     1.0000 0.84290  0.01460  0.24760  Biso   1.000  C
  C101     1.0000 0.80830  0.14090  0.25030  Biso   1.000  C
  C102     1.0000 0.21980  0.04400  0.21940  Biso   1.000  C
  C103     1.0000 0.17200  0.09910  0.27570  Biso   1.000  C
  C104     1.0000 0.25380  0.96990  0.24890  Biso   1.000  C
  C105     1.0000 0.46645  0.00623  0.87947  Biso   1.000  C
  C106     1.0000 0.45627  0.00837  0.81169  Biso   1.000  C
  C107     1.0000 0.44728  0.06746  0.77318  Biso   1.000  C
  C108     1.0000 0.45633  0.95222  0.78392  Biso   1.000  C
  C109     1.0000 0.44120  0.06560  0.70840  Biso   1.000  C
  C110     1.0000 0.45300  0.95625  0.71855  Biso   1.000  C
  C111     1.0000 0.89800  0.47121  0.42779  Biso   1.000  C
  C112     1.0000 0.83681  0.45708  0.39030  Biso   1.000  C
  C113     1.0000 0.74056  0.45104  0.42664  Biso   1.000  C
  C114     1.0000 0.68460  0.43920  0.39280  Biso   1.000  C
  C115     1.0000 0.71990  0.43340  0.32300  Biso   1.000  C
  C116     1.0000 0.81720  0.43800  0.28580  Biso   1.000  C
  C117     1.0000 0.87730  0.45001  0.31959  Biso   1.000  C
  C118     1.0000 0.69918  0.45892  0.50412  Biso   1.000  C
  C119     1.0000 0.63870  0.53510  0.52270  Biso   1.000  C
  C120     1.0000 0.63270  0.41320  0.54180  Biso   1.000  C
  C121     1.0000 0.65770  0.42020  0.28180  Biso   1.000  C
  C122     1.0000 0.60510  0.48540  0.25240  Biso   1.000  C
  C123     1.0000 0.69950  0.35910  0.24970  Biso   1.000  C
  C124     1.0000 0.98320  0.45600  0.28060  Biso   1.000  C
  C125     1.0000 0.04680  0.40090  0.22430  Biso   1.000  C
  C126     1.0000 0.97260  0.53010  0.25110  Biso   1.000  C
  C127     1.0000 0.85215  0.49377  0.62053  Biso   1.000  C
  C128     1.0000 0.77633  0.49163  0.68831  Biso   1.000  C
  C129     1.0000 0.78792  0.43254  0.72682  Biso   1.000  C
  C130     1.0000 0.69247  0.54778  0.71608  Biso   1.000  C
  C131     1.0000 0.71520  0.43440  0.79160  Biso   1.000  C
  C132     1.0000 0.62780  0.54375  0.78145  Biso   1.000  C
  C133     1.0000 0.36921  0.92779  0.52879  Biso   1.000  C
  C134     1.0000 0.29389  0.89030  0.54292  Biso   1.000  C
  C135     1.0000 0.19160  0.92664  0.54896  Biso   1.000  C
  C136     1.0000 0.12380  0.89280  0.56080  Biso   1.000  C
  C137     1.0000 0.15330  0.82300  0.56660  Biso   1.000  C
  C138     1.0000 0.25520  0.78580  0.56200  Biso   1.000  C
  C139     1.0000 0.32731  0.81959  0.54999  Biso   1.000  C
  C140     1.0000 0.15810  0.00412  0.54108  Biso   1.000  C
  C141     1.0000 0.17380  0.02270  0.46490  Biso   1.000  C
  C142     1.0000 0.04590  0.04180  0.58680  Biso   1.000  C
  C143     1.0000 0.07790  0.78180  0.57980  Biso   1.000  C
  C144     1.0000 0.09050  0.75240  0.51460  Biso   1.000  C
  C145     1.0000 0.05860  0.74970  0.64090  Biso   1.000  C
  C146     1.0000 0.43920  0.78060  0.54400  Biso   1.000  C
  C147     1.0000 0.44770  0.72430  0.59910  Biso   1.000  C
  C148     1.0000 0.50270  0.75110  0.46990  Biso   1.000  C
  C149     1.0000 0.34592  0.12053  0.50623  Biso   1.000  C
  C150     1.0000 0.26796  0.18831  0.50837  Biso   1.000  C
  C151     1.0000 0.22046  0.22682  0.56746  Biso   1.000  C
  C152     1.0000 0.24025  0.21608  0.45222  Biso   1.000  C
  C153     1.0000 0.14960  0.29160  0.56560  Biso   1.000  C
  C154     1.0000 0.17155  0.28145  0.45625  Biso   1.000  C
  C155     1.0000 0.32579  0.57221  0.97121  Biso   1.000  C
  C156     1.0000 0.22711  0.60970  0.95708  Biso   1.000  C
  C157     1.0000 0.16720  0.57336  0.95104  Biso   1.000  C
  C158     1.0000 0.07740  0.60720  0.93920  Biso   1.000  C
  C159     1.0000 0.04290  0.67700  0.93340  Biso   1.000  C
  C160     1.0000 0.10300  0.71420  0.93800  Biso   1.000  C
  C161     1.0000 0.19689  0.68041  0.95001  Biso   1.000  C
  C162     1.0000 0.20330  0.49588  0.95892  Biso   1.000  C
  C163     1.0000 0.16140  0.47730  0.03510  Biso   1.000  C
  C164     1.0000 0.17450  0.45820  0.91320  Biso   1.000  C
  C165     1.0000 0.93950  0.71820  0.92020  Biso   1.000  C
  C166     1.0000 0.85750  0.74760  0.98540  Biso   1.000  C
  C167     1.0000 0.94920  0.75030  0.85910  Biso   1.000  C
  C168     1.0000 0.26380  0.71940  0.95600  Biso   1.000  C
  C169     1.0000 0.27110  0.77570  0.90090  Biso   1.000  C
  C170     1.0000 0.22370  0.74890  0.03010  Biso   1.000  C
  C171     1.0000 0.47268  0.37947  0.99377  Biso   1.000  C
  C172     1.0000 0.46464  0.31169  0.99163  Biso   1.000  C
  C173     1.0000 0.51474  0.27318  0.93254  Biso   1.000  C
  C174     1.0000 0.40855  0.28392  0.04778  Biso   1.000  C
  C175     1.0000 0.50680  0.20840  0.93440  Biso   1.000  C
  C176     1.0000 0.40925  0.21855  0.04375  Biso   1.000  C
  N1       1.0000 0.55338  0.98833  0.31971  Biso   1.000  N
  N2       1.0000 0.36142  0.51167  0.18029  Biso   1.000  N
  N3       1.0000 0.87309  0.68029  0.48833  Biso   1.000  N
  N4       1.0000 0.54171  0.81971  0.01167  Biso   1.000  N
  N5       1.0000 0.44662  0.01167  0.68029  Biso   1.000  N
  N6       1.0000 0.63858  0.48833  0.81971  Biso   1.000  N
  N7       1.0000 0.12691  0.31971  0.51167  Biso   1.000  N
  N8       1.0000 0.45829  0.18029  0.98833  Biso   1.000  N
  O1       1.0000 0.66822  0.92206  0.94706  Biso   1.000  O
  O2       1.0000 0.53837  0.93890  0.09652  Biso   1.000  O
  O3       1.0000 0.64678  0.03382  0.93990  Biso   1.000  O
  O4       1.0000 0.51674  0.05076  0.08934  Biso   1.000  O
  O5       1.0000 0.03734  0.57794  0.55294  Biso   1.000  O
  O6       1.0000 0.07379  0.56110  0.40348  Biso   1.000  O
  O7       1.0000 0.12050  0.46618  0.56010  Biso   1.000  O
  O8       1.0000 0.15684  0.44924  0.41066  Biso   1.000  O
  O9       1.0000 0.61528  0.05294  0.42206  Biso   1.000  O
  O10      1.0000 0.63489  0.90348  0.43890  Biso   1.000  O
  O11      1.0000 0.58668  0.06010  0.53382  Biso   1.000  O
  O12      1.0000 0.60608  0.91066  0.55076  Biso   1.000  O
  O13      1.0000 0.59028  0.44706  0.07794  Biso   1.000  O
  O14      1.0000 0.47727  0.59652  0.06110  Biso   1.000  O
  O15      1.0000 0.68060  0.43990  0.96618  Biso   1.000  O
  O16      1.0000 0.56750  0.58934  0.94924  Biso   1.000  O
  O17      1.0000 0.33178  0.07794  0.05294  Biso   1.000  O
  O18      1.0000 0.46163  0.06110  0.90348  Biso   1.000  O
  O19      1.0000 0.35322  0.96618  0.06010  Biso   1.000  O
  O20      1.0000 0.48326  0.94924  0.91066  Biso   1.000  O
  O21      1.0000 0.96266  0.42206  0.44706  Biso   1.000  O
  O22      1.0000 0.92621  0.43890  0.59652  Biso   1.000  O
  O23      1.0000 0.87950  0.53382  0.43990  Biso   1.000  O
  O24      1.0000 0.84316  0.55076  0.58934  Biso   1.000  O
  O25      1.0000 0.38472  0.94706  0.57794  Biso   1.000  O
  O26      1.0000 0.36511  0.09652  0.56110  Biso   1.000  O
  O27      1.0000 0.41332  0.93990  0.46618  Biso   1.000  O
  O28      1.0000 0.39392  0.08934  0.44924  Biso   1.000  O
  O29      1.0000 0.40972  0.55294  0.92206  Biso   1.000  O
  O30      1.0000 0.52273  0.40348  0.93890  Biso   1.000  O
  O31      1.0000 0.31940  0.56010  0.03382  Biso   1.000  O
  O32      1.0000 0.43250  0.41066  0.05076  Biso   1.000  O
