data_image0
_cell_length_a       10.4297
_cell_length_b       11.219
_cell_length_c       11.219
_cell_angle_alpha    98.5086
_cell_angle_beta     109.592
_cell_angle_gamma    109.592

_symmetry_space_group_name_H-M    P 1
_symmetry_int_tables_number       1

loop_
  _symmetry_equiv_pos_as_xyz
  'x, y, z'

loop_
  _atom_site_label
  _atom_site_occupancy
  _atom_site_fract_x
  _atom_site_fract_y
  _atom_site_fract_z
  _atom_site_thermal_displace_type
  _atom_site_B_iso_or_equiv
  _atom_site_type_symbol
  Cd1      1.0000 0.25094  0.97483  0.06675  Biso   1.000  Cd
  Cd2      1.0000 0.75094  0.06675  0.97483  Biso   1.000  Cd
  H1       1.0000 0.12930  0.20970  0.04010  Biso   1.000  H
  H2       1.0000 0.17800  0.40610  0.98430  Biso   1.000  H
  H3       1.0000 0.35980  0.47440  0.90080  Biso   1.000  H
  H4       1.0000 0.41890  0.78350  0.03250  Biso   1.000  H
  H5       1.0000 0.50300  0.63790  0.12650  Biso   1.000  H
  H6       1.0000 0.29920  0.66880  0.37060  Biso   1.000  H
  H7       1.0000 0.23450  0.82290  0.28050  Biso   1.000  H
  H8       1.0000 0.38830  0.48800  0.35200  Biso   1.000  H
  H9       1.0000 0.48040  0.48470  0.26310  Biso   1.000  H
  H10      1.0000 0.68180  0.68560  0.42140  Biso   1.000  H
  H11      1.0000 0.59080  0.67950  0.51170  Biso   1.000  H
  H12      1.0000 0.70960  0.49120  0.45760  Biso   1.000  H
  H13      1.0000 0.61160  0.47840  0.54260  Biso   1.000  H
  H14      1.0000 0.94920  0.72470  0.55010  Biso   1.000  H
  H15      1.0000 0.14800  0.87410  0.74090  Biso   1.000  H
  H16      1.0000 0.95640  0.71660  0.96160  Biso   1.000  H
  H17      1.0000 0.74790  0.56760  0.77680  Biso   1.000  H
  H18      1.0000 0.62930  0.04010  0.20970  Biso   1.000  H
  H19      1.0000 0.67800  0.98430  0.40610  Biso   1.000  H
  H20      1.0000 0.85980  0.90080  0.47440  Biso   1.000  H
  H21      1.0000 0.91890  0.03250  0.78350  Biso   1.000  H
  H22      1.0000 0.00300  0.12650  0.63790  Biso   1.000  H
  H23      1.0000 0.79920  0.37060  0.66880  Biso   1.000  H
  H24      1.0000 0.73450  0.28050  0.82290  Biso   1.000  H
  H25      1.0000 0.88830  0.35200  0.48800  Biso   1.000  H
  H26      1.0000 0.98040  0.26310  0.48470  Biso   1.000  H
  H27      1.0000 0.18180  0.42140  0.68560  Biso   1.000  H
  H28      1.0000 0.09080  0.51170  0.67950  Biso   1.000  H
  H29      1.0000 0.20960  0.45760  0.49120  Biso   1.000  H
  H30      1.0000 0.11160  0.54260  0.47840  Biso   1.000  H
  H31      1.0000 0.44920  0.55010  0.72470  Biso   1.000  H
  H32      1.0000 0.64800  0.74090  0.87410  Biso   1.000  H
  H33      1.0000 0.45640  0.96160  0.71660  Biso   1.000  H
  H34      1.0000 0.24790  0.77680  0.56760  Biso   1.000  H
  C1       1.0000 0.20500  0.23885  0.00865  Biso   1.000  C
  C2       1.0000 0.23210  0.35484  0.97456  Biso   1.000  C
  C3       1.0000 0.34000  0.39499  0.92573  Biso   1.000  C
  C4       1.0000 0.41990  0.31942  0.91286  Biso   1.000  C
  C5       1.0000 0.53420  0.36813  0.85507  Biso   1.000  C
  C6       1.0000 0.38910  0.20577  0.95439  Biso   1.000  C
  C7       1.0000 0.47980  0.12346  0.96140  Biso   1.000  C
  C8       1.0000 0.39720  0.76201  0.10439  Biso   1.000  C
  C9       1.0000 0.44560  0.67294  0.15846  Biso   1.000  C
  C10      1.0000 0.40910  0.63539  0.26029  Biso   1.000  C
  C11      1.0000 0.32800  0.69239  0.30261  Biso   1.000  C
  C12      1.0000 0.28810  0.78340  0.24740  Biso   1.000  C
  C13      1.0000 0.46410  0.54373  0.32587  Biso   1.000  C
  C14      1.0000 0.61030  0.62475  0.44805  Biso   1.000  C
  C15      1.0000 0.68310  0.54204  0.51816  Biso   1.000  C
  C16      1.0000 0.82170  0.63084  0.64076  Biso   1.000  C
  C17      1.0000 0.94650  0.72312  0.63368  Biso   1.000  C
  C18      1.0000 0.06530  0.81145  0.74815  Biso   1.000  C
  C19      1.0000 0.95300  0.72026  0.87654  Biso   1.000  C
  C20      1.0000 0.82850  0.63001  0.76659  Biso   1.000  C
  C21      1.0000 0.70500  0.00865  0.23885  Biso   1.000  C
  C22      1.0000 0.73210  0.97456  0.35484  Biso   1.000  C
  C23      1.0000 0.84000  0.92573  0.39499  Biso   1.000  C
  C24      1.0000 0.91990  0.91286  0.31942  Biso   1.000  C
  C25      1.0000 0.03420  0.85507  0.36813  Biso   1.000  C
  C26      1.0000 0.88910  0.95439  0.20577  Biso   1.000  C
  C27      1.0000 0.97980  0.96140  0.12346  Biso   1.000  C
  C28      1.0000 0.89720  0.10439  0.76201  Biso   1.000  C
  C29      1.0000 0.94560  0.15846  0.67294  Biso   1.000  C
  C30      1.0000 0.90910  0.26029  0.63539  Biso   1.000  C
  C31      1.0000 0.82800  0.30261  0.69239  Biso   1.000  C
  C32      1.0000 0.78810  0.24740  0.78340  Biso   1.000  C
  C33      1.0000 0.96410  0.32587  0.54373  Biso   1.000  C
  C34      1.0000 0.11030  0.44805  0.62475  Biso   1.000  C
  C35      1.0000 0.18310  0.51816  0.54204  Biso   1.000  C
  C36      1.0000 0.32170  0.64076  0.63084  Biso   1.000  C
  C37      1.0000 0.44650  0.63368  0.72312  Biso   1.000  C
  C38      1.0000 0.56530  0.74815  0.81145  Biso   1.000  C
  C39      1.0000 0.45300  0.87654  0.72026  Biso   1.000  C
  C40      1.0000 0.32850  0.76659  0.63001  Biso   1.000  C
  N1       1.0000 0.28120  0.16534  0.99922  Biso   1.000  N
  N2       1.0000 0.32190  0.81866  0.14870  Biso   1.000  N
  N3       1.0000 0.06960  0.81307  0.86933  Biso   1.000  N
  N4       1.0000 0.78120  0.99922  0.16534  Biso   1.000  N
  N5       1.0000 0.82190  0.14870  0.81866  Biso   1.000  N
  N6       1.0000 0.56960  0.86933  0.81307  Biso   1.000  N
  O1       1.0000 0.43883  0.01820  0.99068  Biso   1.000  O
  O2       1.0000 0.59487  0.17070  0.93990  Biso   1.000  O
  O3       1.0000 0.65521  0.46324  0.93152  Biso   1.000  O
  O4       1.0000 0.49390  0.31668  0.73484  Biso   1.000  O
  O5       1.0000 0.93883  0.99068  0.01820  Biso   1.000  O
  O6       1.0000 0.09487  0.93990  0.17070  Biso   1.000  O
  O7       1.0000 0.15521  0.93152  0.46324  Biso   1.000  O
  O8       1.0000 0.99390  0.73484  0.31668  Biso   1.000  O
