data_image0
_cell_length_a       9.27319
_cell_length_b       14.3218
_cell_length_c       16.9792
_cell_angle_alpha    98.659
_cell_angle_beta     90
_cell_angle_gamma    108.889

_symmetry_space_group_name_H-M    P 1
_symmetry_int_tables_number       1

loop_
  _symmetry_equiv_pos_as_xyz
  'x, y, z'

loop_
  _atom_site_label
  _atom_site_occupancy
  _atom_site_fract_x
  _atom_site_fract_y
  _atom_site_fract_z
  _atom_site_thermal_displace_type
  _atom_site_B_iso_or_equiv
  _atom_site_type_symbol
  Zn1      1.0000 0.97035  0.34620  0.34233  Biso   1.000  Zn
  Zn2      1.0000 0.56606  0.34474  0.54949  Biso   1.000  Zn
  Zn3      1.0000 0.62415  0.65380  0.15767  Biso   1.000  Zn
  Zn4      1.0000 0.22132  0.65526  0.95051  Biso   1.000  Zn
  Zn5      1.0000 0.02965  0.65380  0.65767  Biso   1.000  Zn
  Zn6      1.0000 0.43394  0.65526  0.45051  Biso   1.000  Zn
  Zn7      1.0000 0.37585  0.34620  0.84233  Biso   1.000  Zn
  Zn8      1.0000 0.77868  0.34474  0.04949  Biso   1.000  Zn
  H1       1.0000 0.14850  0.25580  0.36770  Biso   1.000  H
  H2       1.0000 0.06700  0.31180  0.39720  Biso   1.000  H
  H3       1.0000 0.68200  0.47500  0.32540  Biso   1.000  H
  H4       1.0000 0.89610  0.59380  0.44710  Biso   1.000  H
  H5       1.0000 0.03830  0.69900  0.36830  Biso   1.000  H
  H6       1.0000 0.05470  0.56200  0.25650  Biso   1.000  H
  H7       1.0000 0.62520  0.26280  0.27310  Biso   1.000  H
  H8       1.0000 0.46620  0.13000  0.18820  Biso   1.000  H
  H9       1.0000 0.81540  0.02500  0.15180  Biso   1.000  H
  H10      1.0000 0.96090  0.15860  0.24120  Biso   1.000  H
  H11      1.0000 0.17130  0.83220  0.06000  Biso   1.000  H
  H12      1.0000 0.31610  0.97220  0.14420  Biso   1.000  H
  H13      1.0000 0.68920  0.93640  0.04400  Biso   1.000  H
  H14      1.0000 0.53440  0.79620  0.96330  Biso   1.000  H
  H15      1.0000 0.89270  0.74420  0.13230  Biso   1.000  H
  H16      1.0000 0.75520  0.68820  0.10280  Biso   1.000  H
  H17      1.0000 0.20700  0.52500  0.17460  Biso   1.000  H
  H18      1.0000 0.30230  0.40620  0.05290  Biso   1.000  H
  H19      1.0000 0.33930  0.30100  0.13170  Biso   1.000  H
  H20      1.0000 0.49270  0.43800  0.24350  Biso   1.000  H
  H21      1.0000 0.36240  0.73720  0.22690  Biso   1.000  H
  H22      1.0000 0.33620  0.87000  0.31180  Biso   1.000  H
  H23      1.0000 0.79040  0.97500  0.34820  Biso   1.000  H
  H24      1.0000 0.80230  0.84140  0.25880  Biso   1.000  H
  H25      1.0000 0.33910  0.16780  0.44000  Biso   1.000  H
  H26      1.0000 0.34390  0.02780  0.35580  Biso   1.000  H
  H27      1.0000 0.75280  0.06360  0.45600  Biso   1.000  H
  H28      1.0000 0.73820  0.20380  0.53670  Biso   1.000  H
  H29      1.0000 0.85150  0.74420  0.63230  Biso   1.000  H
  H30      1.0000 0.93300  0.68820  0.60280  Biso   1.000  H
  H31      1.0000 0.31800  0.52500  0.67460  Biso   1.000  H
  H32      1.0000 0.10390  0.40620  0.55290  Biso   1.000  H
  H33      1.0000 0.96170  0.30100  0.63170  Biso   1.000  H
  H34      1.0000 0.94530  0.43800  0.74350  Biso   1.000  H
  H35      1.0000 0.37480  0.73720  0.72690  Biso   1.000  H
  H36      1.0000 0.53380  0.87000  0.81180  Biso   1.000  H
  H37      1.0000 0.18460  0.97500  0.84820  Biso   1.000  H
  H38      1.0000 0.03910  0.84140  0.75880  Biso   1.000  H
  H39      1.0000 0.82870  0.16780  0.94000  Biso   1.000  H
  H40      1.0000 0.68390  0.02780  0.85580  Biso   1.000  H
  H41      1.0000 0.31080  0.06360  0.95600  Biso   1.000  H
  H42      1.0000 0.46560  0.20380  0.03670  Biso   1.000  H
  H43      1.0000 0.10730  0.25580  0.86770  Biso   1.000  H
  H44      1.0000 0.24480  0.31180  0.89720  Biso   1.000  H
  H45      1.0000 0.79300  0.47500  0.82540  Biso   1.000  H
  H46      1.0000 0.69770  0.59380  0.94710  Biso   1.000  H
  H47      1.0000 0.66070  0.69900  0.86830  Biso   1.000  H
  H48      1.0000 0.50730  0.56200  0.75650  Biso   1.000  H
  H49      1.0000 0.63760  0.26280  0.77310  Biso   1.000  H
  H50      1.0000 0.66380  0.13000  0.68820  Biso   1.000  H
  H51      1.0000 0.20960  0.02500  0.65180  Biso   1.000  H
  H52      1.0000 0.19770  0.15860  0.74120  Biso   1.000  H
  H53      1.0000 0.66090  0.83220  0.56000  Biso   1.000  H
  H54      1.0000 0.65610  0.97220  0.64420  Biso   1.000  H
  H55      1.0000 0.24720  0.93640  0.54400  Biso   1.000  H
  H56      1.0000 0.26180  0.79620  0.46330  Biso   1.000  H
  C1       1.0000 0.77403  0.48406  0.35810  Biso   1.000  C
  C2       1.0000 0.83865  0.59310  0.39840  Biso   1.000  C
  C3       1.0000 0.95682  0.64164  0.33974  Biso   1.000  C
  C4       1.0000 0.01800  0.55580  0.31025  Biso   1.000  C
  C5       1.0000 0.73516  0.41212  0.41823  Biso   1.000  C
  C6       1.0000 0.72523  0.64686  0.42302  Biso   1.000  C
  C7       1.0000 0.89192  0.67104  0.26765  Biso   1.000  C
  C8       1.0000 0.14879  0.55538  0.36618  Biso   1.000  C
  C9       1.0000 0.66375  0.21390  0.24888  Biso   1.000  C
  C10      1.0000 0.56691  0.13382  0.19754  Biso   1.000  C
  C11      1.0000 0.62018  0.05916  0.15983  Biso   1.000  C
  C12      1.0000 0.77243  0.07146  0.17640  Biso   1.000  C
  C13      1.0000 0.86019  0.15318  0.22960  Biso   1.000  C
  C14      1.0000 0.27689  0.85298  0.05722  Biso   1.000  C
  C15      1.0000 0.36333  0.93746  0.10800  Biso   1.000  C
  C16      1.0000 0.52175  0.97030  0.10465  Biso   1.000  C
  C17      1.0000 0.58416  0.91632  0.04893  Biso   1.000  C
  C18      1.0000 0.49006  0.83192  0.00029  Biso   1.000  C
  C19      1.0000 0.28997  0.51594  0.14190  Biso   1.000  C
  C20      1.0000 0.24555  0.40690  0.10160  Biso   1.000  C
  C21      1.0000 0.31518  0.35836  0.16026  Biso   1.000  C
  C22      1.0000 0.46220  0.44420  0.18975  Biso   1.000  C
  C23      1.0000 0.32304  0.58788  0.08177  Biso   1.000  C
  C24      1.0000 0.07837  0.35314  0.07698  Biso   1.000  C
  C25      1.0000 0.22088  0.32896  0.23235  Biso   1.000  C
  C26      1.0000 0.59341  0.44462  0.13382  Biso   1.000  C
  C27      1.0000 0.44985  0.78610  0.25112  Biso   1.000  C
  C28      1.0000 0.43309  0.86618  0.30246  Biso   1.000  C
  C29      1.0000 0.56102  0.94084  0.34017  Biso   1.000  C
  C30      1.0000 0.70097  0.92854  0.32360  Biso   1.000  C
  C31      1.0000 0.70701  0.84682  0.27040  Biso   1.000  C
  C32      1.0000 0.42391  0.14702  0.44278  Biso   1.000  C
  C33      1.0000 0.42587  0.06254  0.39200  Biso   1.000  C
  C34      1.0000 0.55145  0.02970  0.39535  Biso   1.000  C
  C35      1.0000 0.66784  0.08368  0.45107  Biso   1.000  C
  C36      1.0000 0.65814  0.16808  0.49971  Biso   1.000  C
  C37      1.0000 0.22597  0.51594  0.64190  Biso   1.000  C
  C38      1.0000 0.16135  0.40690  0.60160  Biso   1.000  C
  C39      1.0000 0.04318  0.35836  0.66026  Biso   1.000  C
  C40      1.0000 0.98200  0.44420  0.68975  Biso   1.000  C
  C41      1.0000 0.26484  0.58788  0.58177  Biso   1.000  C
  C42      1.0000 0.27477  0.35314  0.57698  Biso   1.000  C
  C43      1.0000 0.10808  0.32896  0.73235  Biso   1.000  C
  C44      1.0000 0.85121  0.44462  0.63382  Biso   1.000  C
  C45      1.0000 0.33625  0.78610  0.75112  Biso   1.000  C
  C46      1.0000 0.43309  0.86618  0.80246  Biso   1.000  C
  C47      1.0000 0.37982  0.94084  0.84017  Biso   1.000  C
  C48      1.0000 0.22757  0.92854  0.82360  Biso   1.000  C
  C49      1.0000 0.13981  0.84682  0.77040  Biso   1.000  C
  C50      1.0000 0.72311  0.14702  0.94278  Biso   1.000  C
  C51      1.0000 0.63667  0.06254  0.89200  Biso   1.000  C
  C52      1.0000 0.47825  0.02970  0.89535  Biso   1.000  C
  C53      1.0000 0.41584  0.08368  0.95107  Biso   1.000  C
  C54      1.0000 0.50994  0.16808  0.99971  Biso   1.000  C
  C55      1.0000 0.71003  0.48406  0.85810  Biso   1.000  C
  C56      1.0000 0.75445  0.59310  0.89840  Biso   1.000  C
  C57      1.0000 0.68482  0.64164  0.83974  Biso   1.000  C
  C58      1.0000 0.53780  0.55580  0.81025  Biso   1.000  C
  C59      1.0000 0.67696  0.41212  0.91823  Biso   1.000  C
  C60      1.0000 0.92163  0.64686  0.92302  Biso   1.000  C
  C61      1.0000 0.77912  0.67104  0.76765  Biso   1.000  C
  C62      1.0000 0.40659  0.55538  0.86618  Biso   1.000  C
  C63      1.0000 0.55015  0.21390  0.74888  Biso   1.000  C
  C64      1.0000 0.56691  0.13382  0.69754  Biso   1.000  C
  C65      1.0000 0.43898  0.05916  0.65983  Biso   1.000  C
  C66      1.0000 0.29903  0.07146  0.67640  Biso   1.000  C
  C67      1.0000 0.29299  0.15318  0.72960  Biso   1.000  C
  C68      1.0000 0.57609  0.85298  0.55722  Biso   1.000  C
  C69      1.0000 0.57413  0.93746  0.60800  Biso   1.000  C
  C70      1.0000 0.44855  0.97030  0.60465  Biso   1.000  C
  C71      1.0000 0.33216  0.91632  0.54893  Biso   1.000  C
  C72      1.0000 0.34186  0.83192  0.50029  Biso   1.000  C
  N1       1.0000 0.80811  0.22462  0.26538  Biso   1.000  N
  N2       1.0000 0.33851  0.79962  0.00413  Biso   1.000  N
  N3       1.0000 0.58349  0.77538  0.23462  Biso   1.000  N
  N4       1.0000 0.53889  0.20038  0.49587  Biso   1.000  N
  N5       1.0000 0.19189  0.77538  0.73462  Biso   1.000  N
  N6       1.0000 0.66149  0.20038  0.99587  Biso   1.000  N
  N7       1.0000 0.41651  0.22462  0.76538  Biso   1.000  N
  N8       1.0000 0.46111  0.79962  0.50413  Biso   1.000  N
  O1       1.0000 0.89030  0.46558  0.30689  Biso   1.000  O
  O2       1.0000 0.06937  0.25474  0.38958  Biso   1.000  O
  O3       1.0000 0.81133  0.35566  0.42491  Biso   1.000  O
  O4       1.0000 0.62274  0.41588  0.45834  Biso   1.000  O
  O5       1.0000 0.58563  0.60402  0.40084  Biso   1.000  O
  O6       1.0000 0.77712  0.73044  0.46620  Biso   1.000  O
  O7       1.0000 0.75130  0.63640  0.25255  Biso   1.000  O
  O8       1.0000 0.98707  0.72734  0.22858  Biso   1.000  O
  O9       1.0000 0.26224  0.63486  0.37429  Biso   1.000  O
  O10      1.0000 0.13468  0.48136  0.39870  Biso   1.000  O
  O11      1.0000 0.42472  0.53442  0.19311  Biso   1.000  O
  O12      1.0000 0.81463  0.74526  0.11042  Biso   1.000  O
  O13      1.0000 0.45567  0.64434  0.07509  Biso   1.000  O
  O14      1.0000 0.20686  0.58412  0.04166  Biso   1.000  O
  O15      1.0000 0.98161  0.39598  0.09916  Biso   1.000  O
  O16      1.0000 0.04668  0.26956  0.03380  Biso   1.000  O
  O17      1.0000 0.11490  0.36360  0.24745  Biso   1.000  O
  O18      1.0000 0.25973  0.27266  0.27142  Biso   1.000  O
  O19      1.0000 0.62738  0.36514  0.12571  Biso   1.000  O
  O20      1.0000 0.65332  0.51864  0.10130  Biso   1.000  O
  O21      1.0000 0.10970  0.53442  0.69311  Biso   1.000  O
  O22      1.0000 0.93063  0.74526  0.61042  Biso   1.000  O
  O23      1.0000 0.18867  0.64434  0.57509  Biso   1.000  O
  O24      1.0000 0.37726  0.58412  0.54166  Biso   1.000  O
  O25      1.0000 0.41437  0.39598  0.59916  Biso   1.000  O
  O26      1.0000 0.22288  0.26956  0.53380  Biso   1.000  O
  O27      1.0000 0.24870  0.36360  0.74745  Biso   1.000  O
  O28      1.0000 0.01293  0.27266  0.77142  Biso   1.000  O
  O29      1.0000 0.73776  0.36514  0.62571  Biso   1.000  O
  O30      1.0000 0.86532  0.51864  0.60130  Biso   1.000  O
  O31      1.0000 0.57528  0.46558  0.80689  Biso   1.000  O
  O32      1.0000 0.18537  0.25474  0.88958  Biso   1.000  O
  O33      1.0000 0.54433  0.35566  0.92491  Biso   1.000  O
  O34      1.0000 0.79314  0.41588  0.95834  Biso   1.000  O
  O35      1.0000 0.01839  0.60402  0.90084  Biso   1.000  O
  O36      1.0000 0.95332  0.73044  0.96620  Biso   1.000  O
  O37      1.0000 0.88510  0.63640  0.75255  Biso   1.000  O
  O38      1.0000 0.74027  0.72734  0.72858  Biso   1.000  O
  O39      1.0000 0.37262  0.63486  0.87429  Biso   1.000  O
  O40      1.0000 0.34668  0.48136  0.89870  Biso   1.000  O
