data_image0
_cell_length_a       13.5667
_cell_length_b       9.5666
_cell_length_c       23.1432
_cell_angle_alpha    90
_cell_angle_beta     122.672
_cell_angle_gamma    90

_symmetry_space_group_name_H-M    "P 1"
_symmetry_int_tables_number       1

loop_
  _symmetry_equiv_pos_as_xyz
  'x, y, z'

loop_
  _atom_site_label
  _atom_site_occupancy
  _atom_site_fract_x
  _atom_site_fract_y
  _atom_site_fract_z
  _atom_site_thermal_displace_type
  _atom_site_B_iso_or_equiv
  _atom_site_type_symbol
  Cd1      1.0000 0.22679  0.75074  0.74412  Biso   1.000  Cd
  O1       1.0000 0.15090  0.93240  0.66060  Biso   1.000  O
  O2       1.0000 0.32130  0.84140  0.69230  Biso   1.000  O
  O3       1.0000 0.52830  0.21960  0.64070  Biso   1.000  O
  O4       1.0000 0.68080  0.07380  0.68290  Biso   1.000  O
  O5       1.0000 0.02680  0.66060  0.68860  Biso   1.000  O
  O6       1.0000 0.13670  0.58950  0.65140  Biso   1.000  O
  C1       1.0000 0.23670  0.91860  0.65450  Biso   1.000  C
  C2       1.0000 0.23350  0.99660  0.59640  Biso   1.000  C
  C3       1.0000 0.13590  0.07530  0.55050  Biso   1.000  C
  H1       1.0000 0.07360  0.08340  0.55650  Biso   1.000  H
  C4       1.0000 0.32630  0.98480  0.58690  Biso   1.000  C
  H2       1.0000 0.39180  0.93240  0.61760  Biso   1.000  H
  C5       1.0000 0.32220  0.05040  0.53180  Biso   1.000  C
  C6       1.0000 0.22320  0.12840  0.48650  Biso   1.000  C
  H3       1.0000 0.21870  0.17250  0.44930  Biso   1.000  H
  C7       1.0000 0.13110  0.14120  0.49620  Biso   1.000  C
  H4       1.0000 0.06590  0.19450  0.46590  Biso   1.000  H
  C8       1.0000 0.41620  0.02790  0.51760  Biso   1.000  C
  C9       1.0000 0.38480  0.97440  0.45400  Biso   1.000  C
  H5       1.0000 0.30590  0.95730  0.42200  Biso   1.000  H
  C10      1.0000 0.53430  0.05560  0.56500  Biso   1.000  C
  C11      1.0000 0.58210  0.12120  0.63420  Biso   1.000  C
  C12      1.0000 0.93920  0.51030  0.59180  Biso   1.000  C
  C13      1.0000 0.83010  0.52140  0.58100  Biso   1.000  C
  H6       1.0000 0.81900  0.58370  0.60780  Biso   1.000  H
  C14      1.0000 0.73400  0.44290  0.53110  Biso   1.000  C
  C15      1.0000 0.75390  0.35000  0.49230  Biso   1.000  C
  H7       1.0000 0.69280  0.29520  0.45910  Biso   1.000  H
  C16      1.0000 0.86370  0.33840  0.50250  Biso   1.000  C
  H8       1.0000 0.87530  0.27640  0.47580  Biso   1.000  H
  C17      1.0000 0.95620  0.41710  0.55180  Biso   1.000  C
  H9       1.0000 0.02980  0.40810  0.55820  Biso   1.000  H
  C18      1.0000 0.61470  0.46850  0.51700  Biso   1.000  C
  C19      1.0000 0.04040  0.59340  0.64800  Biso   1.000  C
  C20      1.0000 0.59390  0.48760  0.56920  Biso   1.000  C
  C21      1.0000 0.52070  0.47770  0.44880  Biso   1.000  C
  H10      1.0000 0.53400  0.46050  0.41400  Biso   1.000  H
  O7       1.0000 0.75390  0.36540  0.66410  Biso   1.000  O
  O8       1.0000 0.68550  0.55650  0.68560  Biso   1.000  O
  C22      1.0000 0.68630  0.46780  0.64600  Biso   1.000  C
  Cd2      1.0000 0.77321  0.25074  0.75588  Biso   1.000  Cd
  O9       1.0000 0.84910  0.43240  0.83940  Biso   1.000  O
  O10      1.0000 0.67870  0.34140  0.80770  Biso   1.000  O
  O11      1.0000 0.47170  0.71960  0.85930  Biso   1.000  O
  O12      1.0000 0.31920  0.57380  0.81710  Biso   1.000  O
  O13      1.0000 0.97320  0.16060  0.81140  Biso   1.000  O
  O14      1.0000 0.86330  0.08950  0.84860  Biso   1.000  O
  C23      1.0000 0.76330  0.41860  0.84550  Biso   1.000  C
  C24      1.0000 0.76650  0.49660  0.90360  Biso   1.000  C
  C25      1.0000 0.86410  0.57530  0.94950  Biso   1.000  C
  H11      1.0000 0.92640  0.58340  0.94350  Biso   1.000  H
  C26      1.0000 0.67370  0.48480  0.91310  Biso   1.000  C
  H12      1.0000 0.60820  0.43240  0.88240  Biso   1.000  H
  C27      1.0000 0.67780  0.55040  0.96820  Biso   1.000  C
  C28      1.0000 0.77680  0.62840  0.01350  Biso   1.000  C
  H13      1.0000 0.78130  0.67250  0.05070  Biso   1.000  H
  C29      1.0000 0.86890  0.64120  0.00380  Biso   1.000  C
  H14      1.0000 0.93410  0.69450  0.03410  Biso   1.000  H
  C30      1.0000 0.58380  0.52790  0.98240  Biso   1.000  C
  C31      1.0000 0.61520  0.47440  0.04600  Biso   1.000  C
  H15      1.0000 0.69410  0.45730  0.07800  Biso   1.000  H
  C32      1.0000 0.46570  0.55560  0.93500  Biso   1.000  C
  C33      1.0000 0.41790  0.62120  0.86580  Biso   1.000  C
  C34      1.0000 0.06080  0.01030  0.90820  Biso   1.000  C
  C35      1.0000 0.16990  0.02140  0.91900  Biso   1.000  C
  H16      1.0000 0.18100  0.08370  0.89220  Biso   1.000  H
  C36      1.0000 0.26600  0.94290  0.96890  Biso   1.000  C
  C37      1.0000 0.24610  0.85000  0.00770  Biso   1.000  C
  H17      1.0000 0.30720  0.79520  0.04090  Biso   1.000  H
  C38      1.0000 0.13630  0.83840  0.99750  Biso   1.000  C
  H18      1.0000 0.12470  0.77640  0.02420  Biso   1.000  H
  C39      1.0000 0.04380  0.91710  0.94820  Biso   1.000  C
  H19      1.0000 0.97020  0.90810  0.94180  Biso   1.000  H
  C40      1.0000 0.38530  0.96850  0.98300  Biso   1.000  C
  C41      1.0000 0.95960  0.09340  0.85200  Biso   1.000  C
  C42      1.0000 0.40610  0.98760  0.93080  Biso   1.000  C
  C43      1.0000 0.47930  0.97770  0.05120  Biso   1.000  C
  H20      1.0000 0.46600  0.96050  0.08600  Biso   1.000  H
  O15      1.0000 0.24610  0.86540  0.83590  Biso   1.000  O
  O16      1.0000 0.31450  0.05650  0.81440  Biso   1.000  O
  C44      1.0000 0.31370  0.96780  0.85400  Biso   1.000  C
  Cd3      1.0000 0.77321  0.24926  0.25588  Biso   1.000  Cd
  O17      1.0000 0.84910  0.06760  0.33940  Biso   1.000  O
  O18      1.0000 0.67870  0.15860  0.30770  Biso   1.000  O
  O19      1.0000 0.47170  0.78040  0.35930  Biso   1.000  O
  O20      1.0000 0.31920  0.92620  0.31710  Biso   1.000  O
  O21      1.0000 0.97320  0.33940  0.31140  Biso   1.000  O
  O22      1.0000 0.86330  0.41050  0.34860  Biso   1.000  O
  C45      1.0000 0.76330  0.08140  0.34550  Biso   1.000  C
  C46      1.0000 0.76650  0.00340  0.40360  Biso   1.000  C
  C47      1.0000 0.86410  0.92470  0.44950  Biso   1.000  C
  H21      1.0000 0.92640  0.91660  0.44350  Biso   1.000  H
  C48      1.0000 0.67370  0.01520  0.41310  Biso   1.000  C
  H22      1.0000 0.60820  0.06760  0.38240  Biso   1.000  H
  C49      1.0000 0.67780  0.94960  0.46820  Biso   1.000  C
  C50      1.0000 0.77680  0.87160  0.51350  Biso   1.000  C
  H23      1.0000 0.78130  0.82750  0.55070  Biso   1.000  H
  C51      1.0000 0.86890  0.85880  0.50380  Biso   1.000  C
  H24      1.0000 0.93410  0.80550  0.53410  Biso   1.000  H
  C52      1.0000 0.58380  0.97210  0.48240  Biso   1.000  C
  C53      1.0000 0.61520  0.02560  0.54600  Biso   1.000  C
  H25      1.0000 0.69410  0.04270  0.57800  Biso   1.000  H
  C54      1.0000 0.46570  0.94440  0.43500  Biso   1.000  C
  C55      1.0000 0.41790  0.87880  0.36580  Biso   1.000  C
  C56      1.0000 0.06080  0.48970  0.40820  Biso   1.000  C
  C57      1.0000 0.16990  0.47860  0.41900  Biso   1.000  C
  H26      1.0000 0.18100  0.41630  0.39220  Biso   1.000  H
  C58      1.0000 0.26600  0.55710  0.46890  Biso   1.000  C
  C59      1.0000 0.24610  0.65000  0.50770  Biso   1.000  C
  H27      1.0000 0.30720  0.70480  0.54090  Biso   1.000  H
  C60      1.0000 0.13630  0.66160  0.49750  Biso   1.000  C
  H28      1.0000 0.12470  0.72360  0.52420  Biso   1.000  H
  C61      1.0000 0.04380  0.58290  0.44820  Biso   1.000  C
  H29      1.0000 0.97020  0.59190  0.44180  Biso   1.000  H
  C62      1.0000 0.38530  0.53150  0.48300  Biso   1.000  C
  C63      1.0000 0.95960  0.40660  0.35200  Biso   1.000  C
  C64      1.0000 0.40610  0.51240  0.43080  Biso   1.000  C
  C65      1.0000 0.47930  0.52230  0.55120  Biso   1.000  C
  H30      1.0000 0.46600  0.53950  0.58600  Biso   1.000  H
  O23      1.0000 0.24610  0.63460  0.33590  Biso   1.000  O
  O24      1.0000 0.31450  0.44350  0.31440  Biso   1.000  O
  C66      1.0000 0.31370  0.53220  0.35400  Biso   1.000  C
  Cd4      1.0000 0.22679  0.74926  0.24412  Biso   1.000  Cd
  O25      1.0000 0.15090  0.56760  0.16060  Biso   1.000  O
  O26      1.0000 0.32130  0.65860  0.19230  Biso   1.000  O
  O27      1.0000 0.52830  0.28040  0.14070  Biso   1.000  O
  O28      1.0000 0.68080  0.42620  0.18290  Biso   1.000  O
  O29      1.0000 0.02680  0.83940  0.18860  Biso   1.000  O
  O30      1.0000 0.13670  0.91050  0.15140  Biso   1.000  O
  C67      1.0000 0.23670  0.58140  0.15450  Biso   1.000  C
  C68      1.0000 0.23350  0.50340  0.09640  Biso   1.000  C
  C69      1.0000 0.13590  0.42470  0.05050  Biso   1.000  C
  H31      1.0000 0.07360  0.41660  0.05650  Biso   1.000  H
  C70      1.0000 0.32630  0.51520  0.08690  Biso   1.000  C
  H32      1.0000 0.39180  0.56760  0.11760  Biso   1.000  H
  C71      1.0000 0.32220  0.44960  0.03180  Biso   1.000  C
  C72      1.0000 0.22320  0.37160  0.98650  Biso   1.000  C
  H33      1.0000 0.21870  0.32750  0.94930  Biso   1.000  H
  C73      1.0000 0.13110  0.35880  0.99620  Biso   1.000  C
  H34      1.0000 0.06590  0.30550  0.96590  Biso   1.000  H
  C74      1.0000 0.41620  0.47210  0.01760  Biso   1.000  C
  C75      1.0000 0.38480  0.52560  0.95400  Biso   1.000  C
  H35      1.0000 0.30590  0.54270  0.92200  Biso   1.000  H
  C76      1.0000 0.53430  0.44440  0.06500  Biso   1.000  C
  C77      1.0000 0.58210  0.37880  0.13420  Biso   1.000  C
  C78      1.0000 0.93920  0.98970  0.09180  Biso   1.000  C
  C79      1.0000 0.83010  0.97860  0.08100  Biso   1.000  C
  H36      1.0000 0.81900  0.91630  0.10780  Biso   1.000  H
  C80      1.0000 0.73400  0.05710  0.03110  Biso   1.000  C
  C81      1.0000 0.75390  0.15000  0.99230  Biso   1.000  C
  H37      1.0000 0.69280  0.20480  0.95910  Biso   1.000  H
  C82      1.0000 0.86370  0.16160  0.00250  Biso   1.000  C
  H38      1.0000 0.87530  0.22360  0.97580  Biso   1.000  H
  C83      1.0000 0.95620  0.08290  0.05180  Biso   1.000  C
  H39      1.0000 0.02980  0.09190  0.05820  Biso   1.000  H
  C84      1.0000 0.61470  0.03150  0.01700  Biso   1.000  C
  C85      1.0000 0.04040  0.90660  0.14800  Biso   1.000  C
  C86      1.0000 0.59390  0.01240  0.06920  Biso   1.000  C
  C87      1.0000 0.52070  0.02230  0.94880  Biso   1.000  C
  H40      1.0000 0.53400  0.03950  0.91400  Biso   1.000  H
  O31      1.0000 0.75390  0.13460  0.16410  Biso   1.000  O
  O32      1.0000 0.68550  0.94350  0.18560  Biso   1.000  O
  C88      1.0000 0.68630  0.03220  0.14600  Biso   1.000  C
