data_image0
_cell_length_a       6.2924
_cell_length_b       8.6702
_cell_length_c       12.9527
_cell_angle_alpha    105.432
_cell_angle_beta     90.451
_cell_angle_gamma    105.118

_symmetry_space_group_name_H-M    "P 1"
_symmetry_int_tables_number       1

loop_
  _symmetry_equiv_pos_as_xyz
  'x, y, z'

loop_
  _atom_site_label
  _atom_site_occupancy
  _atom_site_fract_x
  _atom_site_fract_y
  _atom_site_fract_z
  _atom_site_thermal_displace_type
  _atom_site_B_iso_or_equiv
  _atom_site_type_symbol
  C1       1.0000 0.94560  0.55190  0.04580  Biso   1.000  C
  C2       1.0000 0.40520  0.42050  0.47950  Biso   1.000  C
  C3       1.0000 0.26570  0.10450  0.78050  Biso   1.000  C
  Eu1      1.0000 0.44137  0.47133  0.74264  Biso   1.000  Eu
  Eu2      1.0000 0.19080  0.83336  0.92483  Biso   1.000  Eu
  O1       1.0000 0.51250  0.76920  0.83950  Biso   1.000  O
  O2       1.0000 0.79750  0.66900  0.83870  Biso   1.000  O
  O3       1.0000 0.83970  0.93190  0.92450  Biso   1.000  O
  O4       1.0000 0.36060  0.37140  0.38060  Biso   1.000  O
  O5       1.0000 0.31400  0.35080  0.54640  Biso   1.000  O
  O6       1.0000 0.16510  0.96040  0.77700  Biso   1.000  O
  O7       1.0000 0.23370  0.18350  0.71680  Biso   1.000  O
  O8       1.0000 0.55750  0.34110  0.87360  Biso   1.000  O
  O9       1.0000 0.49420  0.11600  0.93350  Biso   1.000  O
  C4       1.0000 0.71690  0.79270  0.86870  Biso   1.000  C
  C5       1.0000 0.45650  0.19670  0.87110  Biso   1.000  C
  O10      1.0000 0.98020  0.70210  0.05540  Biso   1.000  O
  O11      1.0000 0.14070  0.60160  0.70520  Biso   1.000  O
  H1       1.0000 0.16500  0.71110  0.67490  Biso   1.000  H
  H2       1.0000 0.13320  0.64610  0.79080  Biso   1.000  H
  O12      1.0000 0.73220  0.32860  0.66170  Biso   1.000  O
  H3       1.0000 0.60980  0.27940  0.65990  Biso   1.000  H
  H4       1.0000 0.76920  0.32480  0.60230  Biso   1.000  H
  O13      1.0000 0.82670  0.47150  0.10320  Biso   1.000  O
  C6       1.0000 0.05440  0.44810  0.95420  Biso   1.000  C
  C7       1.0000 0.59480  0.57950  0.52050  Biso   1.000  C
  C8       1.0000 0.73430  0.89550  0.21950  Biso   1.000  C
  Eu3      1.0000 0.55863  0.52867  0.25736  Biso   1.000  Eu
  Eu4      1.0000 0.80920  0.16664  0.07517  Biso   1.000  Eu
  O14      1.0000 0.48750  0.23080  0.16050  Biso   1.000  O
  O15      1.0000 0.20250  0.33100  0.16130  Biso   1.000  O
  O16      1.0000 0.16030  0.06810  0.07550  Biso   1.000  O
  O17      1.0000 0.63940  0.62860  0.61940  Biso   1.000  O
  O18      1.0000 0.68600  0.64920  0.45360  Biso   1.000  O
  O19      1.0000 0.83490  0.03960  0.22300  Biso   1.000  O
  O20      1.0000 0.76630  0.81650  0.28320  Biso   1.000  O
  O21      1.0000 0.44250  0.65890  0.12640  Biso   1.000  O
  O22      1.0000 0.50580  0.88400  0.06650  Biso   1.000  O
  C9       1.0000 0.28310  0.20730  0.13130  Biso   1.000  C
  C10      1.0000 0.54350  0.80330  0.12890  Biso   1.000  C
  O23      1.0000 0.01980  0.29790  0.94460  Biso   1.000  O
  O24      1.0000 0.85930  0.39840  0.29480  Biso   1.000  O
  H5       1.0000 0.83500  0.28890  0.32510  Biso   1.000  H
  H6       1.0000 0.86680  0.35390  0.20920  Biso   1.000  H
  O25      1.0000 0.26780  0.67140  0.33830  Biso   1.000  O
  H7       1.0000 0.39020  0.72060  0.34010  Biso   1.000  H
  H8       1.0000 0.23080  0.67520  0.39770  Biso   1.000  H
  O26      1.0000 0.17330  0.52850  0.89680  Biso   1.000  O
