data_image0
_cell_length_a       11.1171
_cell_length_b       14.9906
_cell_length_c       24.3281
_cell_angle_alpha    90
_cell_angle_beta     93.217
_cell_angle_gamma    90

_symmetry_space_group_name_H-M    "P 1"
_symmetry_int_tables_number       1

loop_
  _symmetry_equiv_pos_as_xyz
  'x, y, z'

loop_
  _atom_site_label
  _atom_site_occupancy
  _atom_site_fract_x
  _atom_site_fract_y
  _atom_site_fract_z
  _atom_site_thermal_displace_type
  _atom_site_B_iso_or_equiv
  _atom_site_type_symbol
  Zn1      1.0000 0.13658  0.55694  0.34320  Biso   1.000  Zn
  Zn2      1.0000 0.99305  0.44509  0.44083  Biso   1.000  Zn
  Zn3      1.0000 0.82631  0.56004  0.34525  Biso   1.000  Zn
  O1       1.0000 0.00530  0.41660  0.52728  Biso   1.000  O
  O2       1.0000 0.86370  0.21330  0.05610  Biso   1.000  O
  O3       1.0000 0.81290  0.43730  0.45100  Biso   1.000  O
  O4       1.0000 0.17420  0.43120  0.44820  Biso   1.000  O
  O5       1.0000 0.98260  0.49990  0.36310  Biso   1.000  O
  H1       1.0000 0.97780  0.44610  0.33880  Biso   1.000  H
  O6       1.0000 0.16360  0.21270  0.06280  Biso   1.000  O
  O7       1.0000 0.80110  0.54150  0.26570  Biso   1.000  O
  O8       1.0000 0.98750  0.31280  0.41400  Biso   1.000  O
  O9       1.0000 0.17070  0.18800  0.15290  Biso   1.000  O
  O10      1.0000 0.87130  0.18290  0.14550  Biso   1.000  O
  O11      1.0000 0.81650  0.39710  0.28640  Biso   1.000  O
  C1       1.0000 0.82830  0.44010  0.19250  Biso   1.000  C
  O12      1.0000 0.70040  0.51310  0.38860  Biso   1.000  O
  C2       1.0000 0.60220  0.42310  0.45070  Biso   1.000  C
  C3       1.0000 0.84150  0.50940  0.15520  Biso   1.000  C
  H2       1.0000 0.83460  0.56980  0.16660  Biso   1.000  H
  C4       1.0000 0.19270  0.33400  0.12500  Biso   1.000  C
  C5       1.0000 0.24130  0.39240  0.08770  Biso   1.000  C
  H3       1.0000 0.26180  0.37120  0.05260  Biso   1.000  H
  C6       1.0000 0.60920  0.36130  0.49260  Biso   1.000  C
  H4       1.0000 0.68540  0.34240  0.50800  Biso   1.000  H
  C7       1.0000 0.81440  0.45870  0.25240  Biso   1.000  C
  C8       1.0000 0.17380  0.23690  0.11120  Biso   1.000  C
  C9       1.0000 0.38490  0.41870  0.44930  Biso   1.000  C
  O13      1.0000 0.27160  0.50530  0.38520  Biso   1.000  O
  C10      1.0000 0.26680  0.45370  0.42690  Biso   1.000  C
  C11      1.0000 0.49150  0.45290  0.42950  Biso   1.000  C
  H5       1.0000 0.48760  0.49690  0.40140  Biso   1.000  H
  C12      1.0000 0.71540  0.45960  0.42940  Biso   1.000  C
  C13      1.0000 0.16640  0.36610  0.17610  Biso   1.000  C
  H6       1.0000 0.13410  0.32620  0.20190  Biso   1.000  H
  C14      1.0000 0.83390  0.35190  0.17570  Biso   1.000  C
  H7       1.0000 0.82490  0.30500  0.20140  Biso   1.000  H
  C15      1.0000 0.86120  0.23550  0.10530  Biso   1.000  C
  C16      1.0000 0.87070  0.40090  0.08340  Biso   1.000  C
  H8       1.0000 0.88670  0.38760  0.04630  Biso   1.000  H
  C17      1.0000 0.39040  0.35630  0.49100  Biso   1.000  C
  H9       1.0000 0.31840  0.33370  0.50500  Biso   1.000  H
  C18      1.0000 0.85270  0.33240  0.12080  Biso   1.000  C
  O14      1.0000 0.17480  0.56130  0.26300  Biso   1.000  O
  O15      1.0000 0.11840  0.42580  0.28020  Biso   1.000  O
  C19      1.0000 0.18530  0.45410  0.19120  Biso   1.000  C
  C20      1.0000 0.15660  0.48160  0.24840  Biso   1.000  C
  C21      1.0000 0.23040  0.51100  0.15350  Biso   1.000  C
  H10      1.0000 0.24170  0.57200  0.16310  Biso   1.000  H
  C22      1.0000 0.26030  0.48220  0.10160  Biso   1.000  C
  C23      1.0000 0.31160  0.53990  0.06260  Biso   1.000  C
  C24      1.0000 0.87630  0.25430  0.41560  Biso   1.000  C
  H11      1.0000 0.83880  0.26290  0.45070  Biso   1.000  H
  H12      1.0000 0.89950  0.19160  0.41190  Biso   1.000  H
  H13      1.0000 0.81890  0.27060  0.38520  Biso   1.000  H
  C25      1.0000 0.51040  0.25980  0.55500  Biso   1.000  C
  C26      1.0000 0.50260  0.32650  0.51230  Biso   1.000  C
  C27      1.0000 0.88250  0.56150  0.06350  Biso   1.000  C
  C28      1.0000 0.86520  0.48870  0.10100  Biso   1.000  C
  C29      1.0000 0.35300  0.58650  0.02964  Biso   1.000  C
  H14      1.0000 0.38640  0.62410  0.00300  Biso   1.000  H
  C30      1.0000 0.52550  0.20220  0.58747  Biso   1.000  C
  H15      1.0000 0.53780  0.15570  0.61370  Biso   1.000  H
  C31      1.0000 0.89520  0.62500  0.03574  Biso   1.000  C
  H16      1.0000 0.90540  0.67610  0.01340  Biso   1.000  H
  H17      1.0000 0.07100  0.37900  0.53700  Biso   1.000  H
  H18      1.0000 0.93700  0.38400  0.53700  Biso   1.000  H
  H19      1.0000 0.03200  0.29000  0.38500  Biso   1.000  H
  O16      1.0000 0.81160  0.21940  0.44940  Biso   1.000  O
  Zn4      1.0000 0.86342  0.05694  0.15680  Biso   1.000  Zn
  Zn5      1.0000 0.00695  0.94509  0.05917  Biso   1.000  Zn
  Zn6      1.0000 0.17369  0.06004  0.15475  Biso   1.000  Zn
  O17      1.0000 0.99470  0.91660  0.97272  Biso   1.000  O
  O18      1.0000 0.13630  0.71330  0.44390  Biso   1.000  O
  O19      1.0000 0.18710  0.93730  0.04900  Biso   1.000  O
  O20      1.0000 0.82580  0.93120  0.05180  Biso   1.000  O
  O21      1.0000 0.01740  0.99990  0.13690  Biso   1.000  O
  H20      1.0000 0.02220  0.94610  0.16120  Biso   1.000  H
  O22      1.0000 0.83640  0.71270  0.43720  Biso   1.000  O
  O23      1.0000 0.19890  0.04150  0.23430  Biso   1.000  O
  O24      1.0000 0.01250  0.81280  0.08600  Biso   1.000  O
  O25      1.0000 0.82930  0.68800  0.34710  Biso   1.000  O
  O26      1.0000 0.12870  0.68290  0.35450  Biso   1.000  O
  O27      1.0000 0.18350  0.89710  0.21360  Biso   1.000  O
  C32      1.0000 0.17170  0.94010  0.30750  Biso   1.000  C
  O28      1.0000 0.29960  0.01310  0.11140  Biso   1.000  O
  C33      1.0000 0.39780  0.92310  0.04930  Biso   1.000  C
  C34      1.0000 0.15850  0.00940  0.34480  Biso   1.000  C
  H21      1.0000 0.16540  0.06980  0.33340  Biso   1.000  H
  C35      1.0000 0.80730  0.83400  0.37500  Biso   1.000  C
  C36      1.0000 0.75870  0.89240  0.41230  Biso   1.000  C
  H22      1.0000 0.73820  0.87120  0.44740  Biso   1.000  H
  C37      1.0000 0.39080  0.86130  0.00740  Biso   1.000  C
  H23      1.0000 0.31460  0.84240  0.99200  Biso   1.000  H
  C38      1.0000 0.18560  0.95870  0.24760  Biso   1.000  C
  C39      1.0000 0.82620  0.73690  0.38880  Biso   1.000  C
  C40      1.0000 0.61510  0.91870  0.05070  Biso   1.000  C
  O29      1.0000 0.72840  0.00530  0.11480  Biso   1.000  O
  C41      1.0000 0.73320  0.95370  0.07310  Biso   1.000  C
  C42      1.0000 0.50850  0.95290  0.07050  Biso   1.000  C
  H24      1.0000 0.51240  0.99690  0.09860  Biso   1.000  H
  C43      1.0000 0.28460  0.95960  0.07060  Biso   1.000  C
  C44      1.0000 0.83360  0.86610  0.32390  Biso   1.000  C
  H25      1.0000 0.86590  0.82620  0.29810  Biso   1.000  H
  C45      1.0000 0.16610  0.85190  0.32430  Biso   1.000  C
  H26      1.0000 0.17510  0.80500  0.29860  Biso   1.000  H
  C46      1.0000 0.13880  0.73550  0.39470  Biso   1.000  C
  C47      1.0000 0.12930  0.90090  0.41660  Biso   1.000  C
  H27      1.0000 0.11330  0.88760  0.45370  Biso   1.000  H
  C48      1.0000 0.60960  0.85630  0.00900  Biso   1.000  C
  H28      1.0000 0.68160  0.83370  0.99500  Biso   1.000  H
  C49      1.0000 0.14730  0.83240  0.37920  Biso   1.000  C
  O30      1.0000 0.82520  0.06130  0.23700  Biso   1.000  O
  O31      1.0000 0.88160  0.92580  0.21980  Biso   1.000  O
  C50      1.0000 0.81470  0.95410  0.30880  Biso   1.000  C
  C51      1.0000 0.84340  0.98160  0.25160  Biso   1.000  C
  C52      1.0000 0.76960  0.01100  0.34650  Biso   1.000  C
  H29      1.0000 0.75830  0.07200  0.33690  Biso   1.000  H
  C53      1.0000 0.73970  0.98220  0.39840  Biso   1.000  C
  C54      1.0000 0.68840  0.03990  0.43740  Biso   1.000  C
  C55      1.0000 0.12370  0.75430  0.08440  Biso   1.000  C
  H30      1.0000 0.16120  0.76290  0.04930  Biso   1.000  H
  H31      1.0000 0.10050  0.69160  0.08810  Biso   1.000  H
  H32      1.0000 0.18110  0.77060  0.11480  Biso   1.000  H
  C56      1.0000 0.48960  0.75980  0.94500  Biso   1.000  C
  C57      1.0000 0.49740  0.82650  0.98770  Biso   1.000  C
  C58      1.0000 0.11750  0.06150  0.43650  Biso   1.000  C
  C59      1.0000 0.13480  0.98870  0.39900  Biso   1.000  C
  C60      1.0000 0.64700  0.08650  0.47036  Biso   1.000  C
  H33      1.0000 0.61360  0.12410  0.49700  Biso   1.000  H
  C61      1.0000 0.47450  0.70220  0.91253  Biso   1.000  C
  H34      1.0000 0.46220  0.65570  0.88630  Biso   1.000  H
  C62      1.0000 0.10480  0.12500  0.46426  Biso   1.000  C
  H35      1.0000 0.09460  0.17610  0.48660  Biso   1.000  H
  H36      1.0000 0.92900  0.87900  0.96300  Biso   1.000  H
  H37      1.0000 0.06300  0.88400  0.96300  Biso   1.000  H
  H38      1.0000 0.96800  0.79000  0.11500  Biso   1.000  H
  O32      1.0000 0.18840  0.71940  0.05060  Biso   1.000  O
  Zn7      1.0000 0.86342  0.44306  0.65680  Biso   1.000  Zn
  Zn8      1.0000 0.00695  0.55491  0.55917  Biso   1.000  Zn
  Zn9      1.0000 0.17369  0.43996  0.65475  Biso   1.000  Zn
  O33      1.0000 0.99470  0.58340  0.47272  Biso   1.000  O
  O34      1.0000 0.13630  0.78670  0.94390  Biso   1.000  O
  O35      1.0000 0.18710  0.56270  0.54900  Biso   1.000  O
  O36      1.0000 0.82580  0.56880  0.55180  Biso   1.000  O
  O37      1.0000 0.01740  0.50010  0.63690  Biso   1.000  O
  H39      1.0000 0.02220  0.55390  0.66120  Biso   1.000  H
  O38      1.0000 0.83640  0.78730  0.93720  Biso   1.000  O
  O39      1.0000 0.19890  0.45850  0.73430  Biso   1.000  O
  O40      1.0000 0.01250  0.68720  0.58600  Biso   1.000  O
  O41      1.0000 0.82930  0.81200  0.84710  Biso   1.000  O
  O42      1.0000 0.12870  0.81710  0.85450  Biso   1.000  O
  O43      1.0000 0.18350  0.60290  0.71360  Biso   1.000  O
  C63      1.0000 0.17170  0.55990  0.80750  Biso   1.000  C
  O44      1.0000 0.29960  0.48690  0.61140  Biso   1.000  O
  C64      1.0000 0.39780  0.57690  0.54930  Biso   1.000  C
  C65      1.0000 0.15850  0.49060  0.84480  Biso   1.000  C
  H40      1.0000 0.16540  0.43020  0.83340  Biso   1.000  H
  C66      1.0000 0.80730  0.66600  0.87500  Biso   1.000  C
  C67      1.0000 0.75870  0.60760  0.91230  Biso   1.000  C
  H41      1.0000 0.73820  0.62880  0.94740  Biso   1.000  H
  C68      1.0000 0.39080  0.63870  0.50740  Biso   1.000  C
  H42      1.0000 0.31460  0.65760  0.49200  Biso   1.000  H
  C69      1.0000 0.18560  0.54130  0.74760  Biso   1.000  C
  C70      1.0000 0.82620  0.76310  0.88880  Biso   1.000  C
  C71      1.0000 0.61510  0.58130  0.55070  Biso   1.000  C
  O45      1.0000 0.72840  0.49470  0.61480  Biso   1.000  O
  C72      1.0000 0.73320  0.54630  0.57310  Biso   1.000  C
  C73      1.0000 0.50850  0.54710  0.57050  Biso   1.000  C
  H43      1.0000 0.51240  0.50310  0.59860  Biso   1.000  H
  C74      1.0000 0.28460  0.54040  0.57060  Biso   1.000  C
  C75      1.0000 0.83360  0.63390  0.82390  Biso   1.000  C
  H44      1.0000 0.86590  0.67380  0.79810  Biso   1.000  H
  C76      1.0000 0.16610  0.64810  0.82430  Biso   1.000  C
  H45      1.0000 0.17510  0.69500  0.79860  Biso   1.000  H
  C77      1.0000 0.13880  0.76450  0.89470  Biso   1.000  C
  C78      1.0000 0.12930  0.59910  0.91660  Biso   1.000  C
  H46      1.0000 0.11330  0.61240  0.95370  Biso   1.000  H
  C79      1.0000 0.60960  0.64370  0.50900  Biso   1.000  C
  H47      1.0000 0.68160  0.66630  0.49500  Biso   1.000  H
  C80      1.0000 0.14730  0.66760  0.87920  Biso   1.000  C
  O46      1.0000 0.82520  0.43870  0.73700  Biso   1.000  O
  O47      1.0000 0.88160  0.57420  0.71980  Biso   1.000  O
  C81      1.0000 0.81470  0.54590  0.80880  Biso   1.000  C
  C82      1.0000 0.84340  0.51840  0.75160  Biso   1.000  C
  C83      1.0000 0.76960  0.48900  0.84650  Biso   1.000  C
  H48      1.0000 0.75830  0.42800  0.83690  Biso   1.000  H
  C84      1.0000 0.73970  0.51780  0.89840  Biso   1.000  C
  C85      1.0000 0.68840  0.46010  0.93740  Biso   1.000  C
  C86      1.0000 0.12370  0.74570  0.58440  Biso   1.000  C
  H49      1.0000 0.16120  0.73710  0.54930  Biso   1.000  H
  H50      1.0000 0.10050  0.80840  0.58810  Biso   1.000  H
  H51      1.0000 0.18110  0.72940  0.61480  Biso   1.000  H
  C87      1.0000 0.48960  0.74020  0.44500  Biso   1.000  C
  C88      1.0000 0.49740  0.67350  0.48770  Biso   1.000  C
  C89      1.0000 0.11750  0.43850  0.93650  Biso   1.000  C
  C90      1.0000 0.13480  0.51130  0.89900  Biso   1.000  C
  C91      1.0000 0.64700  0.41350  0.97036  Biso   1.000  C
  H52      1.0000 0.61360  0.37590  0.99700  Biso   1.000  H
  C92      1.0000 0.47450  0.79780  0.41253  Biso   1.000  C
  H53      1.0000 0.46220  0.84430  0.38630  Biso   1.000  H
  C93      1.0000 0.10480  0.37500  0.96426  Biso   1.000  C
  H54      1.0000 0.09460  0.32390  0.98660  Biso   1.000  H
  H55      1.0000 0.92900  0.62100  0.46300  Biso   1.000  H
  H56      1.0000 0.06300  0.61600  0.46300  Biso   1.000  H
  H57      1.0000 0.96800  0.71000  0.61500  Biso   1.000  H
  O48      1.0000 0.18840  0.78060  0.55060  Biso   1.000  O
  Zn10     1.0000 0.13658  0.94306  0.84320  Biso   1.000  Zn
  Zn11     1.0000 0.99305  0.05491  0.94083  Biso   1.000  Zn
  Zn12     1.0000 0.82631  0.93996  0.84525  Biso   1.000  Zn
  O49      1.0000 0.00530  0.08340  0.02728  Biso   1.000  O
  O50      1.0000 0.86370  0.28670  0.55610  Biso   1.000  O
  O51      1.0000 0.81290  0.06270  0.95100  Biso   1.000  O
  O52      1.0000 0.17420  0.06880  0.94820  Biso   1.000  O
  O53      1.0000 0.98260  0.00010  0.86310  Biso   1.000  O
  H58      1.0000 0.97780  0.05390  0.83880  Biso   1.000  H
  O54      1.0000 0.16360  0.28730  0.56280  Biso   1.000  O
  O55      1.0000 0.80110  0.95850  0.76570  Biso   1.000  O
  O56      1.0000 0.98750  0.18720  0.91400  Biso   1.000  O
  O57      1.0000 0.17070  0.31200  0.65290  Biso   1.000  O
  O58      1.0000 0.87130  0.31710  0.64550  Biso   1.000  O
  O59      1.0000 0.81650  0.10290  0.78640  Biso   1.000  O
  C94      1.0000 0.82830  0.05990  0.69250  Biso   1.000  C
  O60      1.0000 0.70040  0.98690  0.88860  Biso   1.000  O
  C95      1.0000 0.60220  0.07690  0.95070  Biso   1.000  C
  C96      1.0000 0.84150  0.99060  0.65520  Biso   1.000  C
  H59      1.0000 0.83460  0.93020  0.66660  Biso   1.000  H
  C97      1.0000 0.19270  0.16600  0.62500  Biso   1.000  C
  C98      1.0000 0.24130  0.10760  0.58770  Biso   1.000  C
  H60      1.0000 0.26180  0.12880  0.55260  Biso   1.000  H
  C99      1.0000 0.60920  0.13870  0.99260  Biso   1.000  C
  H61      1.0000 0.68540  0.15760  0.00800  Biso   1.000  H
  C100     1.0000 0.81440  0.04130  0.75240  Biso   1.000  C
  C101     1.0000 0.17380  0.26310  0.61120  Biso   1.000  C
  C102     1.0000 0.38490  0.08130  0.94930  Biso   1.000  C
  O61      1.0000 0.27160  0.99470  0.88520  Biso   1.000  O
  C103     1.0000 0.26680  0.04630  0.92690  Biso   1.000  C
  C104     1.0000 0.49150  0.04710  0.92950  Biso   1.000  C
  H62      1.0000 0.48760  0.00310  0.90140  Biso   1.000  H
  C105     1.0000 0.71540  0.04040  0.92940  Biso   1.000  C
  C106     1.0000 0.16640  0.13390  0.67610  Biso   1.000  C
  H63      1.0000 0.13410  0.17380  0.70190  Biso   1.000  H
  C107     1.0000 0.83390  0.14810  0.67570  Biso   1.000  C
  H64      1.0000 0.82490  0.19500  0.70140  Biso   1.000  H
  C108     1.0000 0.86120  0.26450  0.60530  Biso   1.000  C
  C109     1.0000 0.87070  0.09910  0.58340  Biso   1.000  C
  H65      1.0000 0.88670  0.11240  0.54630  Biso   1.000  H
  C110     1.0000 0.39040  0.14370  0.99100  Biso   1.000  C
  H66      1.0000 0.31840  0.16630  0.00500  Biso   1.000  H
  C111     1.0000 0.85270  0.16760  0.62080  Biso   1.000  C
  O62      1.0000 0.17480  0.93870  0.76300  Biso   1.000  O
  O63      1.0000 0.11840  0.07420  0.78020  Biso   1.000  O
  C112     1.0000 0.18530  0.04590  0.69120  Biso   1.000  C
  C113     1.0000 0.15660  0.01840  0.74840  Biso   1.000  C
  C114     1.0000 0.23040  0.98900  0.65350  Biso   1.000  C
  H67      1.0000 0.24170  0.92800  0.66310  Biso   1.000  H
  C115     1.0000 0.26030  0.01780  0.60160  Biso   1.000  C
  C116     1.0000 0.31160  0.96010  0.56260  Biso   1.000  C
  C117     1.0000 0.87630  0.24570  0.91560  Biso   1.000  C
  H68      1.0000 0.83880  0.23710  0.95070  Biso   1.000  H
  H69      1.0000 0.89950  0.30840  0.91190  Biso   1.000  H
  H70      1.0000 0.81890  0.22940  0.88520  Biso   1.000  H
  C118     1.0000 0.51040  0.24020  0.05500  Biso   1.000  C
  C119     1.0000 0.50260  0.17350  0.01230  Biso   1.000  C
  C120     1.0000 0.88250  0.93850  0.56350  Biso   1.000  C
  C121     1.0000 0.86520  0.01130  0.60100  Biso   1.000  C
  C122     1.0000 0.35300  0.91350  0.52964  Biso   1.000  C
  H71      1.0000 0.38640  0.87590  0.50300  Biso   1.000  H
  C123     1.0000 0.52550  0.29780  0.08747  Biso   1.000  C
  H72      1.0000 0.53780  0.34430  0.11370  Biso   1.000  H
  C124     1.0000 0.89520  0.87500  0.53574  Biso   1.000  C
  H73      1.0000 0.90540  0.82390  0.51340  Biso   1.000  H
  H74      1.0000 0.07100  0.12100  0.03700  Biso   1.000  H
  H75      1.0000 0.93700  0.11600  0.03700  Biso   1.000  H
  H76      1.0000 0.03200  0.21000  0.88500  Biso   1.000  H
  O64      1.0000 0.81160  0.28060  0.94940  Biso   1.000  O
