data_image0
_cell_length_a       18.6233
_cell_length_b       18.6233
_cell_length_c       18.6233
_cell_angle_alpha    90
_cell_angle_beta     90
_cell_angle_gamma    90

_symmetry_space_group_name_H-M    "P 1"
_symmetry_int_tables_number       1

loop_
  _symmetry_equiv_pos_as_xyz
  'x, y, z'

loop_
  _atom_site_label
  _atom_site_occupancy
  _atom_site_fract_x
  _atom_site_fract_y
  _atom_site_fract_z
  _atom_site_thermal_displace_type
  _atom_site_B_iso_or_equiv
  _atom_site_type_symbol
  N1       1.0000 0.36899  0.17389  0.08854  Biso   1.000  N
  N2       1.0000 0.42462  0.12873  0.07781  Biso   1.000  N
  N3       1.0000 0.63101  0.82611  0.08854  Biso   1.000  N
  N4       1.0000 0.57538  0.87127  0.07781  Biso   1.000  N
  N5       1.0000 0.63101  0.17389  0.91146  Biso   1.000  N
  N6       1.0000 0.57538  0.12873  0.92219  Biso   1.000  N
  N7       1.0000 0.36899  0.82611  0.91146  Biso   1.000  N
  N8       1.0000 0.42462  0.87127  0.92219  Biso   1.000  N
  N9       1.0000 0.08854  0.36899  0.17389  Biso   1.000  N
  N10      1.0000 0.07781  0.42462  0.12873  Biso   1.000  N
  N11      1.0000 0.08854  0.63101  0.82611  Biso   1.000  N
  N12      1.0000 0.07781  0.57538  0.87127  Biso   1.000  N
  N13      1.0000 0.91146  0.63101  0.17389  Biso   1.000  N
  N14      1.0000 0.92219  0.57538  0.12873  Biso   1.000  N
  N15      1.0000 0.91146  0.36899  0.82611  Biso   1.000  N
  N16      1.0000 0.92219  0.42462  0.87127  Biso   1.000  N
  N17      1.0000 0.17389  0.08854  0.36899  Biso   1.000  N
  N18      1.0000 0.12873  0.07781  0.42462  Biso   1.000  N
  N19      1.0000 0.82611  0.08854  0.63101  Biso   1.000  N
  N20      1.0000 0.87127  0.07781  0.57538  Biso   1.000  N
  N21      1.0000 0.17389  0.91146  0.63101  Biso   1.000  N
  N22      1.0000 0.12873  0.92219  0.57538  Biso   1.000  N
  N23      1.0000 0.82611  0.91146  0.36899  Biso   1.000  N
  N24      1.0000 0.87127  0.92219  0.42462  Biso   1.000  N
  N25      1.0000 0.17389  0.36899  0.91146  Biso   1.000  N
  N26      1.0000 0.12873  0.42462  0.92219  Biso   1.000  N
  N27      1.0000 0.82611  0.63101  0.91146  Biso   1.000  N
  N28      1.0000 0.87127  0.57538  0.92219  Biso   1.000  N
  N29      1.0000 0.17389  0.63101  0.08854  Biso   1.000  N
  N30      1.0000 0.12873  0.57538  0.07781  Biso   1.000  N
  N31      1.0000 0.82611  0.36899  0.08854  Biso   1.000  N
  N32      1.0000 0.87127  0.42462  0.07781  Biso   1.000  N
  N33      1.0000 0.36899  0.08854  0.82611  Biso   1.000  N
  N34      1.0000 0.42462  0.07781  0.87127  Biso   1.000  N
  N35      1.0000 0.63101  0.08854  0.17389  Biso   1.000  N
  N36      1.0000 0.57538  0.07781  0.12873  Biso   1.000  N
  N37      1.0000 0.63101  0.91146  0.82611  Biso   1.000  N
  N38      1.0000 0.57538  0.92219  0.87127  Biso   1.000  N
  N39      1.0000 0.36899  0.91146  0.17389  Biso   1.000  N
  N40      1.0000 0.42462  0.92219  0.12873  Biso   1.000  N
  N41      1.0000 0.08854  0.17389  0.63101  Biso   1.000  N
  N42      1.0000 0.07781  0.12873  0.57538  Biso   1.000  N
  N43      1.0000 0.08854  0.82611  0.36899  Biso   1.000  N
  N44      1.0000 0.07781  0.87127  0.42462  Biso   1.000  N
  N45      1.0000 0.91146  0.17389  0.36899  Biso   1.000  N
  N46      1.0000 0.92219  0.12873  0.42462  Biso   1.000  N
  N47      1.0000 0.91146  0.82611  0.63101  Biso   1.000  N
  N48      1.0000 0.92219  0.87127  0.57538  Biso   1.000  N
  N49      1.0000 0.63101  0.82611  0.91146  Biso   1.000  N
  N50      1.0000 0.57538  0.87127  0.92219  Biso   1.000  N
  N51      1.0000 0.36899  0.17389  0.91146  Biso   1.000  N
  N52      1.0000 0.42462  0.12873  0.92219  Biso   1.000  N
  N53      1.0000 0.36899  0.82611  0.08854  Biso   1.000  N
  N54      1.0000 0.42462  0.87127  0.07781  Biso   1.000  N
  N55      1.0000 0.63101  0.17389  0.08854  Biso   1.000  N
  N56      1.0000 0.57538  0.12873  0.07781  Biso   1.000  N
  N57      1.0000 0.91146  0.63101  0.82611  Biso   1.000  N
  N58      1.0000 0.92219  0.57538  0.87127  Biso   1.000  N
  N59      1.0000 0.91146  0.36899  0.17389  Biso   1.000  N
  N60      1.0000 0.92219  0.42462  0.12873  Biso   1.000  N
  N61      1.0000 0.08854  0.36899  0.82611  Biso   1.000  N
  N62      1.0000 0.07781  0.42462  0.87127  Biso   1.000  N
  N63      1.0000 0.08854  0.63101  0.17389  Biso   1.000  N
  N64      1.0000 0.07781  0.57538  0.12873  Biso   1.000  N
  N65      1.0000 0.82611  0.91146  0.63101  Biso   1.000  N
  N66      1.0000 0.87127  0.92219  0.57538  Biso   1.000  N
  N67      1.0000 0.17389  0.91146  0.36899  Biso   1.000  N
  N68      1.0000 0.12873  0.92219  0.42462  Biso   1.000  N
  N69      1.0000 0.82611  0.08854  0.36899  Biso   1.000  N
  N70      1.0000 0.87127  0.07781  0.42462  Biso   1.000  N
  N71      1.0000 0.17389  0.08854  0.63101  Biso   1.000  N
  N72      1.0000 0.12873  0.07781  0.57538  Biso   1.000  N
  N73      1.0000 0.82611  0.63101  0.08854  Biso   1.000  N
  N74      1.0000 0.87127  0.57538  0.07781  Biso   1.000  N
  N75      1.0000 0.17389  0.36899  0.08854  Biso   1.000  N
  N76      1.0000 0.12873  0.42462  0.07781  Biso   1.000  N
  N77      1.0000 0.82611  0.36899  0.91146  Biso   1.000  N
  N78      1.0000 0.87127  0.42462  0.92219  Biso   1.000  N
  N79      1.0000 0.17389  0.63101  0.91146  Biso   1.000  N
  N80      1.0000 0.12873  0.57538  0.92219  Biso   1.000  N
  N81      1.0000 0.63101  0.91146  0.17389  Biso   1.000  N
  N82      1.0000 0.57538  0.92219  0.12873  Biso   1.000  N
  N83      1.0000 0.36899  0.91146  0.82611  Biso   1.000  N
  N84      1.0000 0.42462  0.92219  0.87127  Biso   1.000  N
  N85      1.0000 0.36899  0.08854  0.17389  Biso   1.000  N
  N86      1.0000 0.42462  0.07781  0.12873  Biso   1.000  N
  N87      1.0000 0.63101  0.08854  0.82611  Biso   1.000  N
  N88      1.0000 0.57538  0.07781  0.87127  Biso   1.000  N
  N89      1.0000 0.91146  0.82611  0.36899  Biso   1.000  N
  N90      1.0000 0.92219  0.87127  0.42462  Biso   1.000  N
  N91      1.0000 0.91146  0.17389  0.63101  Biso   1.000  N
  N92      1.0000 0.92219  0.12873  0.57538  Biso   1.000  N
  N93      1.0000 0.08854  0.82611  0.63101  Biso   1.000  N
  N94      1.0000 0.07781  0.87127  0.57538  Biso   1.000  N
  N95      1.0000 0.08854  0.17389  0.36899  Biso   1.000  N
  N96      1.0000 0.07781  0.12873  0.42462  Biso   1.000  N
  Cu1      1.0000 0.50000  0.13144  0.00000  Biso   1.000  Cu
  Cu2      1.0000 0.50000  0.86856  0.00000  Biso   1.000  Cu
  Cu3      1.0000 0.00000  0.50000  0.13144  Biso   1.000  Cu
  Cu4      1.0000 0.00000  0.50000  0.86856  Biso   1.000  Cu
  Cu5      1.0000 0.13144  0.00000  0.50000  Biso   1.000  Cu
  Cu6      1.0000 0.86856  0.00000  0.50000  Biso   1.000  Cu
  Cu7      1.0000 0.13144  0.50000  0.00000  Biso   1.000  Cu
  Cu8      1.0000 0.86856  0.50000  0.00000  Biso   1.000  Cu
  Cu9      1.0000 0.50000  0.00000  0.86856  Biso   1.000  Cu
  Cu10     1.0000 0.50000  0.00000  0.13144  Biso   1.000  Cu
  Cu11     1.0000 0.00000  0.13144  0.50000  Biso   1.000  Cu
  Cu12     1.0000 0.00000  0.86856  0.50000  Biso   1.000  Cu
  C1       1.0000 0.24020  0.24020  0.14830  Biso   1.000  C
  H1       1.0000 0.26040  0.26040  0.10730  Biso   1.000  H
  C2       1.0000 0.75980  0.75980  0.14830  Biso   1.000  C
  H2       1.0000 0.73960  0.73960  0.10730  Biso   1.000  H
  C3       1.0000 0.75980  0.24020  0.85170  Biso   1.000  C
  H3       1.0000 0.73960  0.26040  0.89270  Biso   1.000  H
  C4       1.0000 0.24020  0.75980  0.85170  Biso   1.000  C
  H4       1.0000 0.26040  0.73960  0.89270  Biso   1.000  H
  C5       1.0000 0.14830  0.24020  0.24020  Biso   1.000  C
  H5       1.0000 0.10730  0.26040  0.26040  Biso   1.000  H
  C6       1.0000 0.14830  0.75980  0.75980  Biso   1.000  C
  H6       1.0000 0.10730  0.73960  0.73960  Biso   1.000  H
  C7       1.0000 0.85170  0.75980  0.24020  Biso   1.000  C
  H7       1.0000 0.89270  0.73960  0.26040  Biso   1.000  H
  C8       1.0000 0.85170  0.24020  0.75980  Biso   1.000  C
  H8       1.0000 0.89270  0.26040  0.73960  Biso   1.000  H
  C9       1.0000 0.24020  0.14830  0.24020  Biso   1.000  C
  H9       1.0000 0.26040  0.10730  0.26040  Biso   1.000  H
  C10      1.0000 0.75980  0.14830  0.75980  Biso   1.000  C
  H10      1.0000 0.73960  0.10730  0.73960  Biso   1.000  H
  C11      1.0000 0.24020  0.85170  0.75980  Biso   1.000  C
  H11      1.0000 0.26040  0.89270  0.73960  Biso   1.000  H
  C12      1.0000 0.75980  0.85170  0.24020  Biso   1.000  C
  H12      1.0000 0.73960  0.89270  0.26040  Biso   1.000  H
  C13      1.0000 0.24020  0.24020  0.85170  Biso   1.000  C
  H13      1.0000 0.26040  0.26040  0.89270  Biso   1.000  H
  C14      1.0000 0.75980  0.75980  0.85170  Biso   1.000  C
  H14      1.0000 0.73960  0.73960  0.89270  Biso   1.000  H
  C15      1.0000 0.24020  0.75980  0.14830  Biso   1.000  C
  H15      1.0000 0.26040  0.73960  0.10730  Biso   1.000  H
  C16      1.0000 0.75980  0.24020  0.14830  Biso   1.000  C
  H16      1.0000 0.73960  0.26040  0.10730  Biso   1.000  H
  C17      1.0000 0.24020  0.14830  0.75980  Biso   1.000  C
  H17      1.0000 0.26040  0.10730  0.73960  Biso   1.000  H
  C18      1.0000 0.75980  0.14830  0.24020  Biso   1.000  C
  H18      1.0000 0.73960  0.10730  0.26040  Biso   1.000  H
  C19      1.0000 0.75980  0.85170  0.75980  Biso   1.000  C
  H19      1.0000 0.73960  0.89270  0.73960  Biso   1.000  H
  C20      1.0000 0.24020  0.85170  0.24020  Biso   1.000  C
  H20      1.0000 0.26040  0.89270  0.26040  Biso   1.000  H
  C21      1.0000 0.14830  0.24020  0.75980  Biso   1.000  C
  H21      1.0000 0.10730  0.26040  0.73960  Biso   1.000  H
  C22      1.0000 0.14830  0.75980  0.24020  Biso   1.000  C
  H22      1.0000 0.10730  0.73960  0.26040  Biso   1.000  H
  C23      1.0000 0.85170  0.24020  0.24020  Biso   1.000  C
  H23      1.0000 0.89270  0.26040  0.26040  Biso   1.000  H
  C24      1.0000 0.85170  0.75980  0.75980  Biso   1.000  C
  H24      1.0000 0.89270  0.73960  0.73960  Biso   1.000  H
  C25      1.0000 0.27090  0.17920  0.17920  Biso   1.000  C
  C26      1.0000 0.33620  0.14710  0.14710  Biso   1.000  C
  C27      1.0000 0.72910  0.82080  0.17920  Biso   1.000  C
  C28      1.0000 0.66380  0.85290  0.14710  Biso   1.000  C
  C29      1.0000 0.72910  0.17920  0.82080  Biso   1.000  C
  C30      1.0000 0.66380  0.14710  0.85290  Biso   1.000  C
  C31      1.0000 0.27090  0.82080  0.82080  Biso   1.000  C
  C32      1.0000 0.33620  0.85290  0.85290  Biso   1.000  C
  C33      1.0000 0.17920  0.27090  0.17920  Biso   1.000  C
  C34      1.0000 0.14710  0.33620  0.14710  Biso   1.000  C
  C35      1.0000 0.17920  0.72910  0.82080  Biso   1.000  C
  C36      1.0000 0.14710  0.66380  0.85290  Biso   1.000  C
  C37      1.0000 0.82080  0.72910  0.17920  Biso   1.000  C
  C38      1.0000 0.85290  0.66380  0.14710  Biso   1.000  C
  C39      1.0000 0.82080  0.27090  0.82080  Biso   1.000  C
  C40      1.0000 0.85290  0.33620  0.85290  Biso   1.000  C
  C41      1.0000 0.17920  0.17920  0.27090  Biso   1.000  C
  C42      1.0000 0.14710  0.14710  0.33620  Biso   1.000  C
  C43      1.0000 0.82080  0.17920  0.72910  Biso   1.000  C
  C44      1.0000 0.85290  0.14710  0.66380  Biso   1.000  C
  C45      1.0000 0.17920  0.82080  0.72910  Biso   1.000  C
  C46      1.0000 0.14710  0.85290  0.66380  Biso   1.000  C
  C47      1.0000 0.82080  0.82080  0.27090  Biso   1.000  C
  C48      1.0000 0.85290  0.85290  0.33620  Biso   1.000  C
  C49      1.0000 0.17920  0.27090  0.82080  Biso   1.000  C
  C50      1.0000 0.14710  0.33620  0.85290  Biso   1.000  C
  C51      1.0000 0.82080  0.72910  0.82080  Biso   1.000  C
  C52      1.0000 0.85290  0.66380  0.85290  Biso   1.000  C
  C53      1.0000 0.17920  0.72910  0.17920  Biso   1.000  C
  C54      1.0000 0.14710  0.66380  0.14710  Biso   1.000  C
  C55      1.0000 0.82080  0.27090  0.17920  Biso   1.000  C
  C56      1.0000 0.85290  0.33620  0.14710  Biso   1.000  C
  C57      1.0000 0.27090  0.17920  0.82080  Biso   1.000  C
  C58      1.0000 0.33620  0.14710  0.85290  Biso   1.000  C
  C59      1.0000 0.72910  0.17920  0.17920  Biso   1.000  C
  C60      1.0000 0.66380  0.14710  0.14710  Biso   1.000  C
  C61      1.0000 0.72910  0.82080  0.82080  Biso   1.000  C
  C62      1.0000 0.66380  0.85290  0.85290  Biso   1.000  C
  C63      1.0000 0.27090  0.82080  0.17920  Biso   1.000  C
  C64      1.0000 0.33620  0.85290  0.14710  Biso   1.000  C
  C65      1.0000 0.17920  0.17920  0.72910  Biso   1.000  C
  C66      1.0000 0.14710  0.14710  0.66380  Biso   1.000  C
  C67      1.0000 0.17920  0.82080  0.27090  Biso   1.000  C
  C68      1.0000 0.14710  0.85290  0.33620  Biso   1.000  C
  C69      1.0000 0.82080  0.17920  0.27090  Biso   1.000  C
  C70      1.0000 0.85290  0.14710  0.33620  Biso   1.000  C
  C71      1.0000 0.82080  0.82080  0.72910  Biso   1.000  C
  C72      1.0000 0.85290  0.85290  0.66380  Biso   1.000  C
