data_BOWQAG_clean
_audit_creation_date              2015-05-06
_audit_creation_method            'Materials Studio'
_symmetry_space_group_name_H-M    'P1'
_symmetry_Int_Tables_number       1
_symmetry_cell_setting            triclinic
loop_
_symmetry_equiv_pos_as_xyz
  x,y,z
_cell_length_a                    6.7186
_cell_length_b                    17.0820
_cell_length_c                    17.3520
_cell_angle_alpha                 90.0000
_cell_angle_beta                  98.7700
_cell_angle_gamma                 90.0000
loop_
_atom_site_label
_atom_site_type_symbol
_atom_site_fract_x
_atom_site_fract_y
_atom_site_fract_z
_atom_site_U_iso_or_equiv
_atom_site_adp_type
_atom_site_occupancy
Zn1    Zn    0.27804   0.51831   0.29612   0.01267  Uiso   1.00
H2     H     0.64070   0.55040   0.21880   0.01267  Uiso   1.00
H3     H     0.73480   0.54580   0.09700   0.01267  Uiso   1.00
H4     H     0.18380   0.46110   0.01260   0.01267  Uiso   1.00
H5     H     0.10030   0.46990   0.13600   0.01267  Uiso   1.00
H6     H     0.50060   0.40180   0.40770   0.01267  Uiso   1.00
H7     H     0.80720   0.39040   0.48780   0.01267  Uiso   1.00
H8     H     0.90940   0.61950   0.44940   0.01267  Uiso   1.00
H9     H     0.60200   0.62440   0.36910   0.01267  Uiso   1.00
H10    H     0.59770   0.36430   0.16600   0.01267  Uiso   1.00
H11    H     0.66690   0.24780   0.37190   0.01267  Uiso   1.00
H12    H     0.35000   0.19060   0.33710   0.01267  Uiso   1.00
H13    H     0.28440   0.30540   0.13030   0.01267  Uiso   1.00
C14    C     0.54580   0.53264   0.17615   0.01267  Uiso   1.00
C15    C     0.60330   0.52945   0.10358   0.01267  Uiso   1.00
C16    C     0.47120   0.50252   0.03962   0.01267  Uiso   1.00
C17    C     0.28030   0.48010   0.05408   0.01267  Uiso   1.00
C18    C     0.23130   0.48541   0.12784   0.01267  Uiso   1.00
C19    C     0.58660   0.44615   0.41528   0.01267  Uiso   1.00
C20    C     0.76950   0.43908   0.46336   0.01267  Uiso   1.00
C21    C     0.89880   0.50311   0.47605   0.01267  Uiso   1.00
C22    C     0.82980   0.57347   0.44067   0.01267  Uiso   1.00
C23    C     0.64570   0.57610   0.39294   0.01267  Uiso   1.00
C24    C     0.85870   0.35007   0.29717   0.01267  Uiso   1.00
C25    C     0.66310   0.31187   0.27274   0.01267  Uiso   1.00
C26    C     0.54790   0.32879   0.20065   0.01267  Uiso   1.00
C27    C     0.58870   0.25989   0.32301   0.01267  Uiso   1.00
C28    C     0.09150   0.20307   0.20639   0.01267  Uiso   1.00
C29    C     0.28650   0.24244   0.22985   0.01267  Uiso   1.00
C30    C     0.40080   0.22555   0.30219   0.01267  Uiso   1.00
C31    C     0.36150   0.29395   0.17959   0.01267  Uiso   1.00
N32    N     0.36200   0.51188   0.18944   0.01267  Uiso   1.00
N33    N     0.52550   0.51320   0.37879   0.01267  Uiso   1.00
N34    N     0.09950   0.42917   0.30878   0.01267  Uiso   1.00
N35    N     0.14450   0.37608   0.36381   0.01267  Uiso   1.00
N36    N     0.99400   0.32474   0.35766   0.01267  Uiso   1.00
N37    N     0.92050   0.41476   0.26520   0.01267  Uiso   1.00
N38    N     0.85850   0.12003   0.19413   0.01267  Uiso   1.00
N39    N     0.80370   0.17532   0.14189   0.01267  Uiso   1.00
N40    N     0.94990   0.22891   0.14851   0.01267  Uiso   1.00
N41    N     0.03920   0.13557   0.23589   0.01267  Uiso   1.00
H42    H     0.03676   0.72907   0.61029   0.00000  Uiso   1.00
H43    H     0.02704   0.71533   0.88176   0.00000  Uiso   1.00
Zn44   Zn    0.72196   0.01831   0.20388   0.01267  Uiso   1.00
H45    H     0.35930   0.05040   0.28120   0.01267  Uiso   1.00
H46    H     0.26520   0.04580   0.40300   0.01267  Uiso   1.00
H47    H     0.81620   0.96110   0.48740   0.01267  Uiso   1.00
H48    H     0.89970   0.96990   0.36400   0.01267  Uiso   1.00
H49    H     0.49940   0.90180   0.09230   0.01267  Uiso   1.00
H50    H     0.19280   0.89040   0.01220   0.01267  Uiso   1.00
H51    H     0.09060   0.11950   0.05060   0.01267  Uiso   1.00
H52    H     0.39800   0.12440   0.13090   0.01267  Uiso   1.00
H53    H     0.40230   0.86430   0.33400   0.01267  Uiso   1.00
H54    H     0.33310   0.74780   0.12810   0.01267  Uiso   1.00
H55    H     0.65000   0.69060   0.16290   0.01267  Uiso   1.00
H56    H     0.71560   0.80540   0.36970   0.01267  Uiso   1.00
C57    C     0.45420   0.03264   0.32385   0.01267  Uiso   1.00
C58    C     0.39670   0.02945   0.39642   0.01267  Uiso   1.00
C59    C     0.52880   0.00252   0.46038   0.01267  Uiso   1.00
C60    C     0.71970   0.98010   0.44592   0.01267  Uiso   1.00
C61    C     0.76870   0.98541   0.37216   0.01267  Uiso   1.00
C62    C     0.41340   0.94615   0.08472   0.01267  Uiso   1.00
C63    C     0.23050   0.93908   0.03664   0.01267  Uiso   1.00
C64    C     0.10120   0.00311   0.02395   0.01267  Uiso   1.00
C65    C     0.17020   0.07347   0.05933   0.01267  Uiso   1.00
C66    C     0.35430   0.07610   0.10706   0.01267  Uiso   1.00
C67    C     0.14130   0.85007   0.20283   0.01267  Uiso   1.00
C68    C     0.33690   0.81187   0.22726   0.01267  Uiso   1.00
C69    C     0.45210   0.82879   0.29935   0.01267  Uiso   1.00
C70    C     0.41130   0.75989   0.17699   0.01267  Uiso   1.00
C71    C     0.90850   0.70307   0.29361   0.01267  Uiso   1.00
C72    C     0.71350   0.74244   0.27015   0.01267  Uiso   1.00
C73    C     0.59920   0.72555   0.19781   0.01267  Uiso   1.00
C74    C     0.63850   0.79395   0.32041   0.01267  Uiso   1.00
N75    N     0.63800   0.01188   0.31056   0.01267  Uiso   1.00
N76    N     0.47450   0.01320   0.12121   0.01267  Uiso   1.00
N77    N     0.90050   0.92917   0.19122   0.01267  Uiso   1.00
N78    N     0.85550   0.87608   0.13619   0.01267  Uiso   1.00
N79    N     0.00600   0.82474   0.14234   0.01267  Uiso   1.00
N80    N     0.07950   0.91476   0.23480   0.01267  Uiso   1.00
N81    N     0.14150   0.62003   0.30587   0.01267  Uiso   1.00
N82    N     0.19630   0.67532   0.35811   0.01267  Uiso   1.00
N83    N     0.05010   0.72891   0.35149   0.01267  Uiso   1.00
N84    N     0.96080   0.63557   0.26411   0.01267  Uiso   1.00
H85    H     0.96324   0.22907   0.88971   0.00000  Uiso   1.00
H86    H     0.97296   0.21533   0.61824   0.00000  Uiso   1.00
Zn87   Zn    0.72196   0.48169   0.70388   0.01267  Uiso   1.00
H88    H     0.35930   0.44960   0.78120   0.01267  Uiso   1.00
H89    H     0.26520   0.45420   0.90300   0.01267  Uiso   1.00
H90    H     0.81620   0.53890   0.98740   0.01267  Uiso   1.00
H91    H     0.89970   0.53010   0.86400   0.01267  Uiso   1.00
H92    H     0.49940   0.59820   0.59230   0.01267  Uiso   1.00
H93    H     0.19280   0.60960   0.51220   0.01267  Uiso   1.00
H94    H     0.09060   0.38050   0.55060   0.01267  Uiso   1.00
H95    H     0.39800   0.37560   0.63090   0.01267  Uiso   1.00
H96    H     0.40230   0.63570   0.83400   0.01267  Uiso   1.00
H97    H     0.33310   0.75220   0.62810   0.01267  Uiso   1.00
H98    H     0.65000   0.80940   0.66290   0.01267  Uiso   1.00
H99    H     0.71560   0.69460   0.86970   0.01267  Uiso   1.00
C100   C     0.45420   0.46736   0.82385   0.01267  Uiso   1.00
C101   C     0.39670   0.47055   0.89642   0.01267  Uiso   1.00
C102   C     0.52880   0.49748   0.96038   0.01267  Uiso   1.00
C103   C     0.71970   0.51990   0.94592   0.01267  Uiso   1.00
C104   C     0.76870   0.51459   0.87216   0.01267  Uiso   1.00
C105   C     0.41340   0.55385   0.58472   0.01267  Uiso   1.00
C106   C     0.23050   0.56092   0.53664   0.01267  Uiso   1.00
C107   C     0.10120   0.49689   0.52395   0.01267  Uiso   1.00
C108   C     0.17020   0.42653   0.55933   0.01267  Uiso   1.00
C109   C     0.35430   0.42390   0.60706   0.01267  Uiso   1.00
C110   C     0.14130   0.64993   0.70283   0.01267  Uiso   1.00
C111   C     0.33690   0.68813   0.72726   0.01267  Uiso   1.00
C112   C     0.45210   0.67121   0.79935   0.01267  Uiso   1.00
C113   C     0.41130   0.74011   0.67699   0.01267  Uiso   1.00
C114   C     0.90850   0.79693   0.79361   0.01267  Uiso   1.00
C115   C     0.71350   0.75756   0.77015   0.01267  Uiso   1.00
C116   C     0.59920   0.77445   0.69781   0.01267  Uiso   1.00
C117   C     0.63850   0.70605   0.82041   0.01267  Uiso   1.00
N118   N     0.63800   0.48812   0.81056   0.01267  Uiso   1.00
N119   N     0.47450   0.48680   0.62121   0.01267  Uiso   1.00
N120   N     0.90050   0.57083   0.69122   0.01267  Uiso   1.00
N121   N     0.85550   0.62392   0.63619   0.01267  Uiso   1.00
N122   N     0.00600   0.67526   0.64234   0.01267  Uiso   1.00
N123   N     0.07950   0.58524   0.73480   0.01267  Uiso   1.00
N124   N     0.14150   0.87997   0.80587   0.01267  Uiso   1.00
N125   N     0.19630   0.82468   0.85811   0.01267  Uiso   1.00
N126   N     0.05010   0.77109   0.85149   0.01267  Uiso   1.00
N127   N     0.96080   0.86443   0.76411   0.01267  Uiso   1.00
H128   H     0.96324   0.27093   0.38971   0.00000  Uiso   1.00
H129   H     0.97296   0.28467   0.11824   0.00000  Uiso   1.00
Zn130  Zn    0.27804   0.98169   0.79612   0.01267  Uiso   1.00
H131   H     0.64070   0.94960   0.71880   0.01267  Uiso   1.00
H132   H     0.73480   0.95420   0.59700   0.01267  Uiso   1.00
H133   H     0.18380   0.03890   0.51260   0.01267  Uiso   1.00
H134   H     0.10030   0.03010   0.63600   0.01267  Uiso   1.00
H135   H     0.50060   0.09820   0.90770   0.01267  Uiso   1.00
H136   H     0.80720   0.10960   0.98780   0.01267  Uiso   1.00
H137   H     0.90940   0.88050   0.94940   0.01267  Uiso   1.00
H138   H     0.60200   0.87560   0.86910   0.01267  Uiso   1.00
H139   H     0.59770   0.13570   0.66600   0.01267  Uiso   1.00
H140   H     0.66690   0.25220   0.87190   0.01267  Uiso   1.00
H141   H     0.35000   0.30940   0.83710   0.01267  Uiso   1.00
H142   H     0.28440   0.19460   0.63030   0.01267  Uiso   1.00
C143   C     0.54580   0.96736   0.67615   0.01267  Uiso   1.00
C144   C     0.60330   0.97055   0.60358   0.01267  Uiso   1.00
C145   C     0.47120   0.99748   0.53962   0.01267  Uiso   1.00
C146   C     0.28030   0.01990   0.55408   0.01267  Uiso   1.00
C147   C     0.23130   0.01459   0.62784   0.01267  Uiso   1.00
C148   C     0.58660   0.05385   0.91528   0.01267  Uiso   1.00
C149   C     0.76950   0.06092   0.96336   0.01267  Uiso   1.00
C150   C     0.89880   0.99689   0.97605   0.01267  Uiso   1.00
C151   C     0.82980   0.92653   0.94067   0.01267  Uiso   1.00
C152   C     0.64570   0.92390   0.89294   0.01267  Uiso   1.00
C153   C     0.85870   0.14993   0.79717   0.01267  Uiso   1.00
C154   C     0.66310   0.18813   0.77274   0.01267  Uiso   1.00
C155   C     0.54790   0.17121   0.70065   0.01267  Uiso   1.00
C156   C     0.58870   0.24011   0.82301   0.01267  Uiso   1.00
C157   C     0.09150   0.29693   0.70639   0.01267  Uiso   1.00
C158   C     0.28650   0.25756   0.72985   0.01267  Uiso   1.00
C159   C     0.40080   0.27445   0.80219   0.01267  Uiso   1.00
C160   C     0.36150   0.20605   0.67959   0.01267  Uiso   1.00
N161   N     0.36200   0.98812   0.68944   0.01267  Uiso   1.00
N162   N     0.52550   0.98680   0.87879   0.01267  Uiso   1.00
N163   N     0.09950   0.07083   0.80878   0.01267  Uiso   1.00
N164   N     0.14450   0.12392   0.86381   0.01267  Uiso   1.00
N165   N     0.99400   0.17526   0.85766   0.01267  Uiso   1.00
N166   N     0.92050   0.08524   0.76520   0.01267  Uiso   1.00
N167   N     0.85850   0.37997   0.69413   0.01267  Uiso   1.00
N168   N     0.80370   0.32468   0.64189   0.01267  Uiso   1.00
N169   N     0.94990   0.27109   0.64851   0.01267  Uiso   1.00
N170   N     0.03920   0.36443   0.73589   0.01267  Uiso   1.00
H171   H     0.03676   0.77093   0.11029   0.00000  Uiso   1.00
H172   H     0.02704   0.78467   0.38176   0.00000  Uiso   1.00
loop_
_geom_bond_atom_site_label_1
_geom_bond_atom_site_label_2
_geom_bond_distance
_geom_bond_site_symmetry_2
_ccdc_geom_bond_type
Zn1    N32     2.019   .     S
Zn1    N33     2.025   .     S
Zn1    N34     1.971   .     S
Zn1    N81     1.984   .     S
H2     C14     0.950   .     S
H3     C15     0.950   .     S
H4     C17     0.949   .     S
H5     C18     0.950   .     S
H6     C19     0.950   .     S
H7     C20     0.950   .     S
H8     C22     0.950   .     S
H9     C23     0.949   .     S
H10    C26     0.950   .     S
H11    C27     0.950   .     S
H12    C30     0.950   .     S
H13    C31     0.950   .     S
C14    C15     1.373   .     S
C14    N32     1.338   .     D
C15    C16     1.389   .     D
C16    C17     1.397   .     S
C16    C102    1.487   1_554 S
C17    C18     1.372   .     D
C18    N32     1.353   .     S
C19    C20     1.381   .     S
C19    N33     1.342   .     D
C20    C21     1.393   .     D
C21    C22     1.396   .     S
C21    C107    1.485   1_655 S
C22    C23     1.380   .     D
C23    N33     1.344   .     S
C24    C25     1.471   .     D
C24    N36     1.351   .     S
C24    N37     1.331   .     S
C25    C26     1.397   .     S
C25    C27     1.390   .     S
C26    C31     1.384   .     D
C27    C30     1.389   .     D
C28    C29     1.474   .     D
C28    N40     1.348   1_455 S
C28    N41     1.330   .     S
C29    C30     1.398   .     S
C29    C31     1.387   .     S
N34    N35     1.318   .     S
N34    N37     1.342   1_455 D
N35    N36     1.330   1_455 S
N36    N35     1.330   1_655 S
N36    H128    1.110   .     S
N37    N34     1.342   1_655 D
N38    Zn44    1.984   .     S
N38    N39     1.322   .     S
N38    N41     1.342   1_655 D
N39    N40     1.335   .     S
N40    C28     1.348   1_655 S
N40    H129    1.110   .     S
N41    N38     1.342   1_455 D
H42    N122    1.110   .     S
H43    N126    1.110   .     S
Zn44   N75     2.019   .     S
Zn44   N76     2.025   .     S
Zn44   N77     1.971   1_545 S
H45    C57     0.950   .     S
H46    C58     0.950   .     S
H47    C60     0.949   .     S
H48    C61     0.950   .     S
H49    C62     0.950   .     S
H50    C63     0.950   .     S
H51    C65     0.950   .     S
H52    C66     0.949   .     S
H53    C69     0.950   .     S
H54    C70     0.950   .     S
H55    C73     0.950   .     S
H56    C74     0.950   .     S
C57    C58     1.373   .     S
C57    N75     1.338   .     D
C58    C59     1.389   .     D
C59    C60     1.397   1_545 S
C59    C145    1.487   1_545 S
C60    C59     1.397   1_565 S
C60    C61     1.372   .     D
C61    N75     1.353   1_565 S
C62    C63     1.381   .     S
C62    N76     1.342   1_565 D
C63    C64     1.393   1_565 D
C64    C63     1.393   1_545 D
C64    C65     1.396   .     S
C64    C150    1.485   1_444 S
C65    C66     1.380   .     D
C66    N76     1.344   .     S
C67    C68     1.471   .     D
C67    N79     1.351   .     S
C67    N80     1.331   .     S
C68    C69     1.397   .     S
C68    C70     1.390   .     S
C69    C74     1.384   .     D
C70    C73     1.389   .     D
C71    C72     1.474   .     D
C71    N83     1.348   1_655 S
C71    N84     1.330   .     S
C72    C73     1.398   .     S
C72    C74     1.387   .     S
N75    C61     1.353   1_545 S
N76    C62     1.342   1_545 D
N77    Zn44    1.971   1_565 S
N77    N78     1.318   .     S
N77    N80     1.342   1_655 D
N78    N79     1.330   1_655 S
N79    N78     1.330   1_455 S
N79    H171    1.110   .     S
N80    N77     1.342   1_455 D
N81    N82     1.322   .     S
N81    N84     1.342   1_455 D
N82    N83     1.335   .     S
N83    C71     1.348   1_455 S
N83    H172    1.110   .     S
N84    N81     1.342   1_655 D
H85    N165    1.110   .     S
H86    N169    1.110   .     S
Zn87   N118    2.019   .     S
Zn87   N119    2.025   .     S
Zn87   N120    1.971   .     S
Zn87   N167    1.984   .     S
H88    C100    0.950   .     S
H89    C101    0.950   .     S
H90    C103    0.949   .     S
H91    C104    0.950   .     S
H92    C105    0.950   .     S
H93    C106    0.950   .     S
H94    C108    0.950   .     S
H95    C109    0.949   .     S
H96    C112    0.950   .     S
H97    C113    0.950   .     S
H98    C116    0.950   .     S
H99    C117    0.950   .     S
C100   C101    1.373   .     S
C100   N118    1.338   .     D
C101   C102    1.389   .     D
C102   C103    1.397   .     S
C102   C16     1.487   1_556 S
C103   C104    1.372   .     D
C104   N118    1.353   .     S
C105   C106    1.381   .     S
C105   N119    1.342   .     D
C106   C107    1.393   .     D
C107   C108    1.396   .     S
C107   C21     1.485   1_455 S
C108   C109    1.380   .     D
C109   N119    1.344   .     S
C110   C111    1.471   .     D
C110   N122    1.351   .     S
C110   N123    1.331   .     S
C111   C112    1.397   .     S
C111   C113    1.390   .     S
C112   C117    1.384   .     D
C113   C116    1.389   .     D
C114   C115    1.474   .     D
C114   N126    1.348   1_655 S
C114   N127    1.330   .     S
C115   C116    1.398   .     S
C115   C117    1.387   .     S
N120   N121    1.318   .     S
N120   N123    1.342   1_655 D
N121   N122    1.330   1_655 S
N122   N121    1.330   1_455 S
N123   N120    1.342   1_455 D
N124   Zn130   1.984   .     S
N124   N125    1.322   .     S
N124   N127    1.342   1_455 D
N125   N126    1.335   .     S
N126   C114    1.348   1_455 S
N127   N124    1.342   1_655 D
Zn130  N161    2.019   .     S
Zn130  N162    2.025   .     S
Zn130  N163    1.971   1_565 S
H131   C143    0.950   .     S
H132   C144    0.950   .     S
H133   C146    0.949   .     S
H134   C147    0.950   .     S
H135   C148    0.950   .     S
H136   C149    0.950   .     S
H137   C151    0.950   .     S
H138   C152    0.949   .     S
H139   C155    0.950   .     S
H140   C156    0.950   .     S
H141   C159    0.950   .     S
H142   C160    0.950   .     S
C143   C144    1.373   .     S
C143   N161    1.338   .     D
C144   C145    1.389   .     D
C145   C146    1.397   1_565 S
C145   C59     1.487   1_565 S
C146   C145    1.397   1_545 S
C146   C147    1.372   .     D
C147   N161    1.353   1_545 S
C148   C149    1.381   .     S
C148   N162    1.342   1_545 D
C149   C150    1.393   1_545 D
C150   C149    1.393   1_565 D
C150   C151    1.396   .     S
C150   C64     1.485   1_666 S
C151   C152    1.380   .     D
C152   N162    1.344   .     S
C153   C154    1.471   .     D
C153   N165    1.351   .     S
C153   N166    1.331   .     S
C154   C155    1.397   .     S
C154   C156    1.390   .     S
C155   C160    1.384   .     D
C156   C159    1.389   .     D
C157   C158    1.474   .     D
C157   N169    1.348   1_455 S
C157   N170    1.330   .     S
C158   C159    1.398   .     S
C158   C160    1.387   .     S
N161   C147    1.353   1_565 S
N162   C148    1.342   1_565 D
N163   Zn130   1.971   1_545 S
N163   N164    1.318   .     S
N163   N166    1.342   1_455 D
N164   N165    1.330   1_455 S
N165   N164    1.330   1_655 S
N166   N163    1.342   1_655 D
N167   N168    1.322   .     S
N167   N170    1.342   1_655 D
N168   N169    1.335   .     S
N169   C157    1.348   1_655 S
N170   N167    1.342   1_455 D
