data_image0
_cell_length_a       8.0352
_cell_length_b       10.1895
_cell_length_c       16.0266
_cell_angle_alpha    93.349
_cell_angle_beta     94.504
_cell_angle_gamma    92.452

_symmetry_space_group_name_H-M    "P 1"
_symmetry_int_tables_number       1

loop_
  _symmetry_equiv_pos_as_xyz
  'x, y, z'

loop_
  _atom_site_label
  _atom_site_occupancy
  _atom_site_fract_x
  _atom_site_fract_y
  _atom_site_fract_z
  _atom_site_thermal_displace_type
  _atom_site_B_iso_or_equiv
  _atom_site_type_symbol
  Mn1      1.0000 0.38842  0.55471  0.13608  Biso   1.000  Mn
  Mn2      1.0000 0.25600  0.06321  0.28629  Biso   1.000  Mn
  Mn3      1.0000 0.55567  0.24448  0.42358  Biso   1.000  Mn
  P1       1.0000 0.74158  0.41041  0.06410  Biso   1.000  P
  P2       1.0000 0.86969  0.16069  0.30598  Biso   1.000  P
  O1       1.0000 0.60860  0.48770  0.09627  Biso   1.000  O
  O2       1.0000 0.73310  0.38060  0.97172  Biso   1.000  O
  O3       1.0000 0.90610  0.49370  0.09650  Biso   1.000  O
  H1       1.0000 0.98640  0.46110  0.07600  Biso   1.000  H
  O4       1.0000 0.75820  0.27670  0.10360  Biso   1.000  O
  H2       1.0000 0.81070  0.28770  0.14960  Biso   1.000  H
  O5       1.0000 0.76480  0.17110  0.37964  Biso   1.000  O
  O6       1.0000 0.04480  0.12910  0.33444  Biso   1.000  O
  O7       1.0000 0.86240  0.28120  0.25503  Biso   1.000  O
  O8       1.0000 0.79890  0.03900  0.24428  Biso   1.000  O
  H3       1.0000 0.69710  0.03140  0.24510  Biso   1.000  H
  O9       1.0000 0.51310  0.74870  0.18150  Biso   1.000  O
  O10      1.0000 0.45940  0.95130  0.23096  Biso   1.000  O
  O11      1.0000 0.20390  0.66430  0.20875  Biso   1.000  O
  O12      1.0000 0.15010  0.86600  0.25732  Biso   1.000  O
  O13      1.0000 0.23260  0.36660  0.11926  Biso   1.000  O
  O14      1.0000 0.21340  0.16720  0.16862  Biso   1.000  O
  O15      1.0000 0.42650  0.45260  0.25792  Biso   1.000  O
  O16      1.0000 0.40510  0.25200  0.30612  Biso   1.000  O
  O17      1.0000 0.36640  0.35960  0.49034  Biso   1.000  O
  O18      1.0000 0.32480  0.56120  0.54315  Biso   1.000  O
  O19      1.0000 0.60350  0.14540  0.54306  Biso   1.000  O
  O20      1.0000 0.59910  0.94350  0.59060  Biso   1.000  O
  C1       1.0000 0.42180  0.83160  0.21120  Biso   1.000  C
  C2       1.0000 0.24250  0.78290  0.22707  Biso   1.000  C
  C3       1.0000 0.26390  0.28570  0.17290  Biso   1.000  C
  C4       1.0000 0.37670  0.33630  0.25250  Biso   1.000  C
  C5       1.0000 0.41080  0.47710  0.50997  Biso   1.000  C
  C6       1.0000 0.55920  0.02750  0.53855  Biso   1.000  C
  Mn4      1.0000 0.61158  0.44529  0.86392  Biso   1.000  Mn
  Mn5      1.0000 0.74400  0.93679  0.71371  Biso   1.000  Mn
  Mn6      1.0000 0.44433  0.75552  0.57642  Biso   1.000  Mn
  P3       1.0000 0.25842  0.58959  0.93590  Biso   1.000  P
  P4       1.0000 0.13031  0.83931  0.69402  Biso   1.000  P
  O21      1.0000 0.39140  0.51230  0.90373  Biso   1.000  O
  O22      1.0000 0.26690  0.61940  0.02828  Biso   1.000  O
  O23      1.0000 0.09390  0.50630  0.90350  Biso   1.000  O
  H4       1.0000 0.01360  0.53890  0.92400  Biso   1.000  H
  O24      1.0000 0.24180  0.72330  0.89640  Biso   1.000  O
  H5       1.0000 0.18930  0.71230  0.85040  Biso   1.000  H
  O25      1.0000 0.23520  0.82890  0.62036  Biso   1.000  O
  O26      1.0000 0.95520  0.87090  0.66556  Biso   1.000  O
  O27      1.0000 0.13760  0.71880  0.74497  Biso   1.000  O
  O28      1.0000 0.20110  0.96100  0.75572  Biso   1.000  O
  H6       1.0000 0.30290  0.96860  0.75490  Biso   1.000  H
  O29      1.0000 0.48690  0.25130  0.81850  Biso   1.000  O
  O30      1.0000 0.54060  0.04870  0.76904  Biso   1.000  O
  O31      1.0000 0.79610  0.33570  0.79125  Biso   1.000  O
  O32      1.0000 0.84990  0.13400  0.74268  Biso   1.000  O
  O33      1.0000 0.76740  0.63340  0.88074  Biso   1.000  O
  O34      1.0000 0.78660  0.83280  0.83138  Biso   1.000  O
  O35      1.0000 0.57350  0.54740  0.74208  Biso   1.000  O
  O36      1.0000 0.59490  0.74800  0.69388  Biso   1.000  O
  O37      1.0000 0.63360  0.64040  0.50966  Biso   1.000  O
  O38      1.0000 0.67520  0.43880  0.45685  Biso   1.000  O
  O39      1.0000 0.39650  0.85460  0.45694  Biso   1.000  O
  O40      1.0000 0.40090  0.05650  0.40940  Biso   1.000  O
  C7       1.0000 0.57820  0.16840  0.78880  Biso   1.000  C
  C8       1.0000 0.75750  0.21710  0.77293  Biso   1.000  C
  C9       1.0000 0.73610  0.71430  0.82710  Biso   1.000  C
  C10      1.0000 0.62330  0.66370  0.74750  Biso   1.000  C
  C11      1.0000 0.58920  0.52290  0.49003  Biso   1.000  C
  C12      1.0000 0.44080  0.97250  0.46145  Biso   1.000  C
