data_image0
_cell_length_a       19.651
_cell_length_b       14.8963
_cell_length_c       8.5229
_cell_angle_alpha    90
_cell_angle_beta     108.902
_cell_angle_gamma    90

_symmetry_space_group_name_H-M    "P 1"
_symmetry_int_tables_number       1

loop_
  _symmetry_equiv_pos_as_xyz
  'x, y, z'

loop_
  _atom_site_label
  _atom_site_occupancy
  _atom_site_fract_x
  _atom_site_fract_y
  _atom_site_fract_z
  _atom_site_thermal_displace_type
  _atom_site_B_iso_or_equiv
  _atom_site_type_symbol
  C1       1.0000 0.10286  0.56515  0.52605  Biso   1.000  C
  C2       1.0000 0.18022  0.58101  0.53497  Biso   1.000  C
  C3       1.0000 0.20569  0.54511  0.41470  Biso   1.000  C
  H1       1.0000 0.17600  0.50920  0.33110  Biso   1.000  H
  C4       1.0000 0.27568  0.56283  0.41910  Biso   1.000  C
  H2       1.0000 0.29280  0.53850  0.33870  Biso   1.000  H
  C5       1.0000 0.32000  0.61657  0.54270  Biso   1.000  C
  H3       1.0000 0.36630  0.62950  0.54280  Biso   1.000  H
  C6       1.0000 0.29596  0.65161  0.66714  Biso   1.000  C
  C7       1.0000 0.22561  0.63326  0.66121  Biso   1.000  C
  H4       1.0000 0.20870  0.65630  0.74300  Biso   1.000  H
  C8       1.0000 0.34387  0.70721  0.80240  Biso   1.000  C
  C9       1.0000 0.39348  0.76633  0.77408  Biso   1.000  C
  H5       1.0000 0.39780  0.77060  0.66880  Biso   1.000  H
  C10      1.0000 0.43637  0.81878  0.90186  Biso   1.000  C
  H6       1.0000 0.46840  0.85850  0.87890  Biso   1.000  H
  C11      1.0000 0.38714  0.75727  0.08574  Biso   1.000  C
  H7       1.0000 0.38510  0.75300  0.19300  Biso   1.000  H
  C12      1.0000 0.34140  0.70348  0.96413  Biso   1.000  C
  H8       1.0000 0.30930  0.66510  0.99010  Biso   1.000  H
  N1       1.0000 0.43403  0.81510  0.05754  Biso   1.000  N
  O1       1.0000 0.08362  0.59940  0.63945  Biso   1.000  O
  O2       1.0000 0.06334  0.52241  0.40557  Biso   1.000  O
  C13      1.0000 0.60286  0.06515  0.52605  Biso   1.000  C
  C14      1.0000 0.68022  0.08101  0.53497  Biso   1.000  C
  C15      1.0000 0.70569  0.04511  0.41470  Biso   1.000  C
  H9       1.0000 0.67600  0.00920  0.33110  Biso   1.000  H
  C16      1.0000 0.77568  0.06283  0.41910  Biso   1.000  C
  H10      1.0000 0.79280  0.03850  0.33870  Biso   1.000  H
  C17      1.0000 0.82000  0.11657  0.54270  Biso   1.000  C
  H11      1.0000 0.86630  0.12950  0.54280  Biso   1.000  H
  C18      1.0000 0.79596  0.15161  0.66714  Biso   1.000  C
  C19      1.0000 0.72561  0.13326  0.66121  Biso   1.000  C
  H12      1.0000 0.70870  0.15630  0.74300  Biso   1.000  H
  C20      1.0000 0.84387  0.20721  0.80240  Biso   1.000  C
  C21      1.0000 0.89348  0.26633  0.77408  Biso   1.000  C
  H13      1.0000 0.89780  0.27060  0.66880  Biso   1.000  H
  C22      1.0000 0.93637  0.31878  0.90186  Biso   1.000  C
  H14      1.0000 0.96840  0.35850  0.87890  Biso   1.000  H
  C23      1.0000 0.88714  0.25727  0.08574  Biso   1.000  C
  H15      1.0000 0.88510  0.25300  0.19300  Biso   1.000  H
  C24      1.0000 0.84140  0.20348  0.96413  Biso   1.000  C
  H16      1.0000 0.80930  0.16510  0.99010  Biso   1.000  H
  N2       1.0000 0.93403  0.31510  0.05754  Biso   1.000  N
  O3       1.0000 0.58362  0.09940  0.63945  Biso   1.000  O
  O4       1.0000 0.56334  0.02241  0.40557  Biso   1.000  O
  C25      1.0000 0.89714  0.56515  0.97395  Biso   1.000  C
  C26      1.0000 0.81978  0.58101  0.96503  Biso   1.000  C
  C27      1.0000 0.79431  0.54511  0.08530  Biso   1.000  C
  H17      1.0000 0.82400  0.50920  0.16890  Biso   1.000  H
  C28      1.0000 0.72432  0.56283  0.08090  Biso   1.000  C
  H18      1.0000 0.70720  0.53850  0.16130  Biso   1.000  H
  C29      1.0000 0.68000  0.61657  0.95730  Biso   1.000  C
  H19      1.0000 0.63370  0.62950  0.95720  Biso   1.000  H
  C30      1.0000 0.70404  0.65161  0.83286  Biso   1.000  C
  C31      1.0000 0.77439  0.63326  0.83879  Biso   1.000  C
  H20      1.0000 0.79130  0.65630  0.75700  Biso   1.000  H
  C32      1.0000 0.65613  0.70721  0.69760  Biso   1.000  C
  C33      1.0000 0.60652  0.76633  0.72592  Biso   1.000  C
  H21      1.0000 0.60220  0.77060  0.83120  Biso   1.000  H
  C34      1.0000 0.56363  0.81878  0.59814  Biso   1.000  C
  H22      1.0000 0.53160  0.85850  0.62110  Biso   1.000  H
  C35      1.0000 0.61286  0.75727  0.41426  Biso   1.000  C
  H23      1.0000 0.61490  0.75300  0.30700  Biso   1.000  H
  C36      1.0000 0.65860  0.70348  0.53587  Biso   1.000  C
  H24      1.0000 0.69070  0.66510  0.50990  Biso   1.000  H
  N3       1.0000 0.56597  0.81510  0.44246  Biso   1.000  N
  O5       1.0000 0.91638  0.59940  0.86055  Biso   1.000  O
  O6       1.0000 0.93666  0.52241  0.09443  Biso   1.000  O
  C37      1.0000 0.39714  0.06515  0.97395  Biso   1.000  C
  C38      1.0000 0.31978  0.08101  0.96503  Biso   1.000  C
  C39      1.0000 0.29431  0.04511  0.08530  Biso   1.000  C
  H25      1.0000 0.32400  0.00920  0.16890  Biso   1.000  H
  C40      1.0000 0.22432  0.06283  0.08090  Biso   1.000  C
  H26      1.0000 0.20720  0.03850  0.16130  Biso   1.000  H
  C41      1.0000 0.18000  0.11657  0.95730  Biso   1.000  C
  H27      1.0000 0.13370  0.12950  0.95720  Biso   1.000  H
  C42      1.0000 0.20404  0.15161  0.83286  Biso   1.000  C
  C43      1.0000 0.27439  0.13326  0.83879  Biso   1.000  C
  H28      1.0000 0.29130  0.15630  0.75700  Biso   1.000  H
  C44      1.0000 0.15613  0.20721  0.69760  Biso   1.000  C
  C45      1.0000 0.10652  0.26633  0.72592  Biso   1.000  C
  H29      1.0000 0.10220  0.27060  0.83120  Biso   1.000  H
  C46      1.0000 0.06363  0.31878  0.59814  Biso   1.000  C
  H30      1.0000 0.03160  0.35850  0.62110  Biso   1.000  H
  C47      1.0000 0.11286  0.25727  0.41426  Biso   1.000  C
  H31      1.0000 0.11490  0.25300  0.30700  Biso   1.000  H
  C48      1.0000 0.15860  0.20348  0.53587  Biso   1.000  C
  H32      1.0000 0.19070  0.16510  0.50990  Biso   1.000  H
  N4       1.0000 0.06597  0.31510  0.44246  Biso   1.000  N
  O7       1.0000 0.41638  0.09940  0.86055  Biso   1.000  O
  O8       1.0000 0.43666  0.02241  0.09443  Biso   1.000  O
  C49      1.0000 0.89714  0.43485  0.47395  Biso   1.000  C
  C50      1.0000 0.81978  0.41899  0.46503  Biso   1.000  C
  C51      1.0000 0.79431  0.45489  0.58530  Biso   1.000  C
  H33      1.0000 0.82400  0.49080  0.66890  Biso   1.000  H
  C52      1.0000 0.72432  0.43717  0.58090  Biso   1.000  C
  H34      1.0000 0.70720  0.46150  0.66130  Biso   1.000  H
  C53      1.0000 0.68000  0.38343  0.45730  Biso   1.000  C
  H35      1.0000 0.63370  0.37050  0.45720  Biso   1.000  H
  C54      1.0000 0.70404  0.34839  0.33286  Biso   1.000  C
  C55      1.0000 0.77439  0.36674  0.33879  Biso   1.000  C
  H36      1.0000 0.79130  0.34370  0.25700  Biso   1.000  H
  C56      1.0000 0.65613  0.29279  0.19760  Biso   1.000  C
  C57      1.0000 0.60652  0.23367  0.22592  Biso   1.000  C
  H37      1.0000 0.60220  0.22940  0.33120  Biso   1.000  H
  C58      1.0000 0.56363  0.18122  0.09814  Biso   1.000  C
  H38      1.0000 0.53160  0.14150  0.12110  Biso   1.000  H
  C59      1.0000 0.61286  0.24273  0.91426  Biso   1.000  C
  H39      1.0000 0.61490  0.24700  0.80700  Biso   1.000  H
  C60      1.0000 0.65860  0.29652  0.03587  Biso   1.000  C
  H40      1.0000 0.69070  0.33490  0.00990  Biso   1.000  H
  N5       1.0000 0.56597  0.18490  0.94246  Biso   1.000  N
  O9       1.0000 0.91638  0.40060  0.36055  Biso   1.000  O
  O10      1.0000 0.93666  0.47759  0.59443  Biso   1.000  O
  C61      1.0000 0.39714  0.93485  0.47395  Biso   1.000  C
  C62      1.0000 0.31978  0.91899  0.46503  Biso   1.000  C
  C63      1.0000 0.29431  0.95489  0.58530  Biso   1.000  C
  H41      1.0000 0.32400  0.99080  0.66890  Biso   1.000  H
  C64      1.0000 0.22432  0.93717  0.58090  Biso   1.000  C
  H42      1.0000 0.20720  0.96150  0.66130  Biso   1.000  H
  C65      1.0000 0.18000  0.88343  0.45730  Biso   1.000  C
  H43      1.0000 0.13370  0.87050  0.45720  Biso   1.000  H
  C66      1.0000 0.20404  0.84839  0.33286  Biso   1.000  C
  C67      1.0000 0.27439  0.86674  0.33879  Biso   1.000  C
  H44      1.0000 0.29130  0.84370  0.25700  Biso   1.000  H
  C68      1.0000 0.15613  0.79279  0.19760  Biso   1.000  C
  C69      1.0000 0.10652  0.73367  0.22592  Biso   1.000  C
  H45      1.0000 0.10220  0.72940  0.33120  Biso   1.000  H
  C70      1.0000 0.06363  0.68122  0.09814  Biso   1.000  C
  H46      1.0000 0.03160  0.64150  0.12110  Biso   1.000  H
  C71      1.0000 0.11286  0.74273  0.91426  Biso   1.000  C
  H47      1.0000 0.11490  0.74700  0.80700  Biso   1.000  H
  C72      1.0000 0.15860  0.79652  0.03587  Biso   1.000  C
  H48      1.0000 0.19070  0.83490  0.00990  Biso   1.000  H
  N6       1.0000 0.06597  0.68490  0.94246  Biso   1.000  N
  O11      1.0000 0.41638  0.90060  0.36055  Biso   1.000  O
  O12      1.0000 0.43666  0.97759  0.59443  Biso   1.000  O
  C73      1.0000 0.10286  0.43485  0.02605  Biso   1.000  C
  C74      1.0000 0.18022  0.41899  0.03497  Biso   1.000  C
  C75      1.0000 0.20569  0.45489  0.91470  Biso   1.000  C
  H49      1.0000 0.17600  0.49080  0.83110  Biso   1.000  H
  C76      1.0000 0.27568  0.43717  0.91910  Biso   1.000  C
  H50      1.0000 0.29280  0.46150  0.83870  Biso   1.000  H
  C77      1.0000 0.32000  0.38343  0.04270  Biso   1.000  C
  H51      1.0000 0.36630  0.37050  0.04280  Biso   1.000  H
  C78      1.0000 0.29596  0.34839  0.16714  Biso   1.000  C
  C79      1.0000 0.22561  0.36674  0.16121  Biso   1.000  C
  H52      1.0000 0.20870  0.34370  0.24300  Biso   1.000  H
  C80      1.0000 0.34387  0.29279  0.30240  Biso   1.000  C
  C81      1.0000 0.39348  0.23367  0.27408  Biso   1.000  C
  H53      1.0000 0.39780  0.22940  0.16880  Biso   1.000  H
  C82      1.0000 0.43637  0.18122  0.40186  Biso   1.000  C
  H54      1.0000 0.46840  0.14150  0.37890  Biso   1.000  H
  C83      1.0000 0.38714  0.24273  0.58574  Biso   1.000  C
  H55      1.0000 0.38510  0.24700  0.69300  Biso   1.000  H
  C84      1.0000 0.34140  0.29652  0.46413  Biso   1.000  C
  H56      1.0000 0.30930  0.33490  0.49010  Biso   1.000  H
  N7       1.0000 0.43403  0.18490  0.55754  Biso   1.000  N
  O13      1.0000 0.08362  0.40060  0.13945  Biso   1.000  O
  O14      1.0000 0.06334  0.47759  0.90557  Biso   1.000  O
  C85      1.0000 0.60286  0.93485  0.02605  Biso   1.000  C
  C86      1.0000 0.68022  0.91899  0.03497  Biso   1.000  C
  C87      1.0000 0.70569  0.95489  0.91470  Biso   1.000  C
  H57      1.0000 0.67600  0.99080  0.83110  Biso   1.000  H
  C88      1.0000 0.77568  0.93717  0.91910  Biso   1.000  C
  H58      1.0000 0.79280  0.96150  0.83870  Biso   1.000  H
  C89      1.0000 0.82000  0.88343  0.04270  Biso   1.000  C
  H59      1.0000 0.86630  0.87050  0.04280  Biso   1.000  H
  C90      1.0000 0.79596  0.84839  0.16714  Biso   1.000  C
  C91      1.0000 0.72561  0.86674  0.16121  Biso   1.000  C
  H60      1.0000 0.70870  0.84370  0.24300  Biso   1.000  H
  C92      1.0000 0.84387  0.79279  0.30240  Biso   1.000  C
  C93      1.0000 0.89348  0.73367  0.27408  Biso   1.000  C
  H61      1.0000 0.89780  0.72940  0.16880  Biso   1.000  H
  C94      1.0000 0.93637  0.68122  0.40186  Biso   1.000  C
  H62      1.0000 0.96840  0.64150  0.37890  Biso   1.000  H
  C95      1.0000 0.88714  0.74273  0.58574  Biso   1.000  C
  H63      1.0000 0.88510  0.74700  0.69300  Biso   1.000  H
  C96      1.0000 0.84140  0.79652  0.46413  Biso   1.000  C
  H64      1.0000 0.80930  0.83490  0.49010  Biso   1.000  H
  N8       1.0000 0.93403  0.68490  0.55754  Biso   1.000  N
  O15      1.0000 0.58362  0.90060  0.13945  Biso   1.000  O
  O16      1.0000 0.56334  0.97759  0.90557  Biso   1.000  O
  Mn1      1.0000 0.00000  0.58035  0.75000  Biso   1.000  Mn
  Mn2      1.0000 0.50000  0.08035  0.75000  Biso   1.000  Mn
  Mn3      1.0000 0.00000  0.41965  0.25000  Biso   1.000  Mn
  Mn4      1.0000 0.50000  0.91965  0.25000  Biso   1.000  Mn
