data_image0
_cell_length_a       12.316
_cell_length_b       20.8623
_cell_length_c       18.2267
_cell_angle_alpha    90
_cell_angle_beta     91.689
_cell_angle_gamma    90

_symmetry_space_group_name_H-M    "P 1"
_symmetry_int_tables_number       1

loop_
  _symmetry_equiv_pos_as_xyz
  'x, y, z'

loop_
  _atom_site_label
  _atom_site_occupancy
  _atom_site_fract_x
  _atom_site_fract_y
  _atom_site_fract_z
  _atom_site_thermal_displace_type
  _atom_site_B_iso_or_equiv
  _atom_site_type_symbol
  H1       1.0000 0.65500  0.68800  0.72900  Biso   1.000  H
  H2       1.0000 0.00200  0.56900  0.32300  Biso   1.000  H
  H3       1.0000 0.80200  0.71000  0.30300  Biso   1.000  H
  H4       1.0000 0.58000  0.84600  0.43700  Biso   1.000  H
  H5       1.0000 0.82800  0.77000  0.04800  Biso   1.000  H
  H6       1.0000 0.13300  0.90400  0.00200  Biso   1.000  H
  H7       1.0000 0.85000  0.73500  0.18400  Biso   1.000  H
  H8       1.0000 0.02300  0.57700  0.18600  Biso   1.000  H
  H9       1.0000 0.81100  0.86700  0.98900  Biso   1.000  H
  H10      1.0000 0.95300  0.94100  0.98200  Biso   1.000  H
  H11      1.0000 0.28300  0.69200  0.81400  Biso   1.000  H
  H12      1.0000 0.42900  0.88000  0.24800  Biso   1.000  H
  H13      1.0000 0.53900  0.61700  0.76000  Biso   1.000  H
  H14      1.0000 0.50000  0.90400  0.36600  Biso   1.000  H
  H15      1.0000 0.72400  0.78400  0.79600  Biso   1.000  H
  C1       1.0000 0.50490  0.74620  0.29410  Biso   1.000  C
  C2       1.0000 0.89220  0.63050  0.31970  Biso   1.000  C
  C3       1.0000 0.86360  0.62220  0.39860  Biso   1.000  C
  C4       1.0000 0.55190  0.76020  0.36300  Biso   1.000  C
  H16      1.0000 0.58650  0.72870  0.39130  Biso   1.000  H
  C5       1.0000 0.62440  0.69360  0.77560  Biso   1.000  C
  C6       1.0000 0.29450  0.58770  0.80020  Biso   1.000  C
  C7       1.0000 0.21760  0.67810  0.11920  Biso   1.000  C
  H17      1.0000 0.18710  0.63550  0.11220  Biso   1.000  H
  H18      1.0000 0.22710  0.68570  0.17140  Biso   1.000  H
  C8       1.0000 0.44550  0.58430  0.30130  Biso   1.000  C
  C9       1.0000 0.95990  0.58910  0.28500  Biso   1.000  C
  C10      1.0000 0.84890  0.68200  0.28130  Biso   1.000  C
  C11      1.0000 0.08420  0.81710  0.04120  Biso   1.000  C
  C12      1.0000 0.54470  0.82160  0.38710  Biso   1.000  C
  C13      1.0000 0.20950  0.65960  0.71240  Biso   1.000  C
  H19      1.0000 0.18940  0.70110  0.69950  Biso   1.000  H
  C14      1.0000 0.34620  0.60780  0.32020  Biso   1.000  C
  H20      1.0000 0.33260  0.65160  0.31630  Biso   1.000  H
  C15      1.0000 0.26560  0.56750  0.34520  Biso   1.000  C
  H21      1.0000 0.19880  0.58440  0.35770  Biso   1.000  H
  C16      1.0000 0.39920  0.66420  0.96170  Biso   1.000  C
  C17      1.0000 0.53580  0.62730  0.27490  Biso   1.000  C
  H22      1.0000 0.59040  0.63200  0.31400  Biso   1.000  H
  H23      1.0000 0.57000  0.60700  0.23370  Biso   1.000  H
  C18      1.0000 0.19930  0.45790  0.37910  Biso   1.000  C
  C19      1.0000 0.14250  0.72690  0.08620  Biso   1.000  C
  C20      1.0000 0.28410  0.50270  0.35170  Biso   1.000  C
  C21      1.0000 0.94410  0.65230  0.17410  Biso   1.000  C
  C22      1.0000 0.96870  0.66290  0.09440  Biso   1.000  C
  H24      1.0000 0.00830  0.62610  0.07680  Biso   1.000  H
  H25      1.0000 0.90070  0.66540  0.06640  Biso   1.000  H
  C23      1.0000 0.99210  0.77840  0.05290  Biso   1.000  C
  C24      1.0000 0.52440  0.71560  0.90680  Biso   1.000  C
  C25      1.0000 0.31440  0.64480  0.01370  Biso   1.000  C
  H26      1.0000 0.32170  0.59950  0.02460  Biso   1.000  H
  H27      1.0000 0.24310  0.65180  0.99110  Biso   1.000  H
  C26      1.0000 0.38600  0.47810  0.33370  Biso   1.000  C
  H28      1.0000 0.40000  0.43450  0.33870  Biso   1.000  H
  C27      1.0000 0.88610  0.79880  0.03720  Biso   1.000  C
  C28      1.0000 0.46540  0.51870  0.30860  Biso   1.000  C
  H29      1.0000 0.53270  0.50220  0.29650  Biso   1.000  H
  C29      1.0000 0.43900  0.70530  0.19030  Biso   1.000  C
  C30      1.0000 0.07060  0.87850  0.01220  Biso   1.000  C
  C31      1.0000 0.87480  0.69350  0.20950  Biso   1.000  C
  C32      1.0000 0.98510  0.60010  0.21200  Biso   1.000  C
  C33      1.0000 0.49670  0.66380  0.86230  Biso   1.000  C
  C34      1.0000 0.18420  0.60920  0.66460  Biso   1.000  C
  C35      1.0000 0.41160  0.65720  0.13200  Biso   1.000  C
  H30      1.0000 0.47540  0.64820  0.10380  Biso   1.000  H
  H31      1.0000 0.38810  0.61760  0.15440  Biso   1.000  H
  C36      1.0000 0.26590  0.53650  0.75350  Biso   1.000  C
  H32      1.0000 0.28290  0.49470  0.76740  Biso   1.000  H
  C37      1.0000 0.12770  0.62010  0.59430  Biso   1.000  C
  C38      1.0000 0.21250  0.54770  0.68700  Biso   1.000  C
  H33      1.0000 0.19520  0.51330  0.65650  Biso   1.000  H
  C39      1.0000 0.45120  0.79330  0.25210  Biso   1.000  C
  C40      1.0000 0.87520  0.85960  0.00840  Biso   1.000  C
  C41      1.0000 0.96490  0.89910  0.99570  Biso   1.000  C
  C42      1.0000 0.26390  0.64870  0.77850  Biso   1.000  C
  C43      1.0000 0.60550  0.75820  0.88540  Biso   1.000  C
  H34      1.0000 0.62520  0.79350  0.91400  Biso   1.000  H
  C44      1.0000 0.44450  0.85590  0.27720  Biso   1.000  C
  C45      1.0000 0.54610  0.65160  0.79580  Biso   1.000  C
  C46      1.0000 0.35690  0.57440  0.87020  Biso   1.000  C
  H35      1.0000 0.30700  0.55980  0.90680  Biso   1.000  H
  H36      1.0000 0.40840  0.54020  0.86190  Biso   1.000  H
  C47      1.0000 0.49250  0.86850  0.34530  Biso   1.000  C
  C48      1.0000 0.65490  0.74510  0.82000  Biso   1.000  C
  N1       1.0000 0.32440  0.68230  0.08310  Biso   1.000  N
  N2       1.0000 0.49720  0.69070  0.25270  Biso   1.000  N
  N3       1.0000 0.17600  0.78360  0.06260  Biso   1.000  N
  N4       1.0000 0.40950  0.76590  0.18760  Biso   1.000  N
  N5       1.0000 0.03210  0.72080  0.08050  Biso   1.000  N
  N6       1.0000 0.41570  0.63100  0.89830  Biso   1.000  N
  N7       1.0000 0.46220  0.71490  0.96850  Biso   1.000  N
  O1       1.0000 0.11660  0.48220  0.40710  Biso   1.000  O
  O2       1.0000 0.21430  0.39880  0.37110  Biso   1.000  O
  O3       1.0000 0.79410  0.65760  0.42540  Biso   1.000  O
  O4       1.0000 0.91360  0.57920  0.43440  Biso   1.000  O
  O5       1.0000 0.10950  0.57400  0.55150  Biso   1.000  O
  O6       1.0000 0.09700  0.67650  0.57790  Biso   1.000  O
  Pb1      1.0000 0.12776  0.31163  0.44359  Biso   1.000  Pb
  H37      1.0000 0.84500  0.18800  0.77100  Biso   1.000  H
  H38      1.0000 0.49800  0.06900  0.17700  Biso   1.000  H
  H39      1.0000 0.69800  0.21000  0.19700  Biso   1.000  H
  H40      1.0000 0.92000  0.34600  0.06300  Biso   1.000  H
  H41      1.0000 0.67200  0.27000  0.45200  Biso   1.000  H
  H42      1.0000 0.36700  0.40400  0.49800  Biso   1.000  H
  H43      1.0000 0.65000  0.23500  0.31600  Biso   1.000  H
  H44      1.0000 0.47700  0.07700  0.31400  Biso   1.000  H
  H45      1.0000 0.68900  0.36700  0.51100  Biso   1.000  H
  H46      1.0000 0.54700  0.44100  0.51800  Biso   1.000  H
  H47      1.0000 0.21700  0.19200  0.68600  Biso   1.000  H
  H48      1.0000 0.07100  0.38000  0.25200  Biso   1.000  H
  H49      1.0000 0.96100  0.11700  0.74000  Biso   1.000  H
  H50      1.0000 0.00000  0.40400  0.13400  Biso   1.000  H
  H51      1.0000 0.77600  0.28400  0.70400  Biso   1.000  H
  C49      1.0000 0.99510  0.24620  0.20590  Biso   1.000  C
  C50      1.0000 0.60780  0.13050  0.18030  Biso   1.000  C
  C51      1.0000 0.63640  0.12220  0.10140  Biso   1.000  C
  C52      1.0000 0.94810  0.26020  0.13700  Biso   1.000  C
  H52      1.0000 0.91350  0.22870  0.10870  Biso   1.000  H
  C53      1.0000 0.87560  0.19360  0.72440  Biso   1.000  C
  C54      1.0000 0.20550  0.08770  0.69980  Biso   1.000  C
  C55      1.0000 0.28240  0.17810  0.38080  Biso   1.000  C
  H53      1.0000 0.31290  0.13550  0.38780  Biso   1.000  H
  H54      1.0000 0.27290  0.18570  0.32860  Biso   1.000  H
  C56      1.0000 0.05450  0.08430  0.19870  Biso   1.000  C
  C57      1.0000 0.54010  0.08910  0.21500  Biso   1.000  C
  C58      1.0000 0.65110  0.18200  0.21870  Biso   1.000  C
  C59      1.0000 0.41580  0.31710  0.45880  Biso   1.000  C
  C60      1.0000 0.95530  0.32160  0.11290  Biso   1.000  C
  C61      1.0000 0.29050  0.15960  0.78760  Biso   1.000  C
  H55      1.0000 0.31060  0.20110  0.80050  Biso   1.000  H
  C62      1.0000 0.15380  0.10780  0.17980  Biso   1.000  C
  H56      1.0000 0.16740  0.15160  0.18370  Biso   1.000  H
  C63      1.0000 0.23440  0.06750  0.15480  Biso   1.000  C
  H57      1.0000 0.30120  0.08440  0.14230  Biso   1.000  H
  C64      1.0000 0.10080  0.16420  0.53830  Biso   1.000  C
  C65      1.0000 0.96420  0.12730  0.22510  Biso   1.000  C
  H58      1.0000 0.90960  0.13200  0.18600  Biso   1.000  H
  H59      1.0000 0.93000  0.10700  0.26630  Biso   1.000  H
  C66      1.0000 0.30070  0.95790  0.12090  Biso   1.000  C
  C67      1.0000 0.35750  0.22690  0.41380  Biso   1.000  C
  C68      1.0000 0.21590  0.00270  0.14830  Biso   1.000  C
  C69      1.0000 0.55590  0.15230  0.32590  Biso   1.000  C
  C70      1.0000 0.53130  0.16290  0.40560  Biso   1.000  C
  H60      1.0000 0.49170  0.12610  0.42320  Biso   1.000  H
  H61      1.0000 0.59930  0.16540  0.43360  Biso   1.000  H
  C71      1.0000 0.50790  0.27840  0.44710  Biso   1.000  C
  C72      1.0000 0.97560  0.21560  0.59320  Biso   1.000  C
  C73      1.0000 0.18560  0.14480  0.48630  Biso   1.000  C
  H62      1.0000 0.17830  0.09950  0.47540  Biso   1.000  H
  H63      1.0000 0.25690  0.15180  0.50890  Biso   1.000  H
  C74      1.0000 0.11400  0.97810  0.16630  Biso   1.000  C
  H64      1.0000 0.10000  0.93450  0.16130  Biso   1.000  H
  C75      1.0000 0.61390  0.29880  0.46280  Biso   1.000  C
  C76      1.0000 0.03460  0.01870  0.19140  Biso   1.000  C
  H65      1.0000 0.96730  0.00220  0.20350  Biso   1.000  H
  C77      1.0000 0.06100  0.20530  0.30970  Biso   1.000  C
  C78      1.0000 0.42940  0.37850  0.48780  Biso   1.000  C
  C79      1.0000 0.62520  0.19350  0.29050  Biso   1.000  C
  C80      1.0000 0.51490  0.10010  0.28800  Biso   1.000  C
  C81      1.0000 0.00330  0.16380  0.63770  Biso   1.000  C
  C82      1.0000 0.31580  0.10920  0.83540  Biso   1.000  C
  C83      1.0000 0.08840  0.15720  0.36800  Biso   1.000  C
  H66      1.0000 0.02460  0.14820  0.39620  Biso   1.000  H
  H67      1.0000 0.11190  0.11760  0.34560  Biso   1.000  H
  C84      1.0000 0.23410  0.03650  0.74650  Biso   1.000  C
  H68      1.0000 0.21710  0.99470  0.73260  Biso   1.000  H
  C85      1.0000 0.37230  0.12010  0.90570  Biso   1.000  C
  C86      1.0000 0.28750  0.04770  0.81300  Biso   1.000  C
  H69      1.0000 0.30480  0.01330  0.84350  Biso   1.000  H
  C87      1.0000 0.04880  0.29330  0.24790  Biso   1.000  C
  C88      1.0000 0.62480  0.35960  0.49160  Biso   1.000  C
  C89      1.0000 0.53510  0.39910  0.50430  Biso   1.000  C
  C90      1.0000 0.23610  0.14870  0.72150  Biso   1.000  C
  C91      1.0000 0.89450  0.25820  0.61460  Biso   1.000  C
  H70      1.0000 0.87480  0.29350  0.58600  Biso   1.000  H
  C92      1.0000 0.05550  0.35590  0.22280  Biso   1.000  C
  C93      1.0000 0.95390  0.15160  0.70420  Biso   1.000  C
  C94      1.0000 0.14310  0.07440  0.62980  Biso   1.000  C
  H71      1.0000 0.19300  0.05980  0.59320  Biso   1.000  H
  H72      1.0000 0.09160  0.04020  0.63810  Biso   1.000  H
  C95      1.0000 0.00750  0.36850  0.15470  Biso   1.000  C
  C96      1.0000 0.84510  0.24510  0.68000  Biso   1.000  C
  N8       1.0000 0.17560  0.18230  0.41690  Biso   1.000  N
  N9       1.0000 0.00280  0.19070  0.24730  Biso   1.000  N
  N10      1.0000 0.32400  0.28360  0.43740  Biso   1.000  N
  N11      1.0000 0.09050  0.26590  0.31240  Biso   1.000  N
  N12      1.0000 0.46790  0.22080  0.41950  Biso   1.000  N
  N13      1.0000 0.08430  0.13100  0.60170  Biso   1.000  N
  N14      1.0000 0.03780  0.21490  0.53150  Biso   1.000  N
  O7       1.0000 0.38340  0.98220  0.09290  Biso   1.000  O
  O8       1.0000 0.28570  0.89880  0.12890  Biso   1.000  O
  O9       1.0000 0.70590  0.15760  0.07460  Biso   1.000  O
  O10      1.0000 0.58640  0.07920  0.06560  Biso   1.000  O
  O11      1.0000 0.39050  0.07400  0.94850  Biso   1.000  O
  O12      1.0000 0.40300  0.17650  0.92210  Biso   1.000  O
  Pb2      1.0000 0.37224  0.81163  0.05641  Biso   1.000  Pb
  H73      1.0000 0.34500  0.31200  0.27100  Biso   1.000  H
  H74      1.0000 0.99800  0.43100  0.67700  Biso   1.000  H
  H75      1.0000 0.19800  0.29000  0.69700  Biso   1.000  H
  H76      1.0000 0.42000  0.15400  0.56300  Biso   1.000  H
  H77      1.0000 0.17200  0.23000  0.95200  Biso   1.000  H
  H78      1.0000 0.86700  0.09600  0.99800  Biso   1.000  H
  H79      1.0000 0.15000  0.26500  0.81600  Biso   1.000  H
  H80      1.0000 0.97700  0.42300  0.81400  Biso   1.000  H
  H81      1.0000 0.18900  0.13300  0.01100  Biso   1.000  H
  H82      1.0000 0.04700  0.05900  0.01800  Biso   1.000  H
  H83      1.0000 0.71700  0.30800  0.18600  Biso   1.000  H
  H84      1.0000 0.57100  0.12000  0.75200  Biso   1.000  H
  H85      1.0000 0.46100  0.38300  0.24000  Biso   1.000  H
  H86      1.0000 0.50000  0.09600  0.63400  Biso   1.000  H
  H87      1.0000 0.27600  0.21600  0.20400  Biso   1.000  H
  C97      1.0000 0.49510  0.25380  0.70590  Biso   1.000  C
  C98      1.0000 0.10780  0.36950  0.68030  Biso   1.000  C
  C99      1.0000 0.13640  0.37780  0.60140  Biso   1.000  C
  C100     1.0000 0.44810  0.23980  0.63700  Biso   1.000  C
  H88      1.0000 0.41350  0.27130  0.60870  Biso   1.000  H
  C101     1.0000 0.37560  0.30640  0.22440  Biso   1.000  C
  C102     1.0000 0.70550  0.41230  0.19980  Biso   1.000  C
  C103     1.0000 0.78240  0.32190  0.88080  Biso   1.000  C
  H89      1.0000 0.81290  0.36450  0.88780  Biso   1.000  H
  H90      1.0000 0.77290  0.31430  0.82860  Biso   1.000  H
  C104     1.0000 0.55450  0.41570  0.69870  Biso   1.000  C
  C105     1.0000 0.04010  0.41090  0.71500  Biso   1.000  C
  C106     1.0000 0.15110  0.31800  0.71870  Biso   1.000  C
  C107     1.0000 0.91580  0.18290  0.95880  Biso   1.000  C
  C108     1.0000 0.45530  0.17840  0.61290  Biso   1.000  C
  C109     1.0000 0.79050  0.34040  0.28760  Biso   1.000  C
  H91      1.0000 0.81060  0.29890  0.30050  Biso   1.000  H
  C110     1.0000 0.65380  0.39220  0.67980  Biso   1.000  C
  H92      1.0000 0.66740  0.34840  0.68370  Biso   1.000  H
  C111     1.0000 0.73440  0.43250  0.65480  Biso   1.000  C
  H93      1.0000 0.80120  0.41560  0.64230  Biso   1.000  H
  C112     1.0000 0.60080  0.33580  0.03830  Biso   1.000  C
  C113     1.0000 0.46420  0.37270  0.72510  Biso   1.000  C
  H94      1.0000 0.40960  0.36800  0.68600  Biso   1.000  H
  H95      1.0000 0.43000  0.39300  0.76630  Biso   1.000  H
  C114     1.0000 0.80070  0.54210  0.62090  Biso   1.000  C
  C115     1.0000 0.85750  0.27310  0.91380  Biso   1.000  C
  C116     1.0000 0.71590  0.49730  0.64830  Biso   1.000  C
  C117     1.0000 0.05590  0.34770  0.82590  Biso   1.000  C
  C118     1.0000 0.03130  0.33710  0.90560  Biso   1.000  C
  H96      1.0000 0.99170  0.37390  0.92320  Biso   1.000  H
  H97      1.0000 0.09930  0.33460  0.93360  Biso   1.000  H
  C119     1.0000 0.00790  0.22160  0.94710  Biso   1.000  C
  C120     1.0000 0.47560  0.28440  0.09320  Biso   1.000  C
  C121     1.0000 0.68560  0.35520  0.98630  Biso   1.000  C
  H98      1.0000 0.67830  0.40050  0.97540  Biso   1.000  H
  H99      1.0000 0.75690  0.34820  0.00890  Biso   1.000  H
  C122     1.0000 0.61400  0.52190  0.66630  Biso   1.000  C
  H100     1.0000 0.60000  0.56550  0.66130  Biso   1.000  H
  C123     1.0000 0.11390  0.20120  0.96280  Biso   1.000  C
  C124     1.0000 0.53460  0.48130  0.69140  Biso   1.000  C
  H101     1.0000 0.46730  0.49780  0.70350  Biso   1.000  H
  C125     1.0000 0.56100  0.29470  0.80970  Biso   1.000  C
  C126     1.0000 0.92940  0.12150  0.98780  Biso   1.000  C
  C127     1.0000 0.12520  0.30650  0.79050  Biso   1.000  C
  C128     1.0000 0.01490  0.39990  0.78800  Biso   1.000  C
  C129     1.0000 0.50330  0.33620  0.13770  Biso   1.000  C
  C130     1.0000 0.81580  0.39080  0.33540  Biso   1.000  C
  C131     1.0000 0.58840  0.34280  0.86800  Biso   1.000  C
  H102     1.0000 0.52460  0.35180  0.89620  Biso   1.000  H
  H103     1.0000 0.61190  0.38240  0.84560  Biso   1.000  H
  C132     1.0000 0.73410  0.46350  0.24650  Biso   1.000  C
  H104     1.0000 0.71710  0.50530  0.23260  Biso   1.000  H
  C133     1.0000 0.87230  0.37990  0.40570  Biso   1.000  C
  C134     1.0000 0.78750  0.45230  0.31300  Biso   1.000  C
  H105     1.0000 0.80480  0.48670  0.34350  Biso   1.000  H
  C135     1.0000 0.54880  0.20670  0.74790  Biso   1.000  C
  C136     1.0000 0.12480  0.14040  0.99160  Biso   1.000  C
  C137     1.0000 0.03510  0.10090  0.00430  Biso   1.000  C
  C138     1.0000 0.73610  0.35130  0.22150  Biso   1.000  C
  C139     1.0000 0.39450  0.24180  0.11460  Biso   1.000  C
  H106     1.0000 0.37480  0.20650  0.08600  Biso   1.000  H
  C140     1.0000 0.55550  0.14410  0.72280  Biso   1.000  C
  C141     1.0000 0.45390  0.34840  0.20420  Biso   1.000  C
  C142     1.0000 0.64310  0.42560  0.12980  Biso   1.000  C
  H107     1.0000 0.69300  0.44020  0.09320  Biso   1.000  H
  H108     1.0000 0.59160  0.45980  0.13810  Biso   1.000  H
  C143     1.0000 0.50750  0.13150  0.65470  Biso   1.000  C
  C144     1.0000 0.34510  0.25490  0.18000  Biso   1.000  C
  N15      1.0000 0.67560  0.31770  0.91690  Biso   1.000  N
  N16      1.0000 0.50280  0.30930  0.74730  Biso   1.000  N
  N17      1.0000 0.82400  0.21640  0.93740  Biso   1.000  N
  N18      1.0000 0.59050  0.23410  0.81240  Biso   1.000  N
  N19      1.0000 0.96790  0.27920  0.91950  Biso   1.000  N
  N20      1.0000 0.58430  0.36900  0.10170  Biso   1.000  N
  N21      1.0000 0.53780  0.28510  0.03150  Biso   1.000  N
  O13      1.0000 0.88340  0.51780  0.59290  Biso   1.000  O
  O14      1.0000 0.78570  0.60120  0.62890  Biso   1.000  O
  O15      1.0000 0.20590  0.34240  0.57460  Biso   1.000  O
  O16      1.0000 0.08640  0.42080  0.56560  Biso   1.000  O
  O17      1.0000 0.89050  0.42600  0.44850  Biso   1.000  O
  O18      1.0000 0.90300  0.32350  0.42210  Biso   1.000  O
  Pb3      1.0000 0.87224  0.68837  0.55641  Biso   1.000  Pb
  H109     1.0000 0.15500  0.81200  0.22900  Biso   1.000  H
  H110     1.0000 0.50200  0.93100  0.82300  Biso   1.000  H
  H111     1.0000 0.30200  0.79000  0.80300  Biso   1.000  H
  H112     1.0000 0.08000  0.65400  0.93700  Biso   1.000  H
  H113     1.0000 0.32800  0.73000  0.54800  Biso   1.000  H
  H114     1.0000 0.63300  0.59600  0.50200  Biso   1.000  H
  H115     1.0000 0.35000  0.76500  0.68400  Biso   1.000  H
  H116     1.0000 0.52300  0.92300  0.68600  Biso   1.000  H
  H117     1.0000 0.31100  0.63300  0.48900  Biso   1.000  H
  H118     1.0000 0.45300  0.55900  0.48200  Biso   1.000  H
  H119     1.0000 0.78300  0.80800  0.31400  Biso   1.000  H
  H120     1.0000 0.92900  0.62000  0.74800  Biso   1.000  H
  H121     1.0000 0.03900  0.88300  0.26000  Biso   1.000  H
  H122     1.0000 0.00000  0.59600  0.86600  Biso   1.000  H
  H123     1.0000 0.22400  0.71600  0.29600  Biso   1.000  H
  C145     1.0000 0.00490  0.75380  0.79410  Biso   1.000  C
  C146     1.0000 0.39220  0.86950  0.81970  Biso   1.000  C
  C147     1.0000 0.36360  0.87780  0.89860  Biso   1.000  C
  C148     1.0000 0.05190  0.73980  0.86300  Biso   1.000  C
  H124     1.0000 0.08650  0.77130  0.89130  Biso   1.000  H
  C149     1.0000 0.12440  0.80640  0.27560  Biso   1.000  C
  C150     1.0000 0.79450  0.91230  0.30020  Biso   1.000  C
  C151     1.0000 0.71760  0.82190  0.61920  Biso   1.000  C
  H125     1.0000 0.68710  0.86450  0.61220  Biso   1.000  H
  H126     1.0000 0.72710  0.81430  0.67140  Biso   1.000  H
  C152     1.0000 0.94550  0.91570  0.80130  Biso   1.000  C
  C153     1.0000 0.45990  0.91090  0.78500  Biso   1.000  C
  C154     1.0000 0.34890  0.81800  0.78130  Biso   1.000  C
  C155     1.0000 0.58420  0.68290  0.54120  Biso   1.000  C
  C156     1.0000 0.04470  0.67840  0.88710  Biso   1.000  C
  C157     1.0000 0.70950  0.84040  0.21240  Biso   1.000  C
  H127     1.0000 0.68940  0.79890  0.19950  Biso   1.000  H
  C158     1.0000 0.84620  0.89220  0.82020  Biso   1.000  C
  H128     1.0000 0.83260  0.84840  0.81630  Biso   1.000  H
  C159     1.0000 0.76560  0.93250  0.84520  Biso   1.000  C
  H129     1.0000 0.69880  0.91560  0.85770  Biso   1.000  H
  C160     1.0000 0.89920  0.83580  0.46170  Biso   1.000  C
  C161     1.0000 0.03580  0.87270  0.77490  Biso   1.000  C
  H130     1.0000 0.09040  0.86800  0.81400  Biso   1.000  H
  H131     1.0000 0.07000  0.89300  0.73370  Biso   1.000  H
  C162     1.0000 0.69930  0.04210  0.87910  Biso   1.000  C
  C163     1.0000 0.64250  0.77310  0.58620  Biso   1.000  C
  C164     1.0000 0.78410  0.99730  0.85170  Biso   1.000  C
  C165     1.0000 0.44410  0.84770  0.67410  Biso   1.000  C
  C166     1.0000 0.46870  0.83710  0.59440  Biso   1.000  C
  H132     1.0000 0.50830  0.87390  0.57680  Biso   1.000  H
  H133     1.0000 0.40070  0.83460  0.56640  Biso   1.000  H
  C167     1.0000 0.49210  0.72160  0.55290  Biso   1.000  C
  C168     1.0000 0.02440  0.78440  0.40680  Biso   1.000  C
  C169     1.0000 0.81440  0.85520  0.51370  Biso   1.000  C
  H134     1.0000 0.82170  0.90050  0.52460  Biso   1.000  H
  H135     1.0000 0.74310  0.84820  0.49110  Biso   1.000  H
  C170     1.0000 0.88600  0.02190  0.83370  Biso   1.000  C
  H136     1.0000 0.90000  0.06550  0.83870  Biso   1.000  H
  C171     1.0000 0.38610  0.70120  0.53720  Biso   1.000  C
  C172     1.0000 0.96540  0.98130  0.80860  Biso   1.000  C
  H137     1.0000 0.03270  0.99780  0.79650  Biso   1.000  H
  C173     1.0000 0.93900  0.79470  0.69030  Biso   1.000  C
  C174     1.0000 0.57060  0.62150  0.51220  Biso   1.000  C
  C175     1.0000 0.37480  0.80650  0.70950  Biso   1.000  C
  C176     1.0000 0.48510  0.89990  0.71200  Biso   1.000  C
  C177     1.0000 0.99670  0.83620  0.36230  Biso   1.000  C
  C178     1.0000 0.68420  0.89080  0.16460  Biso   1.000  C
  C179     1.0000 0.91160  0.84280  0.63200  Biso   1.000  C
  H138     1.0000 0.97540  0.85180  0.60380  Biso   1.000  H
  H139     1.0000 0.88810  0.88240  0.65440  Biso   1.000  H
  C180     1.0000 0.76590  0.96350  0.25350  Biso   1.000  C
  H140     1.0000 0.78290  0.00530  0.26740  Biso   1.000  H
  C181     1.0000 0.62770  0.87990  0.09430  Biso   1.000  C
  C182     1.0000 0.71250  0.95230  0.18700  Biso   1.000  C
  H141     1.0000 0.69520  0.98670  0.15650  Biso   1.000  H
  C183     1.0000 0.95120  0.70670  0.75210  Biso   1.000  C
  C184     1.0000 0.37520  0.64040  0.50840  Biso   1.000  C
  C185     1.0000 0.46490  0.60090  0.49570  Biso   1.000  C
  C186     1.0000 0.76390  0.85130  0.27850  Biso   1.000  C
  C187     1.0000 0.10550  0.74180  0.38540  Biso   1.000  C
  H142     1.0000 0.12520  0.70650  0.41400  Biso   1.000  H
  C188     1.0000 0.94450  0.64410  0.77720  Biso   1.000  C
  C189     1.0000 0.04610  0.84840  0.29580  Biso   1.000  C
  C190     1.0000 0.85690  0.92560  0.37020  Biso   1.000  C
  H143     1.0000 0.80700  0.94020  0.40680  Biso   1.000  H
  H144     1.0000 0.90840  0.95980  0.36190  Biso   1.000  H
  C191     1.0000 0.99250  0.63150  0.84530  Biso   1.000  C
  C192     1.0000 0.15490  0.75490  0.32000  Biso   1.000  C
  N22      1.0000 0.82440  0.81770  0.58310  Biso   1.000  N
  N23      1.0000 0.99720  0.80930  0.75270  Biso   1.000  N
  N24      1.0000 0.67600  0.71640  0.56260  Biso   1.000  N
  N25      1.0000 0.90950  0.73410  0.68760  Biso   1.000  N
  N26      1.0000 0.53210  0.77920  0.58050  Biso   1.000  N
  N27      1.0000 0.91570  0.86900  0.39830  Biso   1.000  N
  N28      1.0000 0.96220  0.78510  0.46850  Biso   1.000  N
  O19      1.0000 0.61660  0.01780  0.90710  Biso   1.000  O
  O20      1.0000 0.71430  0.10120  0.87110  Biso   1.000  O
  O21      1.0000 0.29410  0.84240  0.92540  Biso   1.000  O
  O22      1.0000 0.41360  0.92080  0.93440  Biso   1.000  O
  O23      1.0000 0.60950  0.92600  0.05150  Biso   1.000  O
  O24      1.0000 0.59700  0.82350  0.07790  Biso   1.000  O
  Pb4      1.0000 0.62776  0.18837  0.94359  Biso   1.000  Pb
  Eu1      1.0000 0.00000  0.50000  0.50000  Biso   1.000  Eu
  Eu2      1.0000 0.50000  0.00000  0.00000  Biso   1.000  Eu
