data_image0
_cell_length_a       12.3263
_cell_length_b       20.7018
_cell_length_c       18.2517
_cell_angle_alpha    90
_cell_angle_beta     91.642
_cell_angle_gamma    90

_symmetry_space_group_name_H-M    "P 1"
_symmetry_int_tables_number       1

loop_
  _symmetry_equiv_pos_as_xyz
  'x, y, z'

loop_
  _atom_site_label
  _atom_site_occupancy
  _atom_site_fract_x
  _atom_site_fract_y
  _atom_site_fract_z
  _atom_site_thermal_displace_type
  _atom_site_B_iso_or_equiv
  _atom_site_type_symbol
  Pb1      1.0000 0.12668  0.18888  0.94536  Biso   1.000  Pb
  C1       1.0000 0.41630  0.18490  0.96010  Biso   1.000  C
  N1       1.0000 0.17400  0.31960  0.91910  Biso   1.000  N
  N2       1.0000 0.32290  0.21850  0.93910  Biso   1.000  N
  N3       1.0000 0.46530  0.28210  0.92060  Biso   1.000  N
  C2       1.0000 0.28030  0.32380  0.88290  Biso   1.000  C
  C3       1.0000 0.62370  0.31030  0.79250  Biso   1.000  C
  H1       1.0000 0.65300  0.27510  0.81780  Biso   1.000  H
  C4       1.0000 0.50700  0.22410  0.94780  Biso   1.000  C
  C5       1.0000 0.52930  0.34070  0.90690  Biso   1.000  C
  C6       1.0000 0.61180  0.20370  0.96390  Biso   1.000  C
  C7       1.0000 0.62450  0.14260  0.99190  Biso   1.000  C
  C8       1.0000 0.55400  0.35100  0.82690  Biso   1.000  C
  C9       1.0000 0.18320  0.35690  0.98920  Biso   1.000  C
  H2       1.0000 0.25460  0.35020  0.01160  Biso   1.000  H
  H3       1.0000 0.17500  0.40270  0.97890  Biso   1.000  H
  C10      1.0000 0.53460  0.10280  0.00460  Biso   1.000  C
  C11      1.0000 0.51060  0.40150  0.78890  Biso   1.000  C
  H4       1.0000 0.46370  0.42960  0.81200  Biso   1.000  H
  C12      1.0000 0.65110  0.32090  0.72080  Biso   1.000  C
  C13      1.0000 0.08650  0.34460  0.87070  Biso   1.000  C
  H5       1.0000 0.10900  0.38490  0.84860  Biso   1.000  H
  H6       1.0000 0.02250  0.35310  0.89900  Biso   1.000  H
  C14      1.0000 0.35620  0.27540  0.91550  Biso   1.000  C
  C15      1.0000 0.42980  0.12310  0.98910  Biso   1.000  C
  N4       1.0000 0.08110  0.36910  0.10340  Biso   1.000  N
  C16      1.0000 0.60540  0.37070  0.68140  Biso   1.000  C
  C17      1.0000 0.63280  0.37930  0.60190  Biso   1.000  C
  C18      1.0000 0.53540  0.41210  0.71510  Biso   1.000  C
  N5       1.0000 0.03650  0.28510  0.03260  Biso   1.000  N
  C19      1.0000 0.09880  0.33620  0.04080  Biso   1.000  C
  O1       1.0000 0.70320  0.34340  0.57610  Biso   1.000  O
  O2       1.0000 0.58250  0.42110  0.56610  Biso   1.000  O
  N6       1.0000 0.00120  0.31020  0.75000  Biso   1.000  N
  N7       1.0000 0.09100  0.23500  0.81460  Biso   1.000  N
  C20      1.0000 0.05230  0.41680  0.69970  Biso   1.000  C
  C21      1.0000 0.20300  0.41210  0.20200  Biso   1.000  C
  C22      1.0000 0.21370  0.49770  0.64670  Biso   1.000  C
  C23      1.0000 0.05990  0.29590  0.81180  Biso   1.000  C
  O3       1.0000 0.40330  0.32160  0.42140  Biso   1.000  O
  C24      1.0000 0.15170  0.39250  0.68120  Biso   1.000  C
  C25      1.0000 0.96200  0.37420  0.72760  Biso   1.000  C
  C26      1.0000 0.04970  0.20720  0.74980  Biso   1.000  C
  C27      1.0000 0.99400  0.25460  0.70850  Biso   1.000  C
  C28      1.0000 0.37650  0.37790  0.40550  Biso   1.000  C
  C29      1.0000 0.11420  0.52250  0.66550  Biso   1.000  C
  H7       1.0000 0.10150  0.56660  0.66080  Biso   1.000  H
  C30      1.0000 0.97290  0.28350  0.09400  Biso   1.000  C
  C31      1.0000 0.00000  0.33590  0.13870  Biso   1.000  C
  C32      1.0000 0.23220  0.43170  0.65430  Biso   1.000  C
  C33      1.0000 0.03320  0.48300  0.69140  Biso   1.000  C
  C34      1.0000 0.94800  0.24030  0.63970  Biso   1.000  C
  C35      1.0000 0.31650  0.38990  0.33500  Biso   1.000  C
  C36      1.0000 0.23450  0.46350  0.24700  Biso   1.000  C
  C37      1.0000 0.28920  0.45190  0.31340  Biso   1.000  C
  H8       1.0000 0.30770  0.48650  0.34380  Biso   1.000  H
  C38      1.0000 0.94990  0.34710  0.20530  Biso   1.000  C
  C39      1.0000 0.89210  0.24080  0.11450  Biso   1.000  C
  H9       1.0000 0.87210  0.20550  0.08550  Biso   1.000  H
  C40      1.0000 0.95710  0.17860  0.61510  Biso   1.000  C
  C41      1.0000 0.00890  0.13160  0.65580  Biso   1.000  C
  H10      1.0000 0.01170  0.08980  0.63730  Biso   1.000  H
  C42      1.0000 0.23370  0.35100  0.22310  Biso   1.000  C
  H11      1.0000 0.21710  0.31640  0.19230  Biso   1.000  H
  C43      1.0000 0.05720  0.14440  0.72390  Biso   1.000  C
  C44      1.0000 0.28840  0.33960  0.28880  Biso   1.000  C
  C45      1.0000 0.13920  0.42590  0.13200  Biso   1.000  C
  H12      1.0000 0.08720  0.46000  0.14090  Biso   1.000  H
  H13      1.0000 0.18830  0.44130  0.09530  Biso   1.000  H
  C46      1.0000 0.84320  0.25350  0.17980  Biso   1.000  C
  H14      1.0000 0.78810  0.22610  0.19450  Biso   1.000  H
  C47      1.0000 0.87200  0.30520  0.22510  Biso   1.000  C
  O4       1.0000 0.28680  0.60050  0.62610  Biso   1.000  O
  O5       1.0000 0.37960  0.51570  0.58840  Biso   1.000  O
  O6       1.0000 0.39580  0.42510  0.44580  Biso   1.000  O
  C48      1.0000 0.29910  0.54110  0.61790  Biso   1.000  C
  H15      1.0000 0.36700  0.09600  0.00100  Biso   1.000  H
  H16      1.0000 0.53800  0.06200  0.01700  Biso   1.000  H
  H17      1.0000 0.95800  0.49600  0.70100  Biso   1.000  H
  H18      1.0000 0.31000  0.35900  0.88400  Biso   1.000  H
  H19      1.0000 0.59500  0.33800  0.93700  Biso   1.000  H
  H20      1.0000 0.90500  0.36500  0.69000  Biso   1.000  H
  H21      1.0000 0.92000  0.27100  0.62300  Biso   1.000  H
  H22      1.0000 0.95400  0.38700  0.23000  Biso   1.000  H
  H23      1.0000 0.47700  0.37100  0.91500  Biso   1.000  H
  H24      1.0000 0.93000  0.39800  0.77300  Biso   1.000  H
  H25      1.0000 0.32100  0.29400  0.30600  Biso   1.000  H
  H26      1.0000 0.08400  0.11600  0.75600  Biso   1.000  H
  H27      1.0000 0.16500  0.35500  0.68500  Biso   1.000  H
  H28      1.0000 0.92800  0.15800  0.56700  Biso   1.000  H
  H29      1.0000 0.85000  0.30700  0.27700  Biso   1.000  H
  H30      1.0000 0.22900  0.50300  0.23000  Biso   1.000  H
  H31      1.0000 0.30400  0.41400  0.63400  Biso   1.000  H
  H32      1.0000 0.66700  0.23200  0.95800  Biso   1.000  H
  H33      1.0000 0.70500  0.12800  0.01500  Biso   1.000  H
  H34      1.0000 0.69400  0.29400  0.70500  Biso   1.000  H
  H35      1.0000 0.25600  0.31700  0.82200  Biso   1.000  H
  H36      1.0000 0.48900  0.43800  0.67400  Biso   1.000  H
  Pb2      1.0000 0.37332  0.68888  0.55464  Biso   1.000  Pb
  C49      1.0000 0.08370  0.68490  0.53990  Biso   1.000  C
  N8       1.0000 0.32600  0.81960  0.58090  Biso   1.000  N
  N9       1.0000 0.17710  0.71850  0.56090  Biso   1.000  N
  N10      1.0000 0.03470  0.78210  0.57940  Biso   1.000  N
  C50      1.0000 0.21970  0.82380  0.61710  Biso   1.000  C
  C51      1.0000 0.87630  0.81030  0.70750  Biso   1.000  C
  H37      1.0000 0.84700  0.77510  0.68220  Biso   1.000  H
  C52      1.0000 0.99300  0.72410  0.55220  Biso   1.000  C
  C53      1.0000 0.97070  0.84070  0.59310  Biso   1.000  C
  C54      1.0000 0.88820  0.70370  0.53610  Biso   1.000  C
  C55      1.0000 0.87550  0.64260  0.50810  Biso   1.000  C
  C56      1.0000 0.94600  0.85100  0.67310  Biso   1.000  C
  C57      1.0000 0.31680  0.85690  0.51080  Biso   1.000  C
  H38      1.0000 0.24540  0.85020  0.48840  Biso   1.000  H
  H39      1.0000 0.32500  0.90270  0.52110  Biso   1.000  H
  C58      1.0000 0.96540  0.60280  0.49540  Biso   1.000  C
  C59      1.0000 0.98940  0.90150  0.71110  Biso   1.000  C
  H40      1.0000 0.03630  0.92960  0.68800  Biso   1.000  H
  C60      1.0000 0.84890  0.82090  0.77920  Biso   1.000  C
  C61      1.0000 0.41350  0.84460  0.62930  Biso   1.000  C
  H41      1.0000 0.39100  0.88490  0.65140  Biso   1.000  H
  H42      1.0000 0.47750  0.85310  0.60100  Biso   1.000  H
  C62      1.0000 0.14380  0.77540  0.58450  Biso   1.000  C
  C63      1.0000 0.07020  0.62310  0.51090  Biso   1.000  C
  N11      1.0000 0.41890  0.86910  0.39660  Biso   1.000  N
  C64      1.0000 0.89460  0.87070  0.81860  Biso   1.000  C
  C65      1.0000 0.86720  0.87930  0.89810  Biso   1.000  C
  C66      1.0000 0.96460  0.91210  0.78490  Biso   1.000  C
  N12      1.0000 0.46350  0.78510  0.46740  Biso   1.000  N
  C67      1.0000 0.40120  0.83620  0.45920  Biso   1.000  C
  O7       1.0000 0.79680  0.84340  0.92390  Biso   1.000  O
  O8       1.0000 0.91750  0.92110  0.93390  Biso   1.000  O
  N13      1.0000 0.49880  0.81020  0.75000  Biso   1.000  N
  N14      1.0000 0.40900  0.73500  0.68540  Biso   1.000  N
  C68      1.0000 0.44770  0.91680  0.80030  Biso   1.000  C
  C69      1.0000 0.29700  0.91210  0.29800  Biso   1.000  C
  C70      1.0000 0.28630  0.99770  0.85330  Biso   1.000  C
  C71      1.0000 0.44010  0.79590  0.68820  Biso   1.000  C
  O9       1.0000 0.09670  0.82160  0.07860  Biso   1.000  O
  C72      1.0000 0.34830  0.89250  0.81880  Biso   1.000  C
  C73      1.0000 0.53800  0.87420  0.77240  Biso   1.000  C
  C74      1.0000 0.45030  0.70720  0.75020  Biso   1.000  C
  C75      1.0000 0.50600  0.75460  0.79150  Biso   1.000  C
  C76      1.0000 0.12350  0.87790  0.09450  Biso   1.000  C
  C77      1.0000 0.38580  0.02250  0.83450  Biso   1.000  C
  H43      1.0000 0.39850  0.06660  0.83920  Biso   1.000  H
  C78      1.0000 0.52710  0.78350  0.40600  Biso   1.000  C
  C79      1.0000 0.50000  0.83590  0.36130  Biso   1.000  C
  C80      1.0000 0.26780  0.93170  0.84570  Biso   1.000  C
  C81      1.0000 0.46680  0.98300  0.80860  Biso   1.000  C
  C82      1.0000 0.55200  0.74030  0.86030  Biso   1.000  C
  C83      1.0000 0.18350  0.88990  0.16500  Biso   1.000  C
  C84      1.0000 0.26550  0.96350  0.25300  Biso   1.000  C
  C85      1.0000 0.21080  0.95190  0.18660  Biso   1.000  C
  H44      1.0000 0.19230  0.98650  0.15620  Biso   1.000  H
  C86      1.0000 0.55010  0.84710  0.29470  Biso   1.000  C
  C87      1.0000 0.60790  0.74080  0.38550  Biso   1.000  C
  H45      1.0000 0.62790  0.70550  0.41450  Biso   1.000  H
  C88      1.0000 0.54290  0.67860  0.88490  Biso   1.000  C
  C89      1.0000 0.49110  0.63160  0.84420  Biso   1.000  C
  H46      1.0000 0.48830  0.58980  0.86270  Biso   1.000  H
  C90      1.0000 0.26630  0.85100  0.27690  Biso   1.000  C
  H47      1.0000 0.28290  0.81640  0.30770  Biso   1.000  H
  C91      1.0000 0.44280  0.64440  0.77610  Biso   1.000  C
  C92      1.0000 0.21160  0.83960  0.21120  Biso   1.000  C
  C93      1.0000 0.36080  0.92590  0.36800  Biso   1.000  C
  H48      1.0000 0.41280  0.96000  0.35910  Biso   1.000  H
  H49      1.0000 0.31170  0.94130  0.40470  Biso   1.000  H
  C94      1.0000 0.65680  0.75350  0.32020  Biso   1.000  C
  H50      1.0000 0.71190  0.72610  0.30550  Biso   1.000  H
  C95      1.0000 0.62800  0.80520  0.27490  Biso   1.000  C
  O10      1.0000 0.21320  0.10050  0.87390  Biso   1.000  O
  O11      1.0000 0.12040  0.01570  0.91160  Biso   1.000  O
  O12      1.0000 0.10420  0.92510  0.05420  Biso   1.000  O
  C96      1.0000 0.20090  0.04110  0.88210  Biso   1.000  C
  H51      1.0000 0.13300  0.59600  0.49900  Biso   1.000  H
  H52      1.0000 0.96200  0.56200  0.48300  Biso   1.000  H
  H53      1.0000 0.54200  0.99600  0.79900  Biso   1.000  H
  H54      1.0000 0.19000  0.85900  0.61600  Biso   1.000  H
  H55      1.0000 0.90500  0.83800  0.56300  Biso   1.000  H
  H56      1.0000 0.59500  0.86500  0.81000  Biso   1.000  H
  H57      1.0000 0.58000  0.77100  0.87700  Biso   1.000  H
  H58      1.0000 0.54600  0.88700  0.27000  Biso   1.000  H
  H59      1.0000 0.02300  0.87100  0.58500  Biso   1.000  H
  H60      1.0000 0.57000  0.89800  0.72700  Biso   1.000  H
  H61      1.0000 0.17900  0.79400  0.19400  Biso   1.000  H
  H62      1.0000 0.41600  0.61600  0.74400  Biso   1.000  H
  H63      1.0000 0.33500  0.85500  0.81500  Biso   1.000  H
  H64      1.0000 0.57200  0.65800  0.93300  Biso   1.000  H
  H65      1.0000 0.65000  0.80700  0.22300  Biso   1.000  H
  H66      1.0000 0.27100  0.00300  0.27000  Biso   1.000  H
  H67      1.0000 0.19600  0.91400  0.86600  Biso   1.000  H
  H68      1.0000 0.83300  0.73200  0.54200  Biso   1.000  H
  H69      1.0000 0.79500  0.62800  0.48500  Biso   1.000  H
  H70      1.0000 0.80600  0.79400  0.79500  Biso   1.000  H
  H71      1.0000 0.24400  0.81700  0.67800  Biso   1.000  H
  H72      1.0000 0.01100  0.93800  0.82600  Biso   1.000  H
  Pb3      1.0000 0.87332  0.81112  0.05464  Biso   1.000  Pb
  C97      1.0000 0.58370  0.81510  0.03990  Biso   1.000  C
  N15      1.0000 0.82600  0.68040  0.08090  Biso   1.000  N
  N16      1.0000 0.67710  0.78150  0.06090  Biso   1.000  N
  N17      1.0000 0.53470  0.71790  0.07940  Biso   1.000  N
  C98      1.0000 0.71970  0.67620  0.11710  Biso   1.000  C
  C99      1.0000 0.37630  0.68970  0.20750  Biso   1.000  C
  H73      1.0000 0.34700  0.72490  0.18220  Biso   1.000  H
  C100     1.0000 0.49300  0.77590  0.05220  Biso   1.000  C
  C101     1.0000 0.47070  0.65930  0.09310  Biso   1.000  C
  C102     1.0000 0.38820  0.79630  0.03610  Biso   1.000  C
  C103     1.0000 0.37550  0.85740  0.00810  Biso   1.000  C
  C104     1.0000 0.44600  0.64900  0.17310  Biso   1.000  C
  C105     1.0000 0.81680  0.64310  0.01080  Biso   1.000  C
  H74      1.0000 0.74540  0.64980  0.98840  Biso   1.000  H
  H75      1.0000 0.82500  0.59730  0.02110  Biso   1.000  H
  C106     1.0000 0.46540  0.89720  0.99540  Biso   1.000  C
  C107     1.0000 0.48940  0.59850  0.21110  Biso   1.000  C
  H76      1.0000 0.53630  0.57040  0.18800  Biso   1.000  H
  C108     1.0000 0.34890  0.67910  0.27920  Biso   1.000  C
  C109     1.0000 0.91350  0.65540  0.12930  Biso   1.000  C
  H77      1.0000 0.89100  0.61510  0.15140  Biso   1.000  H
  H78      1.0000 0.97750  0.64690  0.10100  Biso   1.000  H
  C110     1.0000 0.64380  0.72460  0.08450  Biso   1.000  C
  C111     1.0000 0.57020  0.87690  0.01090  Biso   1.000  C
  N18      1.0000 0.91890  0.63090  0.89660  Biso   1.000  N
  C112     1.0000 0.39460  0.62930  0.31860  Biso   1.000  C
  C113     1.0000 0.36720  0.62070  0.39810  Biso   1.000  C
  C114     1.0000 0.46460  0.58790  0.28490  Biso   1.000  C
  N19      1.0000 0.96350  0.71490  0.96740  Biso   1.000  N
  C115     1.0000 0.90120  0.66380  0.95920  Biso   1.000  C
  O13      1.0000 0.29680  0.65660  0.42390  Biso   1.000  O
  O14      1.0000 0.41750  0.57890  0.43390  Biso   1.000  O
  N20      1.0000 0.99880  0.68980  0.25000  Biso   1.000  N
  N21      1.0000 0.90900  0.76500  0.18540  Biso   1.000  N
  C116     1.0000 0.94770  0.58320  0.30030  Biso   1.000  C
  C117     1.0000 0.79700  0.58790  0.79800  Biso   1.000  C
  C118     1.0000 0.78630  0.50230  0.35330  Biso   1.000  C
  C119     1.0000 0.94010  0.70410  0.18820  Biso   1.000  C
  O15      1.0000 0.59670  0.67840  0.57860  Biso   1.000  O
  C120     1.0000 0.84830  0.60750  0.31880  Biso   1.000  C
  C121     1.0000 0.03800  0.62580  0.27240  Biso   1.000  C
  C122     1.0000 0.95030  0.79280  0.25020  Biso   1.000  C
  C123     1.0000 0.00600  0.74540  0.29150  Biso   1.000  C
  C124     1.0000 0.62350  0.62210  0.59450  Biso   1.000  C
  C125     1.0000 0.88580  0.47750  0.33450  Biso   1.000  C
  H79      1.0000 0.89850  0.43340  0.33920  Biso   1.000  H
  C126     1.0000 0.02710  0.71650  0.90600  Biso   1.000  C
  C127     1.0000 0.00000  0.66410  0.86130  Biso   1.000  C
  C128     1.0000 0.76780  0.56830  0.34570  Biso   1.000  C
  C129     1.0000 0.96680  0.51700  0.30860  Biso   1.000  C
  C130     1.0000 0.05200  0.75970  0.36030  Biso   1.000  C
  C131     1.0000 0.68350  0.61010  0.66500  Biso   1.000  C
  C132     1.0000 0.76550  0.53650  0.75300  Biso   1.000  C
  C133     1.0000 0.71080  0.54810  0.68660  Biso   1.000  C
  H80      1.0000 0.69230  0.51350  0.65620  Biso   1.000  H
  C134     1.0000 0.05010  0.65290  0.79470  Biso   1.000  C
  C135     1.0000 0.10790  0.75920  0.88550  Biso   1.000  C
  H81      1.0000 0.12790  0.79450  0.91450  Biso   1.000  H
  C136     1.0000 0.04290  0.82140  0.38490  Biso   1.000  C
  C137     1.0000 0.99110  0.86840  0.34420  Biso   1.000  C
  H82      1.0000 0.98830  0.91020  0.36270  Biso   1.000  H
  C138     1.0000 0.76630  0.64900  0.77690  Biso   1.000  C
  H83      1.0000 0.78290  0.68360  0.80770  Biso   1.000  H
  C139     1.0000 0.94280  0.85560  0.27610  Biso   1.000  C
  C140     1.0000 0.71160  0.66040  0.71120  Biso   1.000  C
  C141     1.0000 0.86080  0.57410  0.86800  Biso   1.000  C
  H84      1.0000 0.91280  0.54000  0.85910  Biso   1.000  H
  H85      1.0000 0.81170  0.55870  0.90470  Biso   1.000  H
  C142     1.0000 0.15680  0.74650  0.82020  Biso   1.000  C
  H86      1.0000 0.21190  0.77390  0.80550  Biso   1.000  H
  C143     1.0000 0.12800  0.69480  0.77490  Biso   1.000  C
  O16      1.0000 0.71320  0.39950  0.37390  Biso   1.000  O
  O17      1.0000 0.62040  0.48430  0.41160  Biso   1.000  O
  O18      1.0000 0.60420  0.57490  0.55420  Biso   1.000  O
  C144     1.0000 0.70090  0.45890  0.38210  Biso   1.000  C
  H87      1.0000 0.63300  0.90400  0.99900  Biso   1.000  H
  H88      1.0000 0.46200  0.93800  0.98300  Biso   1.000  H
  H89      1.0000 0.04200  0.50400  0.29900  Biso   1.000  H
  H90      1.0000 0.69000  0.64100  0.11600  Biso   1.000  H
  H91      1.0000 0.40500  0.66200  0.06300  Biso   1.000  H
  H92      1.0000 0.09500  0.63500  0.31000  Biso   1.000  H
  H93      1.0000 0.08000  0.72900  0.37700  Biso   1.000  H
  H94      1.0000 0.04600  0.61300  0.77000  Biso   1.000  H
  H95      1.0000 0.52300  0.62900  0.08500  Biso   1.000  H
  H96      1.0000 0.07000  0.60200  0.22700  Biso   1.000  H
  H97      1.0000 0.67900  0.70600  0.69400  Biso   1.000  H
  H98      1.0000 0.91600  0.88400  0.24400  Biso   1.000  H
  H99      1.0000 0.83500  0.64500  0.31500  Biso   1.000  H
  H100     1.0000 0.07200  0.84200  0.43300  Biso   1.000  H
  H101     1.0000 0.15000  0.69300  0.72300  Biso   1.000  H
  H102     1.0000 0.77100  0.49700  0.77000  Biso   1.000  H
  H103     1.0000 0.69600  0.58600  0.36600  Biso   1.000  H
  H104     1.0000 0.33300  0.76800  0.04200  Biso   1.000  H
  H105     1.0000 0.29500  0.87200  0.98500  Biso   1.000  H
  H106     1.0000 0.30600  0.70600  0.29500  Biso   1.000  H
  H107     1.0000 0.74400  0.68300  0.17800  Biso   1.000  H
  H108     1.0000 0.51100  0.56200  0.32600  Biso   1.000  H
  Pb4      1.0000 0.62668  0.31112  0.44536  Biso   1.000  Pb
  C145     1.0000 0.91630  0.31510  0.46010  Biso   1.000  C
  N22      1.0000 0.67400  0.18040  0.41910  Biso   1.000  N
  N23      1.0000 0.82290  0.28150  0.43910  Biso   1.000  N
  N24      1.0000 0.96530  0.21790  0.42060  Biso   1.000  N
  C146     1.0000 0.78030  0.17620  0.38290  Biso   1.000  C
  C147     1.0000 0.12370  0.18970  0.29250  Biso   1.000  C
  H109     1.0000 0.15300  0.22490  0.31780  Biso   1.000  H
  C148     1.0000 0.00700  0.27590  0.44780  Biso   1.000  C
  C149     1.0000 0.02930  0.15930  0.40690  Biso   1.000  C
  C150     1.0000 0.11180  0.29630  0.46390  Biso   1.000  C
  C151     1.0000 0.12450  0.35740  0.49190  Biso   1.000  C
  C152     1.0000 0.05400  0.14900  0.32690  Biso   1.000  C
  C153     1.0000 0.68320  0.14310  0.48920  Biso   1.000  C
  H110     1.0000 0.75460  0.14980  0.51160  Biso   1.000  H
  H111     1.0000 0.67500  0.09730  0.47890  Biso   1.000  H
  C154     1.0000 0.03460  0.39720  0.50460  Biso   1.000  C
  C155     1.0000 0.01060  0.09850  0.28890  Biso   1.000  C
  H112     1.0000 0.96370  0.07040  0.31200  Biso   1.000  H
  C156     1.0000 0.15110  0.17910  0.22080  Biso   1.000  C
  C157     1.0000 0.58650  0.15540  0.37070  Biso   1.000  C
  H113     1.0000 0.60900  0.11510  0.34860  Biso   1.000  H
  H114     1.0000 0.52250  0.14690  0.39900  Biso   1.000  H
  C158     1.0000 0.85620  0.22460  0.41550  Biso   1.000  C
  C159     1.0000 0.92980  0.37690  0.48910  Biso   1.000  C
  N25      1.0000 0.58110  0.13090  0.60340  Biso   1.000  N
  C160     1.0000 0.10540  0.12930  0.18140  Biso   1.000  C
  C161     1.0000 0.13280  0.12070  0.10190  Biso   1.000  C
  C162     1.0000 0.03540  0.08790  0.21510  Biso   1.000  C
  N26      1.0000 0.53650  0.21490  0.53260  Biso   1.000  N
  C163     1.0000 0.59880  0.16380  0.54080  Biso   1.000  C
  O19      1.0000 0.20320  0.15660  0.07610  Biso   1.000  O
  O20      1.0000 0.08250  0.07890  0.06610  Biso   1.000  O
  N27      1.0000 0.50120  0.18980  0.25000  Biso   1.000  N
  N28      1.0000 0.59100  0.26500  0.31460  Biso   1.000  N
  C164     1.0000 0.55230  0.08320  0.19970  Biso   1.000  C
  C165     1.0000 0.70300  0.08790  0.70200  Biso   1.000  C
  C166     1.0000 0.71370  0.00230  0.14670  Biso   1.000  C
  C167     1.0000 0.55990  0.20410  0.31180  Biso   1.000  C
  O21      1.0000 0.90330  0.17840  0.92140  Biso   1.000  O
  C168     1.0000 0.65170  0.10750  0.18120  Biso   1.000  C
  C169     1.0000 0.46200  0.12580  0.22760  Biso   1.000  C
  C170     1.0000 0.54970  0.29280  0.24980  Biso   1.000  C
  C171     1.0000 0.49400  0.24540  0.20850  Biso   1.000  C
  C172     1.0000 0.87650  0.12210  0.90550  Biso   1.000  C
  C173     1.0000 0.61420  0.97750  0.16550  Biso   1.000  C
  H115     1.0000 0.60150  0.93340  0.16080  Biso   1.000  H
  C174     1.0000 0.47290  0.21650  0.59400  Biso   1.000  C
  C175     1.0000 0.50000  0.16410  0.63870  Biso   1.000  C
  C176     1.0000 0.73220  0.06830  0.15430  Biso   1.000  C
  C177     1.0000 0.53320  0.01700  0.19140  Biso   1.000  C
  C178     1.0000 0.44800  0.25970  0.13970  Biso   1.000  C
  C179     1.0000 0.81650  0.11010  0.83500  Biso   1.000  C
  C180     1.0000 0.73450  0.03650  0.74700  Biso   1.000  C
  C181     1.0000 0.78920  0.04810  0.81340  Biso   1.000  C
  H116     1.0000 0.80770  0.01350  0.84380  Biso   1.000  H
  C182     1.0000 0.44990  0.15290  0.70530  Biso   1.000  C
  C183     1.0000 0.39210  0.25920  0.61450  Biso   1.000  C
  H117     1.0000 0.37210  0.29450  0.58550  Biso   1.000  H
  C184     1.0000 0.45710  0.32140  0.11510  Biso   1.000  C
  C185     1.0000 0.50890  0.36840  0.15580  Biso   1.000  C
  H118     1.0000 0.51170  0.41020  0.13730  Biso   1.000  H
  C186     1.0000 0.73370  0.14900  0.72310  Biso   1.000  C
  H119     1.0000 0.71710  0.18360  0.69230  Biso   1.000  H
  C187     1.0000 0.55720  0.35560  0.22390  Biso   1.000  C
  C188     1.0000 0.78840  0.16040  0.78880  Biso   1.000  C
  C189     1.0000 0.63920  0.07410  0.63200  Biso   1.000  C
  H120     1.0000 0.58720  0.04000  0.64090  Biso   1.000  H
  H121     1.0000 0.68830  0.05870  0.59530  Biso   1.000  H
  C190     1.0000 0.34320  0.24650  0.67980  Biso   1.000  C
  H122     1.0000 0.28810  0.27390  0.69450  Biso   1.000  H
  C191     1.0000 0.37200  0.19480  0.72510  Biso   1.000  C
  O22      1.0000 0.78680  0.89950  0.12610  Biso   1.000  O
  O23      1.0000 0.87960  0.98430  0.08840  Biso   1.000  O
  O24      1.0000 0.89580  0.07490  0.94580  Biso   1.000  O
  C192     1.0000 0.79910  0.95890  0.11790  Biso   1.000  C
  H123     1.0000 0.86700  0.40400  0.50100  Biso   1.000  H
  H124     1.0000 0.03800  0.43800  0.51700  Biso   1.000  H
  H125     1.0000 0.45800  0.00400  0.20100  Biso   1.000  H
  H126     1.0000 0.81000  0.14100  0.38400  Biso   1.000  H
  H127     1.0000 0.09500  0.16200  0.43700  Biso   1.000  H
  H128     1.0000 0.40500  0.13500  0.19000  Biso   1.000  H
  H129     1.0000 0.42000  0.22900  0.12300  Biso   1.000  H
  H130     1.0000 0.45400  0.11300  0.73000  Biso   1.000  H
  H131     1.0000 0.97700  0.12900  0.41500  Biso   1.000  H
  H132     1.0000 0.43000  0.10200  0.27300  Biso   1.000  H
  H133     1.0000 0.82100  0.20600  0.80600  Biso   1.000  H
  H134     1.0000 0.58400  0.38400  0.25600  Biso   1.000  H
  H135     1.0000 0.66500  0.14500  0.18500  Biso   1.000  H
  H136     1.0000 0.42800  0.34200  0.06700  Biso   1.000  H
  H137     1.0000 0.35000  0.19300  0.77700  Biso   1.000  H
  H138     1.0000 0.72900  0.99700  0.73000  Biso   1.000  H
  H139     1.0000 0.80400  0.08600  0.13400  Biso   1.000  H
  H140     1.0000 0.16700  0.26800  0.45800  Biso   1.000  H
  H141     1.0000 0.20500  0.37200  0.51500  Biso   1.000  H
  H142     1.0000 0.19400  0.20600  0.20500  Biso   1.000  H
  H143     1.0000 0.75600  0.18300  0.32200  Biso   1.000  H
  H144     1.0000 0.98900  0.06200  0.17400  Biso   1.000  H
  Tb1      1.0000 0.50000  0.50000  0.50000  Biso   1.000  Tb
  Tb2      1.0000 0.00000  0.00000  0.00000  Biso   1.000  Tb
