data_image0
_cell_length_a       16.5408
_cell_length_b       17.4589
_cell_length_c       17.4589
_cell_angle_alpha    97.9961
_cell_angle_beta     95.4719
_cell_angle_gamma    84.5281

_symmetry_space_group_name_H-M    P 1
_symmetry_int_tables_number       1

loop_
  _symmetry_equiv_pos_as_xyz
  'x, y, z'

loop_
  _atom_site_label
  _atom_site_occupancy
  _atom_site_fract_x
  _atom_site_fract_y
  _atom_site_fract_z
  _atom_site_thermal_displace_type
  _atom_site_B_iso_or_equiv
  _atom_site_type_symbol
  Zn1      1.0000 0.04291  0.47921  0.24657  Biso   1.000  Zn
  Zn2      1.0000 0.86283  0.93621  0.28823  Biso   1.000  Zn
  Zn3      1.0000 0.77429  0.75506  0.25830  Biso   1.000  Zn
  Zn4      1.0000 0.67950  0.57748  0.23162  Biso   1.000  Zn
  Zn5      1.0000 0.03905  0.20660  0.41652  Biso   1.000  Zn
  Zn6      1.0000 0.00802  0.23779  0.01415  Biso   1.000  Zn
  Zn7      1.0000 0.02842  0.04315  0.27687  Biso   1.000  Zn
  Zn8      1.0000 0.45709  0.24657  0.47921  Biso   1.000  Zn
  Zn9      1.0000 0.63717  0.28823  0.93621  Biso   1.000  Zn
  Zn10     1.0000 0.72571  0.25830  0.75506  Biso   1.000  Zn
  Zn11     1.0000 0.82050  0.23162  0.57748  Biso   1.000  Zn
  Zn12     1.0000 0.46095  0.41652  0.20660  Biso   1.000  Zn
  Zn13     1.0000 0.49198  0.01415  0.23779  Biso   1.000  Zn
  Zn14     1.0000 0.47158  0.27687  0.04315  Biso   1.000  Zn
  Zn15     1.0000 0.95709  0.52079  0.75343  Biso   1.000  Zn
  Zn16     1.0000 0.13717  0.06379  0.71177  Biso   1.000  Zn
  Zn17     1.0000 0.22571  0.24494  0.74170  Biso   1.000  Zn
  Zn18     1.0000 0.32050  0.42252  0.76838  Biso   1.000  Zn
  Zn19     1.0000 0.96095  0.79340  0.58348  Biso   1.000  Zn
  Zn20     1.0000 0.99198  0.76221  0.98585  Biso   1.000  Zn
  Zn21     1.0000 0.97158  0.95685  0.72313  Biso   1.000  Zn
  Zn22     1.0000 0.54291  0.75343  0.52079  Biso   1.000  Zn
  Zn23     1.0000 0.36283  0.71177  0.06379  Biso   1.000  Zn
  Zn24     1.0000 0.27429  0.74170  0.24494  Biso   1.000  Zn
  Zn25     1.0000 0.17950  0.76838  0.42252  Biso   1.000  Zn
  Zn26     1.0000 0.53905  0.58348  0.79340  Biso   1.000  Zn
  Zn27     1.0000 0.50802  0.98585  0.76221  Biso   1.000  Zn
  Zn28     1.0000 0.52842  0.72313  0.95685  Biso   1.000  Zn
  H1       1.0000 0.89970  0.06580  0.34160  Biso   1.000  H
  H2       1.0000 0.14030  0.10300  0.36300  Biso   1.000  H
  H3       1.0000 0.81880  0.66520  0.09860  Biso   1.000  H
  H4       1.0000 0.87160  0.66760  0.03460  Biso   1.000  H
  H5       1.0000 0.97050  0.90030  0.13250  Biso   1.000  H
  H6       1.0000 0.79600  0.42190  0.21030  Biso   1.000  H
  H7       1.0000 0.88560  0.40110  0.21390  Biso   1.000  H
  H8       1.0000 0.95650  0.65140  0.25920  Biso   1.000  H
  H9       1.0000 0.71450  0.84580  0.11500  Biso   1.000  H
  H10      1.0000 0.65090  0.84620  0.04860  Biso   1.000  H
  H11      1.0000 0.55780  0.61470  0.07910  Biso   1.000  H
  H12      1.0000 0.06660  0.64090  0.44630  Biso   1.000  H
  H13      1.0000 0.03900  0.56720  0.40280  Biso   1.000  H
  H14      1.0000 0.18130  0.57630  0.19070  Biso   1.000  H
  H15      1.0000 0.94030  0.98040  0.46040  Biso   1.000  H
  H16      1.0000 0.96260  0.94060  0.53060  Biso   1.000  H
  H17      1.0000 0.87650  0.70600  0.42080  Biso   1.000  H
  H18      1.0000 0.73700  0.08950  0.27430  Biso   1.000  H
  H19      1.0000 0.64680  0.10640  0.26620  Biso   1.000  H
  H20      1.0000 0.59010  0.85360  0.26100  Biso   1.000  H
  H21      1.0000 0.94540  0.19860  0.24280  Biso   1.000  H
  H22      1.0000 0.94960  0.25100  0.18320  Biso   1.000  H
  H23      1.0000 0.05810  0.97870  0.10330  Biso   1.000  H
  H24      1.0000 0.25130  0.32420  0.44540  Biso   1.000  H
  H25      1.0000 0.20150  0.26130  0.45890  Biso   1.000  H
  H26      1.0000 0.96460  0.35230  0.33470  Biso   1.000  H
  H27      1.0000 0.60030  0.34160  0.06580  Biso   1.000  H
  H28      1.0000 0.35970  0.36300  0.10300  Biso   1.000  H
  H29      1.0000 0.68120  0.09860  0.66520  Biso   1.000  H
  H30      1.0000 0.62840  0.03460  0.66760  Biso   1.000  H
  H31      1.0000 0.52950  0.13250  0.90030  Biso   1.000  H
  H32      1.0000 0.70400  0.21030  0.42190  Biso   1.000  H
  H33      1.0000 0.61440  0.21390  0.40110  Biso   1.000  H
  H34      1.0000 0.54350  0.25920  0.65140  Biso   1.000  H
  H35      1.0000 0.78550  0.11500  0.84580  Biso   1.000  H
  H36      1.0000 0.84910  0.04860  0.84620  Biso   1.000  H
  H37      1.0000 0.94220  0.07910  0.61470  Biso   1.000  H
  H38      1.0000 0.43340  0.44630  0.64090  Biso   1.000  H
  H39      1.0000 0.46100  0.40280  0.56720  Biso   1.000  H
  H40      1.0000 0.31870  0.19070  0.57630  Biso   1.000  H
  H41      1.0000 0.55970  0.46040  0.98040  Biso   1.000  H
  H42      1.0000 0.53740  0.53060  0.94060  Biso   1.000  H
  H43      1.0000 0.62350  0.42080  0.70600  Biso   1.000  H
  H44      1.0000 0.76300  0.27430  0.08950  Biso   1.000  H
  H45      1.0000 0.85320  0.26620  0.10640  Biso   1.000  H
  H46      1.0000 0.90990  0.26100  0.85360  Biso   1.000  H
  H47      1.0000 0.55460  0.24280  0.19860  Biso   1.000  H
  H48      1.0000 0.55040  0.18320  0.25100  Biso   1.000  H
  H49      1.0000 0.44190  0.10330  0.97870  Biso   1.000  H
  H50      1.0000 0.24870  0.44540  0.32420  Biso   1.000  H
  H51      1.0000 0.29850  0.45890  0.26130  Biso   1.000  H
  H52      1.0000 0.53540  0.33470  0.35230  Biso   1.000  H
  H53      1.0000 0.10030  0.93420  0.65840  Biso   1.000  H
  H54      1.0000 0.85970  0.89700  0.63700  Biso   1.000  H
  H55      1.0000 0.18120  0.33480  0.90140  Biso   1.000  H
  H56      1.0000 0.12840  0.33240  0.96540  Biso   1.000  H
  H57      1.0000 0.02950  0.09970  0.86750  Biso   1.000  H
  H58      1.0000 0.20400  0.57810  0.78970  Biso   1.000  H
  H59      1.0000 0.11440  0.59890  0.78610  Biso   1.000  H
  H60      1.0000 0.04350  0.34860  0.74080  Biso   1.000  H
  H61      1.0000 0.28550  0.15420  0.88500  Biso   1.000  H
  H62      1.0000 0.34910  0.15380  0.95140  Biso   1.000  H
  H63      1.0000 0.44220  0.38530  0.92090  Biso   1.000  H
  H64      1.0000 0.93340  0.35910  0.55370  Biso   1.000  H
  H65      1.0000 0.96100  0.43280  0.59720  Biso   1.000  H
  H66      1.0000 0.81870  0.42370  0.80930  Biso   1.000  H
  H67      1.0000 0.05970  0.01960  0.53960  Biso   1.000  H
  H68      1.0000 0.03740  0.05940  0.46940  Biso   1.000  H
  H69      1.0000 0.12350  0.29400  0.57920  Biso   1.000  H
  H70      1.0000 0.26300  0.91050  0.72570  Biso   1.000  H
  H71      1.0000 0.35320  0.89360  0.73380  Biso   1.000  H
  H72      1.0000 0.40990  0.14640  0.73900  Biso   1.000  H
  H73      1.0000 0.05460  0.80140  0.75720  Biso   1.000  H
  H74      1.0000 0.05040  0.74900  0.81680  Biso   1.000  H
  H75      1.0000 0.94190  0.02130  0.89670  Biso   1.000  H
  H76      1.0000 0.74870  0.67580  0.55460  Biso   1.000  H
  H77      1.0000 0.79850  0.73870  0.54110  Biso   1.000  H
  H78      1.0000 0.03540  0.64770  0.66530  Biso   1.000  H
  H79      1.0000 0.39970  0.65840  0.93420  Biso   1.000  H
  H80      1.0000 0.64030  0.63700  0.89700  Biso   1.000  H
  H81      1.0000 0.31880  0.90140  0.33480  Biso   1.000  H
  H82      1.0000 0.37160  0.96540  0.33240  Biso   1.000  H
  H83      1.0000 0.47050  0.86750  0.09970  Biso   1.000  H
  H84      1.0000 0.29600  0.78970  0.57810  Biso   1.000  H
  H85      1.0000 0.38560  0.78610  0.59890  Biso   1.000  H
  H86      1.0000 0.45650  0.74080  0.34860  Biso   1.000  H
  H87      1.0000 0.21450  0.88500  0.15420  Biso   1.000  H
  H88      1.0000 0.15090  0.95140  0.15380  Biso   1.000  H
  H89      1.0000 0.05780  0.92090  0.38530  Biso   1.000  H
  H90      1.0000 0.56660  0.55370  0.35910  Biso   1.000  H
  H91      1.0000 0.53900  0.59720  0.43280  Biso   1.000  H
  H92      1.0000 0.68130  0.80930  0.42370  Biso   1.000  H
  H93      1.0000 0.44030  0.53960  0.01960  Biso   1.000  H
  H94      1.0000 0.46260  0.46940  0.05940  Biso   1.000  H
  H95      1.0000 0.37650  0.57920  0.29400  Biso   1.000  H
  H96      1.0000 0.23700  0.72570  0.91050  Biso   1.000  H
  H97      1.0000 0.14680  0.73380  0.89360  Biso   1.000  H
  H98      1.0000 0.09010  0.73900  0.14640  Biso   1.000  H
  H99      1.0000 0.44540  0.75720  0.80140  Biso   1.000  H
  H100     1.0000 0.44960  0.81680  0.74900  Biso   1.000  H
  H101     1.0000 0.55810  0.89670  0.02130  Biso   1.000  H
  H102     1.0000 0.75130  0.55460  0.67580  Biso   1.000  H
  H103     1.0000 0.70150  0.54110  0.73870  Biso   1.000  H
  H104     1.0000 0.46460  0.66530  0.64770  Biso   1.000  H
  C1       1.0000 0.04250  0.36630  0.12050  Biso   1.000  C
  C2       1.0000 0.62330  0.43090  0.18810  Biso   1.000  C
  C3       1.0000 0.87660  0.75690  0.11190  Biso   1.000  C
  C4       1.0000 0.93730  0.86110  0.13630  Biso   1.000  C
  C5       1.0000 0.85810  0.51250  0.22870  Biso   1.000  C
  C6       1.0000 0.91640  0.61660  0.25040  Biso   1.000  C
  C7       1.0000 0.65110  0.75780  0.10260  Biso   1.000  C
  C8       1.0000 0.59230  0.65400  0.09540  Biso   1.000  C
  C9       1.0000 0.11460  0.61350  0.34770  Biso   1.000  C
  C10      1.0000 0.16750  0.59730  0.24010  Biso   1.000  C
  C11      1.0000 0.91340  0.87320  0.44440  Biso   1.000  C
  C12      1.0000 0.88300  0.75760  0.41680  Biso   1.000  C
  C13      1.0000 0.67930  0.99790  0.26850  Biso   1.000  C
  C14      1.0000 0.62780  0.89040  0.26400  Biso   1.000  C
  C15      1.0000 0.00210  0.14660  0.15320  Biso   1.000  C
  C16      1.0000 0.04510  0.03200  0.10900  Biso   1.000  C
  C17      1.0000 0.13940  0.33550  0.39530  Biso   1.000  C
  C18      1.0000 0.01990  0.35620  0.34840  Biso   1.000  C
  C19      1.0000 0.45750  0.12050  0.36630  Biso   1.000  C
  C20      1.0000 0.87670  0.18810  0.43090  Biso   1.000  C
  C21      1.0000 0.62340  0.11190  0.75690  Biso   1.000  C
  C22      1.0000 0.56270  0.13630  0.86110  Biso   1.000  C
  C23      1.0000 0.64190  0.22870  0.51250  Biso   1.000  C
  C24      1.0000 0.58360  0.25040  0.61660  Biso   1.000  C
  C25      1.0000 0.84890  0.10260  0.75780  Biso   1.000  C
  C26      1.0000 0.90770  0.09540  0.65400  Biso   1.000  C
  C27      1.0000 0.38540  0.34770  0.61350  Biso   1.000  C
  C28      1.0000 0.33250  0.24010  0.59730  Biso   1.000  C
  C29      1.0000 0.58660  0.44440  0.87320  Biso   1.000  C
  C30      1.0000 0.61700  0.41680  0.75760  Biso   1.000  C
  C31      1.0000 0.82070  0.26850  0.99790  Biso   1.000  C
  C32      1.0000 0.87220  0.26400  0.89040  Biso   1.000  C
  C33      1.0000 0.49790  0.15320  0.14660  Biso   1.000  C
  C34      1.0000 0.45490  0.10900  0.03200  Biso   1.000  C
  C35      1.0000 0.36060  0.39530  0.33550  Biso   1.000  C
  C36      1.0000 0.48010  0.34840  0.35620  Biso   1.000  C
  C37      1.0000 0.95750  0.63370  0.87950  Biso   1.000  C
  C38      1.0000 0.37670  0.56910  0.81190  Biso   1.000  C
  C39      1.0000 0.12340  0.24310  0.88810  Biso   1.000  C
  C40      1.0000 0.06270  0.13890  0.86370  Biso   1.000  C
  C41      1.0000 0.14190  0.48750  0.77130  Biso   1.000  C
  C42      1.0000 0.08360  0.38340  0.74960  Biso   1.000  C
  C43      1.0000 0.34890  0.24220  0.89740  Biso   1.000  C
  C44      1.0000 0.40770  0.34600  0.90460  Biso   1.000  C
  C45      1.0000 0.88540  0.38650  0.65230  Biso   1.000  C
  C46      1.0000 0.83250  0.40270  0.75990  Biso   1.000  C
  C47      1.0000 0.08660  0.12680  0.55560  Biso   1.000  C
  C48      1.0000 0.11700  0.24240  0.58320  Biso   1.000  C
  C49      1.0000 0.32070  0.00210  0.73150  Biso   1.000  C
  C50      1.0000 0.37220  0.10960  0.73600  Biso   1.000  C
  C51      1.0000 0.99790  0.85340  0.84680  Biso   1.000  C
  C52      1.0000 0.95490  0.96800  0.89100  Biso   1.000  C
  C53      1.0000 0.86060  0.66450  0.60470  Biso   1.000  C
  C54      1.0000 0.98010  0.64380  0.65160  Biso   1.000  C
  C55      1.0000 0.54250  0.87950  0.63370  Biso   1.000  C
  C56      1.0000 0.12330  0.81190  0.56910  Biso   1.000  C
  C57      1.0000 0.37660  0.88810  0.24310  Biso   1.000  C
  C58      1.0000 0.43730  0.86370  0.13890  Biso   1.000  C
  C59      1.0000 0.35810  0.77130  0.48750  Biso   1.000  C
  C60      1.0000 0.41640  0.74960  0.38340  Biso   1.000  C
  C61      1.0000 0.15110  0.89740  0.24220  Biso   1.000  C
  C62      1.0000 0.09230  0.90460  0.34600  Biso   1.000  C
  C63      1.0000 0.61460  0.65230  0.38650  Biso   1.000  C
  C64      1.0000 0.66750  0.75990  0.40270  Biso   1.000  C
  C65      1.0000 0.41340  0.55560  0.12680  Biso   1.000  C
  C66      1.0000 0.38300  0.58320  0.24240  Biso   1.000  C
  C67      1.0000 0.17930  0.73150  0.00210  Biso   1.000  C
  C68      1.0000 0.12780  0.73600  0.10960  Biso   1.000  C
  C69      1.0000 0.50210  0.84680  0.85340  Biso   1.000  C
  C70      1.0000 0.54510  0.89100  0.96800  Biso   1.000  C
  C71      1.0000 0.63940  0.60470  0.66450  Biso   1.000  C
  C72      1.0000 0.51990  0.65160  0.64380  Biso   1.000  C
  N1       1.0000 0.93080  0.79708  0.08272  Biso   1.000  N
  N2       1.0000 0.85090  0.79338  0.17862  Biso   1.000  N
  N3       1.0000 0.89200  0.86171  0.19389  Biso   1.000  N
  N4       1.0000 0.85280  0.68850  0.07770  Biso   1.000  N
  N5       1.0000 0.93300  0.53904  0.23896  Biso   1.000  N
  N6       1.0000 0.79970  0.57004  0.23296  Biso   1.000  N
  N7       1.0000 0.83810  0.63828  0.24772  Biso   1.000  N
  N8       1.0000 0.84490  0.43570  0.21610  Biso   1.000  N
  N9       1.0000 0.59150  0.71785  0.06075  Biso   1.000  N
  N10      1.0000 0.68560  0.72125  0.16055  Biso   1.000  N
  N11      1.0000 0.64660  0.65295  0.15465  Biso   1.000  N
  N12      1.0000 0.67500  0.82460  0.08680  Biso   1.000  N
  N13      1.0000 0.11670  0.56530  0.28090  Biso   1.000  N
  N14      1.0000 0.16000  0.67212  0.34908  Biso   1.000  N
  N15      1.0000 0.19490  0.66132  0.27808  Biso   1.000  N
  N16      1.0000 0.06760  0.60620  0.40620  Biso   1.000  N
  N17      1.0000 0.91680  0.80681  0.47539  Biso   1.000  N
  N18      1.0000 0.88100  0.86620  0.37140  Biso   1.000  N
  N19      1.0000 0.86050  0.78990  0.35370  Biso   1.000  N
  N20      1.0000 0.94230  0.93950  0.48330  Biso   1.000  N
  N21      1.0000 0.60630  0.96803  0.26137  Biso   1.000  N
  N22      1.0000 0.74150  0.94370  0.27390  Biso   1.000  N
  N23      1.0000 0.70710  0.87348  0.27112  Biso   1.000  N
  N24      1.0000 0.68890  0.07380  0.26980  Biso   1.000  N
  N25      1.0000 0.02020  0.07770  0.17370  Biso   1.000  N
  N26      1.0000 0.01540  0.15151  0.07969  Biso   1.000  N
  N27      1.0000 0.04710  0.07850  0.05610  Biso   1.000  N
  N28      1.0000 0.96040  0.20630  0.19890  Biso   1.000  N
  N29      1.0000 0.06520  0.30660  0.38880  Biso   1.000  N
  N30      1.0000 0.13930  0.39860  0.36200  Biso   1.000  N
  N31      1.0000 0.05920  0.41070  0.32990  Biso   1.000  N
  N32      1.0000 0.20590  0.30280  0.43880  Biso   1.000  N
  N33      1.0000 0.56920  0.08272  0.79708  Biso   1.000  N
  N34      1.0000 0.64910  0.17862  0.79338  Biso   1.000  N
  N35      1.0000 0.60800  0.19389  0.86171  Biso   1.000  N
  N36      1.0000 0.64720  0.07770  0.68850  Biso   1.000  N
  N37      1.0000 0.56700  0.23896  0.53904  Biso   1.000  N
  N38      1.0000 0.70030  0.23296  0.57004  Biso   1.000  N
  N39      1.0000 0.66190  0.24772  0.63828  Biso   1.000  N
  N40      1.0000 0.65510  0.21610  0.43570  Biso   1.000  N
  N41      1.0000 0.90850  0.06075  0.71785  Biso   1.000  N
  N42      1.0000 0.81440  0.16055  0.72125  Biso   1.000  N
  N43      1.0000 0.85340  0.15465  0.65295  Biso   1.000  N
  N44      1.0000 0.82500  0.08680  0.82460  Biso   1.000  N
  N45      1.0000 0.38330  0.28090  0.56530  Biso   1.000  N
  N46      1.0000 0.34000  0.34908  0.67212  Biso   1.000  N
  N47      1.0000 0.30510  0.27808  0.66132  Biso   1.000  N
  N48      1.0000 0.43240  0.40620  0.60620  Biso   1.000  N
  N49      1.0000 0.58320  0.47539  0.80681  Biso   1.000  N
  N50      1.0000 0.61900  0.37140  0.86620  Biso   1.000  N
  N51      1.0000 0.63950  0.35370  0.78990  Biso   1.000  N
  N52      1.0000 0.55770  0.48330  0.93950  Biso   1.000  N
  N53      1.0000 0.89370  0.26137  0.96803  Biso   1.000  N
  N54      1.0000 0.75850  0.27390  0.94370  Biso   1.000  N
  N55      1.0000 0.79290  0.27112  0.87348  Biso   1.000  N
  N56      1.0000 0.81110  0.26980  0.07380  Biso   1.000  N
  N57      1.0000 0.47980  0.17370  0.07770  Biso   1.000  N
  N58      1.0000 0.48460  0.07969  0.15151  Biso   1.000  N
  N59      1.0000 0.45290  0.05610  0.07850  Biso   1.000  N
  N60      1.0000 0.53960  0.19890  0.20630  Biso   1.000  N
  N61      1.0000 0.43480  0.38880  0.30660  Biso   1.000  N
  N62      1.0000 0.36070  0.36200  0.39860  Biso   1.000  N
  N63      1.0000 0.44080  0.32990  0.41070  Biso   1.000  N
  N64      1.0000 0.29410  0.43880  0.30280  Biso   1.000  N
  N65      1.0000 0.06920  0.20292  0.91728  Biso   1.000  N
  N66      1.0000 0.14910  0.20662  0.82138  Biso   1.000  N
  N67      1.0000 0.10800  0.13829  0.80611  Biso   1.000  N
  N68      1.0000 0.14720  0.31150  0.92230  Biso   1.000  N
  N69      1.0000 0.06700  0.46096  0.76104  Biso   1.000  N
  N70      1.0000 0.20030  0.42996  0.76704  Biso   1.000  N
  N71      1.0000 0.16190  0.36172  0.75228  Biso   1.000  N
  N72      1.0000 0.15510  0.56430  0.78390  Biso   1.000  N
  N73      1.0000 0.40850  0.28215  0.93925  Biso   1.000  N
  N74      1.0000 0.31440  0.27875  0.83945  Biso   1.000  N
  N75      1.0000 0.35340  0.34705  0.84535  Biso   1.000  N
  N76      1.0000 0.32500  0.17540  0.91320  Biso   1.000  N
  N77      1.0000 0.88330  0.43470  0.71910  Biso   1.000  N
  N78      1.0000 0.84000  0.32788  0.65092  Biso   1.000  N
  N79      1.0000 0.80510  0.33868  0.72192  Biso   1.000  N
  N80      1.0000 0.93240  0.39380  0.59380  Biso   1.000  N
  N81      1.0000 0.08320  0.19319  0.52461  Biso   1.000  N
  N82      1.0000 0.11900  0.13380  0.62860  Biso   1.000  N
  N83      1.0000 0.13950  0.21010  0.64630  Biso   1.000  N
  N84      1.0000 0.05770  0.06050  0.51670  Biso   1.000  N
  N85      1.0000 0.39370  0.03197  0.73863  Biso   1.000  N
  N86      1.0000 0.25850  0.05630  0.72610  Biso   1.000  N
  N87      1.0000 0.29290  0.12652  0.72888  Biso   1.000  N
  N88      1.0000 0.31110  0.92620  0.73020  Biso   1.000  N
  N89      1.0000 0.97980  0.92230  0.82630  Biso   1.000  N
  N90      1.0000 0.98460  0.84849  0.92031  Biso   1.000  N
  N91      1.0000 0.95290  0.92150  0.94390  Biso   1.000  N
  N92      1.0000 0.03960  0.79370  0.80110  Biso   1.000  N
  N93      1.0000 0.93480  0.69340  0.61120  Biso   1.000  N
  N94      1.0000 0.86070  0.60140  0.63800  Biso   1.000  N
  N95      1.0000 0.94080  0.58930  0.67010  Biso   1.000  N
  N96      1.0000 0.79410  0.69720  0.56120  Biso   1.000  N
  N97      1.0000 0.43080  0.91728  0.20292  Biso   1.000  N
  N98      1.0000 0.35090  0.82138  0.20662  Biso   1.000  N
  N99      1.0000 0.39200  0.80611  0.13829  Biso   1.000  N
  N100     1.0000 0.35280  0.92230  0.31150  Biso   1.000  N
  N101     1.0000 0.43300  0.76104  0.46096  Biso   1.000  N
  N102     1.0000 0.29970  0.76704  0.42996  Biso   1.000  N
  N103     1.0000 0.33810  0.75228  0.36172  Biso   1.000  N
  N104     1.0000 0.34490  0.78390  0.56430  Biso   1.000  N
  N105     1.0000 0.09150  0.93925  0.28215  Biso   1.000  N
  N106     1.0000 0.18560  0.83945  0.27875  Biso   1.000  N
  N107     1.0000 0.14660  0.84535  0.34705  Biso   1.000  N
  N108     1.0000 0.17500  0.91320  0.17540  Biso   1.000  N
  N109     1.0000 0.61670  0.71910  0.43470  Biso   1.000  N
  N110     1.0000 0.66000  0.65092  0.32788  Biso   1.000  N
  N111     1.0000 0.69490  0.72192  0.33868  Biso   1.000  N
  N112     1.0000 0.56760  0.59380  0.39380  Biso   1.000  N
  N113     1.0000 0.41680  0.52461  0.19319  Biso   1.000  N
  N114     1.0000 0.38100  0.62860  0.13380  Biso   1.000  N
  N115     1.0000 0.36050  0.64630  0.21010  Biso   1.000  N
  N116     1.0000 0.44230  0.51670  0.06050  Biso   1.000  N
  N117     1.0000 0.10630  0.73863  0.03197  Biso   1.000  N
  N118     1.0000 0.24150  0.72610  0.05630  Biso   1.000  N
  N119     1.0000 0.20710  0.72888  0.12652  Biso   1.000  N
  N120     1.0000 0.18890  0.73020  0.92620  Biso   1.000  N
  N121     1.0000 0.52020  0.82630  0.92230  Biso   1.000  N
  N122     1.0000 0.51540  0.92031  0.84849  Biso   1.000  N
  N123     1.0000 0.54710  0.94390  0.92150  Biso   1.000  N
  N124     1.0000 0.46040  0.80110  0.79370  Biso   1.000  N
  N125     1.0000 0.56520  0.61120  0.69340  Biso   1.000  N
  N126     1.0000 0.63930  0.63800  0.60140  Biso   1.000  N
  N127     1.0000 0.55920  0.67010  0.58930  Biso   1.000  N
  N128     1.0000 0.70590  0.56120  0.69720  Biso   1.000  N
  O1       1.0000 0.92390  0.02450  0.30990  Biso   1.000  O
  O2       1.0000 0.08430  0.11445  0.35445  Biso   1.000  O
  O3       1.0000 0.98000  0.35003  0.14817  Biso   1.000  O
  O4       1.0000 0.08360  0.42432  0.15150  Biso   1.000  O
  O5       1.0000 0.07000  0.32468  0.05988  Biso   1.000  O
  O6       1.0000 0.61390  0.49379  0.23481  Biso   1.000  O
  O7       1.0000 0.57180  0.37910  0.18690  Biso   1.000  O
  O8       1.0000 0.68530  0.40660  0.15160  Biso   1.000  O
  O9       1.0000 0.57610  0.30990  0.02450  Biso   1.000  O
  O10      1.0000 0.41570  0.35445  0.11445  Biso   1.000  O
  O11      1.0000 0.52000  0.14817  0.35003  Biso   1.000  O
  O12      1.0000 0.41640  0.15150  0.42432  Biso   1.000  O
  O13      1.0000 0.43000  0.05988  0.32468  Biso   1.000  O
  O14      1.0000 0.88610  0.23481  0.49379  Biso   1.000  O
  O15      1.0000 0.92820  0.18690  0.37910  Biso   1.000  O
  O16      1.0000 0.81470  0.15160  0.40660  Biso   1.000  O
  O17      1.0000 0.07610  0.97550  0.69010  Biso   1.000  O
  O18      1.0000 0.91570  0.88555  0.64555  Biso   1.000  O
  O19      1.0000 0.02000  0.64997  0.85183  Biso   1.000  O
  O20      1.0000 0.91640  0.57568  0.84850  Biso   1.000  O
  O21      1.0000 0.93000  0.67532  0.94012  Biso   1.000  O
  O22      1.0000 0.38610  0.50621  0.76519  Biso   1.000  O
  O23      1.0000 0.42820  0.62090  0.81310  Biso   1.000  O
  O24      1.0000 0.31470  0.59340  0.84840  Biso   1.000  O
  O25      1.0000 0.42390  0.69010  0.97550  Biso   1.000  O
  O26      1.0000 0.58430  0.64555  0.88555  Biso   1.000  O
  O27      1.0000 0.48000  0.85183  0.64997  Biso   1.000  O
  O28      1.0000 0.58360  0.84850  0.57568  Biso   1.000  O
  O29      1.0000 0.57000  0.94012  0.67532  Biso   1.000  O
  O30      1.0000 0.11390  0.76519  0.50621  Biso   1.000  O
  O31      1.0000 0.07180  0.81310  0.62090  Biso   1.000  O
  O32      1.0000 0.18530  0.84840  0.59340  Biso   1.000  O
