data_image0
_cell_length_a       3.6769
_cell_length_b       8.2042
_cell_length_c       26.292
_cell_angle_alpha    90
_cell_angle_beta     92.924
_cell_angle_gamma    90

_symmetry_space_group_name_H-M    P 1
_symmetry_int_tables_number       1

loop_
  _symmetry_equiv_pos_as_xyz
  'x, y, z'

loop_
  _atom_site_label
  _atom_site_occupancy
  _atom_site_fract_x
  _atom_site_fract_y
  _atom_site_fract_z
  _atom_site_thermal_displace_type
  _atom_site_B_iso_or_equiv
  _atom_site_type_symbol
  K1       1.0000 0.93767  0.27204  0.77711  Biso   1.000  K
  K2       1.0000 0.06233  0.77204  0.72289  Biso   1.000  K
  K3       1.0000 0.06233  0.72796  0.22289  Biso   1.000  K
  K4       1.0000 0.93767  0.22796  0.27711  Biso   1.000  K
  H1       1.0000 0.50100  0.54600  0.82520  Biso   1.000  H
  H2       1.0000 0.47200  0.46100  0.86800  Biso   1.000  H
  H3       1.0000 0.46480  0.66250  0.62080  Biso   1.000  H
  H4       1.0000 0.08620  0.20320  0.61370  Biso   1.000  H
  H5       1.0000 0.88940  0.24900  0.52930  Biso   1.000  H
  H6       1.0000 0.49900  0.04600  0.67480  Biso   1.000  H
  H7       1.0000 0.52800  0.96100  0.63200  Biso   1.000  H
  H8       1.0000 0.53520  0.16250  0.87920  Biso   1.000  H
  H9       1.0000 0.91380  0.70320  0.88630  Biso   1.000  H
  H10      1.0000 0.11060  0.74900  0.97070  Biso   1.000  H
  H11      1.0000 0.49900  0.45400  0.17480  Biso   1.000  H
  H12      1.0000 0.52800  0.53900  0.13200  Biso   1.000  H
  H13      1.0000 0.53520  0.33750  0.37920  Biso   1.000  H
  H14      1.0000 0.91380  0.79680  0.38630  Biso   1.000  H
  H15      1.0000 0.11060  0.75100  0.47070  Biso   1.000  H
  H16      1.0000 0.50100  0.95400  0.32520  Biso   1.000  H
  H17      1.0000 0.47200  0.03900  0.36800  Biso   1.000  H
  H18      1.0000 0.46480  0.83750  0.12080  Biso   1.000  H
  H19      1.0000 0.08620  0.29680  0.11370  Biso   1.000  H
  H20      1.0000 0.88940  0.25100  0.02930  Biso   1.000  H
  C1       1.0000 0.06500  0.48320  0.52690  Biso   1.000  C
  C2       1.0000 0.34730  0.57660  0.60212  Biso   1.000  C
  C3       1.0000 0.30190  0.42960  0.62636  Biso   1.000  C
  C4       1.0000 0.12560  0.30620  0.59838  Biso   1.000  C
  C5       1.0000 0.00840  0.33310  0.54857  Biso   1.000  C
  C6       1.0000 0.44180  0.40400  0.68102  Biso   1.000  C
  C7       1.0000 0.93500  0.98320  0.97310  Biso   1.000  C
  C8       1.0000 0.65270  0.07660  0.89788  Biso   1.000  C
  C9       1.0000 0.69810  0.92960  0.87364  Biso   1.000  C
  C10      1.0000 0.87440  0.80620  0.90162  Biso   1.000  C
  C11      1.0000 0.99160  0.83310  0.95143  Biso   1.000  C
  C12      1.0000 0.55820  0.90400  0.81898  Biso   1.000  C
  C13      1.0000 0.93500  0.51680  0.47310  Biso   1.000  C
  C14      1.0000 0.65270  0.42340  0.39788  Biso   1.000  C
  C15      1.0000 0.69810  0.57040  0.37364  Biso   1.000  C
  C16      1.0000 0.87440  0.69380  0.40162  Biso   1.000  C
  C17      1.0000 0.99160  0.66690  0.45143  Biso   1.000  C
  C18      1.0000 0.55820  0.59600  0.31898  Biso   1.000  C
  C19      1.0000 0.06500  0.01680  0.02690  Biso   1.000  C
  C20      1.0000 0.34730  0.92340  0.10212  Biso   1.000  C
  C21      1.0000 0.30190  0.07040  0.12636  Biso   1.000  C
  C22      1.0000 0.12560  0.19380  0.09838  Biso   1.000  C
  C23      1.0000 0.00840  0.16690  0.04857  Biso   1.000  C
  C24      1.0000 0.44180  0.09600  0.18102  Biso   1.000  C
  N1       1.0000 0.23410  0.60530  0.55333  Biso   1.000  N
  N2       1.0000 0.76590  0.10530  0.94667  Biso   1.000  N
  N3       1.0000 0.76590  0.39470  0.44667  Biso   1.000  N
  N4       1.0000 0.23410  0.89470  0.05333  Biso   1.000  N
  O1       1.0000 0.40910  0.26320  0.69934  Biso   1.000  O
  O2       1.0000 0.57840  0.52380  0.70422  Biso   1.000  O
  O3       1.0000 0.45070  0.45340  0.83661  Biso   1.000  O
  O4       1.0000 0.59090  0.76320  0.80066  Biso   1.000  O
  O5       1.0000 0.42160  0.02380  0.79578  Biso   1.000  O
  O6       1.0000 0.54930  0.95340  0.66339  Biso   1.000  O
  O7       1.0000 0.59090  0.73680  0.30066  Biso   1.000  O
  O8       1.0000 0.42160  0.47620  0.29578  Biso   1.000  O
  O9       1.0000 0.54930  0.54660  0.16339  Biso   1.000  O
  O10      1.0000 0.40910  0.23680  0.19934  Biso   1.000  O
  O11      1.0000 0.57840  0.97620  0.20422  Biso   1.000  O
  O12      1.0000 0.45070  0.04660  0.33661  Biso   1.000  O
