data_image0
_cell_length_a       5.5294
_cell_length_b       13.3523
_cell_length_c       20.642
_cell_angle_alpha    90
_cell_angle_beta     95.378
_cell_angle_gamma    90

_symmetry_space_group_name_H-M    P 1
_symmetry_int_tables_number       1

loop_
  _symmetry_equiv_pos_as_xyz
  'x, y, z'

loop_
  _atom_site_label
  _atom_site_occupancy
  _atom_site_fract_x
  _atom_site_fract_y
  _atom_site_fract_z
  _atom_site_thermal_displace_type
  _atom_site_B_iso_or_equiv
  _atom_site_type_symbol
  Tb1      1.0000 0.87235  0.63267  0.52782  Biso   1.000  Tb
  Tb2      1.0000 0.12765  0.13267  0.97218  Biso   1.000  Tb
  Tb3      1.0000 0.12765  0.36733  0.47218  Biso   1.000  Tb
  Tb4      1.0000 0.87235  0.86733  0.02782  Biso   1.000  Tb
  P1       1.0000 0.58990  0.52088  0.41395  Biso   1.000  P
  P2       1.0000 0.41010  0.02088  0.08605  Biso   1.000  P
  P3       1.0000 0.41010  0.47912  0.58605  Biso   1.000  P
  P4       1.0000 0.58990  0.97912  0.91395  Biso   1.000  P
  H1       1.0000 0.83510  0.58020  0.33670  Biso   1.000  H
  H2       1.0000 0.74060  0.47290  0.31710  Biso   1.000  H
  H3       1.0000 0.62260  0.72860  0.29840  Biso   1.000  H
  H4       1.0000 0.41440  0.69890  0.34170  Biso   1.000  H
  H5       1.0000 0.12480  0.70130  0.24880  Biso   1.000  H
  H6       1.0000 0.25350  0.80610  0.25490  Biso   1.000  H
  H7       1.0000 0.51540  0.75850  0.17540  Biso   1.000  H
  H8       1.0000 0.45170  0.59980  0.12200  Biso   1.000  H
  H9       1.0000 0.24810  0.57360  0.16760  Biso   1.000  H
  H10      1.0000 0.62530  0.49770  0.20980  Biso   1.000  H
  H11      1.0000 0.74850  0.60390  0.21510  Biso   1.000  H
  H12      1.0000 0.18620  0.72300  0.44710  Biso   1.000  H
  H13      1.0000 0.12750  0.63190  0.41770  Biso   1.000  H
  H14      1.0000 0.72050  0.81910  0.56540  Biso   1.000  H
  H15      1.0000 0.65290  0.81530  0.49940  Biso   1.000  H
  H16      1.0000 0.16490  0.08020  0.16330  Biso   1.000  H
  H17      1.0000 0.25940  0.97290  0.18290  Biso   1.000  H
  H18      1.0000 0.37740  0.22860  0.20160  Biso   1.000  H
  H19      1.0000 0.58560  0.19890  0.15830  Biso   1.000  H
  H20      1.0000 0.87520  0.20130  0.25120  Biso   1.000  H
  H21      1.0000 0.74650  0.30610  0.24510  Biso   1.000  H
  H22      1.0000 0.48460  0.25850  0.32460  Biso   1.000  H
  H23      1.0000 0.54830  0.09980  0.37800  Biso   1.000  H
  H24      1.0000 0.75190  0.07360  0.33240  Biso   1.000  H
  H25      1.0000 0.37470  0.99770  0.29020  Biso   1.000  H
  H26      1.0000 0.25150  0.10390  0.28490  Biso   1.000  H
  H27      1.0000 0.81380  0.22300  0.05290  Biso   1.000  H
  H28      1.0000 0.87250  0.13190  0.08230  Biso   1.000  H
  H29      1.0000 0.27950  0.31910  0.93460  Biso   1.000  H
  H30      1.0000 0.34710  0.31530  0.00060  Biso   1.000  H
  H31      1.0000 0.16490  0.41980  0.66330  Biso   1.000  H
  H32      1.0000 0.25940  0.52710  0.68290  Biso   1.000  H
  H33      1.0000 0.37740  0.27140  0.70160  Biso   1.000  H
  H34      1.0000 0.58560  0.30110  0.65830  Biso   1.000  H
  H35      1.0000 0.87520  0.29870  0.75120  Biso   1.000  H
  H36      1.0000 0.74650  0.19390  0.74510  Biso   1.000  H
  H37      1.0000 0.48460  0.24150  0.82460  Biso   1.000  H
  H38      1.0000 0.54830  0.40020  0.87800  Biso   1.000  H
  H39      1.0000 0.75190  0.42640  0.83240  Biso   1.000  H
  H40      1.0000 0.37470  0.50230  0.79020  Biso   1.000  H
  H41      1.0000 0.25150  0.39610  0.78490  Biso   1.000  H
  H42      1.0000 0.81380  0.27700  0.55290  Biso   1.000  H
  H43      1.0000 0.87250  0.36810  0.58230  Biso   1.000  H
  H44      1.0000 0.27950  0.18090  0.43460  Biso   1.000  H
  H45      1.0000 0.34710  0.18470  0.50060  Biso   1.000  H
  H46      1.0000 0.83510  0.91980  0.83670  Biso   1.000  H
  H47      1.0000 0.74060  0.02710  0.81710  Biso   1.000  H
  H48      1.0000 0.62260  0.77140  0.79840  Biso   1.000  H
  H49      1.0000 0.41440  0.80110  0.84170  Biso   1.000  H
  H50      1.0000 0.12480  0.79870  0.74880  Biso   1.000  H
  H51      1.0000 0.25350  0.69390  0.75490  Biso   1.000  H
  H52      1.0000 0.51540  0.74150  0.67540  Biso   1.000  H
  H53      1.0000 0.45170  0.90020  0.62200  Biso   1.000  H
  H54      1.0000 0.24810  0.92640  0.66760  Biso   1.000  H
  H55      1.0000 0.62530  0.00230  0.70980  Biso   1.000  H
  H56      1.0000 0.74850  0.89610  0.71510  Biso   1.000  H
  H57      1.0000 0.18620  0.77700  0.94710  Biso   1.000  H
  H58      1.0000 0.12750  0.86810  0.91770  Biso   1.000  H
  H59      1.0000 0.72050  0.68090  0.06540  Biso   1.000  H
  H60      1.0000 0.65290  0.68470  0.99940  Biso   1.000  H
  C1       1.0000 0.69220  0.53770  0.33280  Biso   1.000  C
  C2       1.0000 0.47090  0.69220  0.29880  Biso   1.000  C
  C3       1.0000 0.27830  0.73560  0.24640  Biso   1.000  C
  C4       1.0000 0.36150  0.72300  0.17790  Biso   1.000  C
  C5       1.0000 0.39960  0.60940  0.16510  Biso   1.000  C
  C6       1.0000 0.59690  0.56820  0.21750  Biso   1.000  C
  C7       1.0000 0.17040  0.76420  0.12510  Biso   1.000  C
  C8       1.0000 0.30780  0.03770  0.16720  Biso   1.000  C
  C9       1.0000 0.52910  0.19220  0.20120  Biso   1.000  C
  C10      1.0000 0.72170  0.23560  0.25360  Biso   1.000  C
  C11      1.0000 0.63850  0.22300  0.32210  Biso   1.000  C
  C12      1.0000 0.60040  0.10940  0.33490  Biso   1.000  C
  C13      1.0000 0.40310  0.06820  0.28250  Biso   1.000  C
  C14      1.0000 0.82960  0.26420  0.37490  Biso   1.000  C
  C15      1.0000 0.30780  0.46230  0.66720  Biso   1.000  C
  C16      1.0000 0.52910  0.30780  0.70120  Biso   1.000  C
  C17      1.0000 0.72170  0.26440  0.75360  Biso   1.000  C
  C18      1.0000 0.63850  0.27700  0.82210  Biso   1.000  C
  C19      1.0000 0.60040  0.39060  0.83490  Biso   1.000  C
  C20      1.0000 0.40310  0.43180  0.78250  Biso   1.000  C
  C21      1.0000 0.82960  0.23580  0.87490  Biso   1.000  C
  C22      1.0000 0.69220  0.96230  0.83280  Biso   1.000  C
  C23      1.0000 0.47090  0.80780  0.79880  Biso   1.000  C
  C24      1.0000 0.27830  0.76440  0.74640  Biso   1.000  C
  C25      1.0000 0.36150  0.77700  0.67790  Biso   1.000  C
  C26      1.0000 0.39960  0.89060  0.66510  Biso   1.000  C
  C27      1.0000 0.59690  0.93180  0.71750  Biso   1.000  C
  C28      1.0000 0.17040  0.73580  0.62510  Biso   1.000  C
  N1       1.0000 0.50950  0.58220  0.28340  Biso   1.000  N
  N2       1.0000 0.49050  0.08220  0.21660  Biso   1.000  N
  N3       1.0000 0.49050  0.41780  0.71660  Biso   1.000  N
  N4       1.0000 0.50950  0.91780  0.78340  Biso   1.000  N
  O1       1.0000 0.54080  0.62300  0.44440  Biso   1.000  O
  O2       1.0000 0.82240  0.48140  0.45430  Biso   1.000  O
  O3       1.0000 0.37600  0.45020  0.40914  Biso   1.000  O
  O4       1.0000 0.00200  0.81920  0.14090  Biso   1.000  O
  O5       1.0000 0.19780  0.74880  0.06740  Biso   1.000  O
  O6       1.0000 0.07100  0.68300  0.43500  Biso   1.000  O
  O7       1.0000 0.65400  0.78400  0.53500  Biso   1.000  O
  O8       1.0000 0.45920  0.12300  0.05560  Biso   1.000  O
  O9       1.0000 0.17760  0.98140  0.04570  Biso   1.000  O
  O10      1.0000 0.62400  0.95020  0.09086  Biso   1.000  O
  O11      1.0000 0.99800  0.31920  0.35910  Biso   1.000  O
  O12      1.0000 0.80220  0.24880  0.43260  Biso   1.000  O
  O13      1.0000 0.92900  0.18300  0.06500  Biso   1.000  O
  O14      1.0000 0.34600  0.28400  0.96500  Biso   1.000  O
  O15      1.0000 0.45920  0.37700  0.55560  Biso   1.000  O
  O16      1.0000 0.17760  0.51860  0.54570  Biso   1.000  O
  O17      1.0000 0.62400  0.54980  0.59086  Biso   1.000  O
  O18      1.0000 0.99800  0.18080  0.85910  Biso   1.000  O
  O19      1.0000 0.80220  0.25120  0.93260  Biso   1.000  O
  O20      1.0000 0.92900  0.31700  0.56500  Biso   1.000  O
  O21      1.0000 0.34600  0.21600  0.46500  Biso   1.000  O
  O22      1.0000 0.54080  0.87700  0.94440  Biso   1.000  O
  O23      1.0000 0.82240  0.01860  0.95430  Biso   1.000  O
  O24      1.0000 0.37600  0.04980  0.90914  Biso   1.000  O
  O25      1.0000 0.00200  0.68080  0.64090  Biso   1.000  O
  O26      1.0000 0.19780  0.75120  0.56740  Biso   1.000  O
  O27      1.0000 0.07100  0.81700  0.93500  Biso   1.000  O
  O28      1.0000 0.65400  0.71600  0.03500  Biso   1.000  O
