data_image0
_cell_length_a       5.515
_cell_length_b       13.393
_cell_length_c       20.8105
_cell_angle_alpha    90
_cell_angle_beta     95.382
_cell_angle_gamma    90

_symmetry_space_group_name_H-M    P 1
_symmetry_int_tables_number       1

loop_
  _symmetry_equiv_pos_as_xyz
  'x, y, z'

loop_
  _atom_site_label
  _atom_site_occupancy
  _atom_site_fract_x
  _atom_site_fract_y
  _atom_site_fract_z
  _atom_site_thermal_displace_type
  _atom_site_B_iso_or_equiv
  _atom_site_type_symbol
  Gd1      1.0000 0.87244  0.63255  0.52777  Biso   1.000  Gd
  Gd2      1.0000 0.12756  0.13255  0.97223  Biso   1.000  Gd
  Gd3      1.0000 0.12756  0.36745  0.47223  Biso   1.000  Gd
  Gd4      1.0000 0.87244  0.86745  0.02777  Biso   1.000  Gd
  P1       1.0000 0.59070  0.52121  0.41416  Biso   1.000  P
  P2       1.0000 0.40930  0.02121  0.08584  Biso   1.000  P
  P3       1.0000 0.40930  0.47879  0.58584  Biso   1.000  P
  P4       1.0000 0.59070  0.97879  0.91416  Biso   1.000  P
  H1       1.0000 0.83240  0.58220  0.33670  Biso   1.000  H
  H2       1.0000 0.74350  0.47450  0.31770  Biso   1.000  H
  H3       1.0000 0.62120  0.72770  0.29920  Biso   1.000  H
  H4       1.0000 0.40950  0.69700  0.34090  Biso   1.000  H
  H5       1.0000 0.25550  0.80510  0.25590  Biso   1.000  H
  H6       1.0000 0.12650  0.70080  0.24850  Biso   1.000  H
  H7       1.0000 0.51840  0.76000  0.17500  Biso   1.000  H
  H8       1.0000 0.24730  0.57390  0.16790  Biso   1.000  H
  H9       1.0000 0.45130  0.59850  0.12240  Biso   1.000  H
  H10      1.0000 0.62530  0.49690  0.20950  Biso   1.000  H
  H11      1.0000 0.75000  0.60260  0.21490  Biso   1.000  H
  H12      1.0000 0.18610  0.72300  0.44760  Biso   1.000  H
  H13      1.0000 0.12790  0.63200  0.41820  Biso   1.000  H
  H14      1.0000 0.72220  0.81840  0.56570  Biso   1.000  H
  H15      1.0000 0.65480  0.81510  0.49980  Biso   1.000  H
  H16      1.0000 0.16760  0.08220  0.16330  Biso   1.000  H
  H17      1.0000 0.25650  0.97450  0.18230  Biso   1.000  H
  H18      1.0000 0.37880  0.22770  0.20080  Biso   1.000  H
  H19      1.0000 0.59050  0.19700  0.15910  Biso   1.000  H
  H20      1.0000 0.74450  0.30510  0.24410  Biso   1.000  H
  H21      1.0000 0.87350  0.20080  0.25150  Biso   1.000  H
  H22      1.0000 0.48160  0.26000  0.32500  Biso   1.000  H
  H23      1.0000 0.75270  0.07390  0.33210  Biso   1.000  H
  H24      1.0000 0.54870  0.09850  0.37760  Biso   1.000  H
  H25      1.0000 0.37470  0.99690  0.29050  Biso   1.000  H
  H26      1.0000 0.25000  0.10260  0.28510  Biso   1.000  H
  H27      1.0000 0.81390  0.22300  0.05240  Biso   1.000  H
  H28      1.0000 0.87210  0.13200  0.08180  Biso   1.000  H
  H29      1.0000 0.27780  0.31840  0.93430  Biso   1.000  H
  H30      1.0000 0.34520  0.31510  0.00020  Biso   1.000  H
  H31      1.0000 0.16760  0.41780  0.66330  Biso   1.000  H
  H32      1.0000 0.25650  0.52550  0.68230  Biso   1.000  H
  H33      1.0000 0.37880  0.27230  0.70080  Biso   1.000  H
  H34      1.0000 0.59050  0.30300  0.65910  Biso   1.000  H
  H35      1.0000 0.74450  0.19490  0.74410  Biso   1.000  H
  H36      1.0000 0.87350  0.29920  0.75150  Biso   1.000  H
  H37      1.0000 0.48160  0.24000  0.82500  Biso   1.000  H
  H38      1.0000 0.75270  0.42610  0.83210  Biso   1.000  H
  H39      1.0000 0.54870  0.40150  0.87760  Biso   1.000  H
  H40      1.0000 0.37470  0.50310  0.79050  Biso   1.000  H
  H41      1.0000 0.25000  0.39740  0.78510  Biso   1.000  H
  H42      1.0000 0.81390  0.27700  0.55240  Biso   1.000  H
  H43      1.0000 0.87210  0.36800  0.58180  Biso   1.000  H
  H44      1.0000 0.27780  0.18160  0.43430  Biso   1.000  H
  H45      1.0000 0.34520  0.18490  0.50020  Biso   1.000  H
  H46      1.0000 0.83240  0.91780  0.83670  Biso   1.000  H
  H47      1.0000 0.74350  0.02550  0.81770  Biso   1.000  H
  H48      1.0000 0.62120  0.77230  0.79920  Biso   1.000  H
  H49      1.0000 0.40950  0.80300  0.84090  Biso   1.000  H
  H50      1.0000 0.25550  0.69490  0.75590  Biso   1.000  H
  H51      1.0000 0.12650  0.79920  0.74850  Biso   1.000  H
  H52      1.0000 0.51840  0.74000  0.67500  Biso   1.000  H
  H53      1.0000 0.24730  0.92610  0.66790  Biso   1.000  H
  H54      1.0000 0.45130  0.90150  0.62240  Biso   1.000  H
  H55      1.0000 0.62530  0.00310  0.70950  Biso   1.000  H
  H56      1.0000 0.75000  0.89740  0.71490  Biso   1.000  H
  H57      1.0000 0.18610  0.77700  0.94760  Biso   1.000  H
  H58      1.0000 0.12790  0.86800  0.91820  Biso   1.000  H
  H59      1.0000 0.72220  0.68160  0.06570  Biso   1.000  H
  H60      1.0000 0.65480  0.68490  0.99980  Biso   1.000  H
  C1       1.0000 0.69110  0.53880  0.33290  Biso   1.000  C
  C2       1.0000 0.46890  0.69130  0.29870  Biso   1.000  C
  C3       1.0000 0.28070  0.73510  0.24670  Biso   1.000  C
  C4       1.0000 0.36400  0.72470  0.17760  Biso   1.000  C
  C5       1.0000 0.40000  0.60890  0.16520  Biso   1.000  C
  C6       1.0000 0.59760  0.56720  0.21720  Biso   1.000  C
  C7       1.0000 0.17130  0.76390  0.12500  Biso   1.000  C
  C8       1.0000 0.30890  0.03880  0.16710  Biso   1.000  C
  C9       1.0000 0.53110  0.19130  0.20130  Biso   1.000  C
  C10      1.0000 0.71930  0.23510  0.25330  Biso   1.000  C
  C11      1.0000 0.63600  0.22470  0.32240  Biso   1.000  C
  C12      1.0000 0.60000  0.10890  0.33480  Biso   1.000  C
  C13      1.0000 0.40240  0.06720  0.28280  Biso   1.000  C
  C14      1.0000 0.82870  0.26390  0.37500  Biso   1.000  C
  C15      1.0000 0.30890  0.46120  0.66710  Biso   1.000  C
  C16      1.0000 0.53110  0.30870  0.70130  Biso   1.000  C
  C17      1.0000 0.71930  0.26490  0.75330  Biso   1.000  C
  C18      1.0000 0.63600  0.27530  0.82240  Biso   1.000  C
  C19      1.0000 0.60000  0.39110  0.83480  Biso   1.000  C
  C20      1.0000 0.40240  0.43280  0.78280  Biso   1.000  C
  C21      1.0000 0.82870  0.23610  0.87500  Biso   1.000  C
  C22      1.0000 0.69110  0.96120  0.83290  Biso   1.000  C
  C23      1.0000 0.46890  0.80870  0.79870  Biso   1.000  C
  C24      1.0000 0.28070  0.76490  0.74670  Biso   1.000  C
  C25      1.0000 0.36400  0.77530  0.67760  Biso   1.000  C
  C26      1.0000 0.40000  0.89110  0.66520  Biso   1.000  C
  C27      1.0000 0.59760  0.93280  0.71720  Biso   1.000  C
  C28      1.0000 0.17130  0.73610  0.62500  Biso   1.000  C
  N1       1.0000 0.50880  0.58130  0.28250  Biso   1.000  N
  N2       1.0000 0.49120  0.08130  0.21750  Biso   1.000  N
  N3       1.0000 0.49120  0.41870  0.71750  Biso   1.000  N
  N4       1.0000 0.50880  0.91870  0.78250  Biso   1.000  N
  O1       1.0000 0.54070  0.62270  0.44440  Biso   1.000  O
  O2       1.0000 0.82140  0.48080  0.45480  Biso   1.000  O
  O3       1.0000 0.37460  0.45030  0.40878  Biso   1.000  O
  O4       1.0000 0.00190  0.81910  0.14080  Biso   1.000  O
  O5       1.0000 0.19890  0.74890  0.06770  Biso   1.000  O
  O6       1.0000 0.07100  0.68300  0.43600  Biso   1.000  O
  O7       1.0000 0.65500  0.78300  0.53500  Biso   1.000  O
  O8       1.0000 0.45930  0.12270  0.05560  Biso   1.000  O
  O9       1.0000 0.17860  0.98080  0.04520  Biso   1.000  O
  O10      1.0000 0.62540  0.95030  0.09122  Biso   1.000  O
  O11      1.0000 0.99810  0.31910  0.35920  Biso   1.000  O
  O12      1.0000 0.80110  0.24890  0.43230  Biso   1.000  O
  O13      1.0000 0.92900  0.18300  0.06400  Biso   1.000  O
  O14      1.0000 0.34500  0.28300  0.96500  Biso   1.000  O
  O15      1.0000 0.45930  0.37730  0.55560  Biso   1.000  O
  O16      1.0000 0.17860  0.51920  0.54520  Biso   1.000  O
  O17      1.0000 0.62540  0.54970  0.59122  Biso   1.000  O
  O18      1.0000 0.99810  0.18090  0.85920  Biso   1.000  O
  O19      1.0000 0.80110  0.25110  0.93230  Biso   1.000  O
  O20      1.0000 0.92900  0.31700  0.56400  Biso   1.000  O
  O21      1.0000 0.34500  0.21700  0.46500  Biso   1.000  O
  O22      1.0000 0.54070  0.87730  0.94440  Biso   1.000  O
  O23      1.0000 0.82140  0.01920  0.95480  Biso   1.000  O
  O24      1.0000 0.37460  0.04970  0.90878  Biso   1.000  O
  O25      1.0000 0.00190  0.68090  0.64080  Biso   1.000  O
  O26      1.0000 0.19890  0.75110  0.56770  Biso   1.000  O
  O27      1.0000 0.07100  0.81700  0.93600  Biso   1.000  O
  O28      1.0000 0.65500  0.71700  0.03500  Biso   1.000  O
