data_image0
_cell_length_a       5.552
_cell_length_b       13.3686
_cell_length_c       20.797
_cell_angle_alpha    90
_cell_angle_beta     95.577
_cell_angle_gamma    90

_symmetry_space_group_name_H-M    P 1
_symmetry_int_tables_number       1

loop_
  _symmetry_equiv_pos_as_xyz
  'x, y, z'

loop_
  _atom_site_label
  _atom_site_occupancy
  _atom_site_fract_x
  _atom_site_fract_y
  _atom_site_fract_z
  _atom_site_thermal_displace_type
  _atom_site_B_iso_or_equiv
  _atom_site_type_symbol
  Eu1      1.0000 0.87235  0.63267  0.52782  Biso   1.000  Eu
  Eu2      1.0000 0.12765  0.13267  0.97218  Biso   1.000  Eu
  Eu3      1.0000 0.12765  0.36733  0.47218  Biso   1.000  Eu
  Eu4      1.0000 0.87235  0.86733  0.02782  Biso   1.000  Eu
  P1       1.0000 0.58990  0.52088  0.41395  Biso   1.000  P
  P2       1.0000 0.41010  0.02088  0.08605  Biso   1.000  P
  P3       1.0000 0.41010  0.47912  0.58605  Biso   1.000  P
  P4       1.0000 0.58990  0.97912  0.91395  Biso   1.000  P
  H1       1.0000 0.83450  0.58010  0.33670  Biso   1.000  H
  H2       1.0000 0.74040  0.47300  0.31730  Biso   1.000  H
  H3       1.0000 0.62190  0.72860  0.29860  Biso   1.000  H
  H4       1.0000 0.41450  0.69880  0.34130  Biso   1.000  H
  H5       1.0000 0.12540  0.70130  0.24860  Biso   1.000  H
  H6       1.0000 0.25340  0.80600  0.25480  Biso   1.000  H
  H7       1.0000 0.51480  0.75850  0.17550  Biso   1.000  H
  H8       1.0000 0.45160  0.59990  0.12240  Biso   1.000  H
  H9       1.0000 0.24870  0.57350  0.16740  Biso   1.000  H
  H10      1.0000 0.62540  0.49780  0.20990  Biso   1.000  H
  H11      1.0000 0.74790  0.60400  0.21520  Biso   1.000  H
  H12      1.0000 0.18620  0.72300  0.44710  Biso   1.000  H
  H13      1.0000 0.12750  0.63190  0.41770  Biso   1.000  H
  H14      1.0000 0.72050  0.81910  0.56540  Biso   1.000  H
  H15      1.0000 0.65290  0.81530  0.49940  Biso   1.000  H
  H16      1.0000 0.16550  0.08010  0.16330  Biso   1.000  H
  H17      1.0000 0.25960  0.97300  0.18270  Biso   1.000  H
  H18      1.0000 0.37810  0.22860  0.20140  Biso   1.000  H
  H19      1.0000 0.58550  0.19880  0.15870  Biso   1.000  H
  H20      1.0000 0.87460  0.20130  0.25140  Biso   1.000  H
  H21      1.0000 0.74660  0.30600  0.24520  Biso   1.000  H
  H22      1.0000 0.48520  0.25850  0.32450  Biso   1.000  H
  H23      1.0000 0.54840  0.09990  0.37760  Biso   1.000  H
  H24      1.0000 0.75130  0.07350  0.33260  Biso   1.000  H
  H25      1.0000 0.37460  0.99780  0.29010  Biso   1.000  H
  H26      1.0000 0.25210  0.10400  0.28480  Biso   1.000  H
  H27      1.0000 0.81380  0.22300  0.05290  Biso   1.000  H
  H28      1.0000 0.87250  0.13190  0.08230  Biso   1.000  H
  H29      1.0000 0.27950  0.31910  0.93460  Biso   1.000  H
  H30      1.0000 0.34710  0.31530  0.00060  Biso   1.000  H
  H31      1.0000 0.16550  0.41990  0.66330  Biso   1.000  H
  H32      1.0000 0.25960  0.52700  0.68270  Biso   1.000  H
  H33      1.0000 0.37810  0.27140  0.70140  Biso   1.000  H
  H34      1.0000 0.58550  0.30120  0.65870  Biso   1.000  H
  H35      1.0000 0.87460  0.29870  0.75140  Biso   1.000  H
  H36      1.0000 0.74660  0.19400  0.74520  Biso   1.000  H
  H37      1.0000 0.48520  0.24150  0.82450  Biso   1.000  H
  H38      1.0000 0.54840  0.40010  0.87760  Biso   1.000  H
  H39      1.0000 0.75130  0.42650  0.83260  Biso   1.000  H
  H40      1.0000 0.37460  0.50220  0.79010  Biso   1.000  H
  H41      1.0000 0.25210  0.39600  0.78480  Biso   1.000  H
  H42      1.0000 0.81380  0.27700  0.55290  Biso   1.000  H
  H43      1.0000 0.87250  0.36810  0.58230  Biso   1.000  H
  H44      1.0000 0.27950  0.18090  0.43460  Biso   1.000  H
  H45      1.0000 0.34710  0.18470  0.50060  Biso   1.000  H
  H46      1.0000 0.83450  0.91990  0.83670  Biso   1.000  H
  H47      1.0000 0.74040  0.02700  0.81730  Biso   1.000  H
  H48      1.0000 0.62190  0.77140  0.79860  Biso   1.000  H
  H49      1.0000 0.41450  0.80120  0.84130  Biso   1.000  H
  H50      1.0000 0.12540  0.79870  0.74860  Biso   1.000  H
  H51      1.0000 0.25340  0.69400  0.75480  Biso   1.000  H
  H52      1.0000 0.51480  0.74150  0.67550  Biso   1.000  H
  H53      1.0000 0.45160  0.90010  0.62240  Biso   1.000  H
  H54      1.0000 0.24870  0.92650  0.66740  Biso   1.000  H
  H55      1.0000 0.62540  0.00220  0.70990  Biso   1.000  H
  H56      1.0000 0.74790  0.89600  0.71520  Biso   1.000  H
  H57      1.0000 0.18620  0.77700  0.94710  Biso   1.000  H
  H58      1.0000 0.12750  0.86810  0.91770  Biso   1.000  H
  H59      1.0000 0.72050  0.68090  0.06540  Biso   1.000  H
  H60      1.0000 0.65290  0.68470  0.99940  Biso   1.000  H
  C1       1.0000 0.69220  0.53770  0.33280  Biso   1.000  C
  C2       1.0000 0.47090  0.69220  0.29880  Biso   1.000  C
  C3       1.0000 0.27830  0.73560  0.24640  Biso   1.000  C
  C4       1.0000 0.36150  0.72300  0.17790  Biso   1.000  C
  C5       1.0000 0.39960  0.60940  0.16510  Biso   1.000  C
  C6       1.0000 0.59690  0.56820  0.21750  Biso   1.000  C
  C7       1.0000 0.17040  0.76420  0.12510  Biso   1.000  C
  C8       1.0000 0.30780  0.03770  0.16720  Biso   1.000  C
  C9       1.0000 0.52910  0.19220  0.20120  Biso   1.000  C
  C10      1.0000 0.72170  0.23560  0.25360  Biso   1.000  C
  C11      1.0000 0.63850  0.22300  0.32210  Biso   1.000  C
  C12      1.0000 0.60040  0.10940  0.33490  Biso   1.000  C
  C13      1.0000 0.40310  0.06820  0.28250  Biso   1.000  C
  C14      1.0000 0.82960  0.26420  0.37490  Biso   1.000  C
  C15      1.0000 0.30780  0.46230  0.66720  Biso   1.000  C
  C16      1.0000 0.52910  0.30780  0.70120  Biso   1.000  C
  C17      1.0000 0.72170  0.26440  0.75360  Biso   1.000  C
  C18      1.0000 0.63850  0.27700  0.82210  Biso   1.000  C
  C19      1.0000 0.60040  0.39060  0.83490  Biso   1.000  C
  C20      1.0000 0.40310  0.43180  0.78250  Biso   1.000  C
  C21      1.0000 0.82960  0.23580  0.87490  Biso   1.000  C
  C22      1.0000 0.69220  0.96230  0.83280  Biso   1.000  C
  C23      1.0000 0.47090  0.80780  0.79880  Biso   1.000  C
  C24      1.0000 0.27830  0.76440  0.74640  Biso   1.000  C
  C25      1.0000 0.36150  0.77700  0.67790  Biso   1.000  C
  C26      1.0000 0.39960  0.89060  0.66510  Biso   1.000  C
  C27      1.0000 0.59690  0.93180  0.71750  Biso   1.000  C
  C28      1.0000 0.17040  0.73580  0.62510  Biso   1.000  C
  N1       1.0000 0.50950  0.58220  0.28340  Biso   1.000  N
  N2       1.0000 0.49050  0.08220  0.21660  Biso   1.000  N
  N3       1.0000 0.49050  0.41780  0.71660  Biso   1.000  N
  N4       1.0000 0.50950  0.91780  0.78340  Biso   1.000  N
  O1       1.0000 0.54080  0.62300  0.44440  Biso   1.000  O
  O2       1.0000 0.82240  0.48140  0.45430  Biso   1.000  O
  O3       1.0000 0.37600  0.45020  0.40910  Biso   1.000  O
  O4       1.0000 0.00200  0.81920  0.14090  Biso   1.000  O
  O5       1.0000 0.19780  0.74880  0.06740  Biso   1.000  O
  O6       1.0000 0.07000  0.68300  0.43500  Biso   1.000  O
  O7       1.0000 0.65000  0.78400  0.53500  Biso   1.000  O
  O8       1.0000 0.45920  0.12300  0.05560  Biso   1.000  O
  O9       1.0000 0.17760  0.98140  0.04570  Biso   1.000  O
  O10      1.0000 0.62400  0.95020  0.09090  Biso   1.000  O
  O11      1.0000 0.99800  0.31920  0.35910  Biso   1.000  O
  O12      1.0000 0.80220  0.24880  0.43260  Biso   1.000  O
  O13      1.0000 0.93000  0.18300  0.06500  Biso   1.000  O
  O14      1.0000 0.35000  0.28400  0.96500  Biso   1.000  O
  O15      1.0000 0.45920  0.37700  0.55560  Biso   1.000  O
  O16      1.0000 0.17760  0.51860  0.54570  Biso   1.000  O
  O17      1.0000 0.62400  0.54980  0.59090  Biso   1.000  O
  O18      1.0000 0.99800  0.18080  0.85910  Biso   1.000  O
  O19      1.0000 0.80220  0.25120  0.93260  Biso   1.000  O
  O20      1.0000 0.93000  0.31700  0.56500  Biso   1.000  O
  O21      1.0000 0.35000  0.21600  0.46500  Biso   1.000  O
  O22      1.0000 0.54080  0.87700  0.94440  Biso   1.000  O
  O23      1.0000 0.82240  0.01860  0.95430  Biso   1.000  O
  O24      1.0000 0.37600  0.04980  0.90910  Biso   1.000  O
  O25      1.0000 0.00200  0.68080  0.64090  Biso   1.000  O
  O26      1.0000 0.19780  0.75120  0.56740  Biso   1.000  O
  O27      1.0000 0.07000  0.81700  0.93500  Biso   1.000  O
  O28      1.0000 0.65000  0.71600  0.03500  Biso   1.000  O
