data_image0
_cell_length_a       18.5728
_cell_length_b       18.5728
_cell_length_c       18.5728
_cell_angle_alpha    90
_cell_angle_beta     90
_cell_angle_gamma    90

_symmetry_space_group_name_H-M    "P 1"
_symmetry_int_tables_number       1

loop_
  _symmetry_equiv_pos_as_xyz
  'x, y, z'

loop_
  _atom_site_label
  _atom_site_occupancy
  _atom_site_fract_x
  _atom_site_fract_y
  _atom_site_fract_z
  _atom_site_thermal_displace_type
  _atom_site_B_iso_or_equiv
  _atom_site_type_symbol
  Ce1      1.0000 0.39290  0.25980  0.24410  Biso   1.000  Ce
  O1       1.0000 0.32250  0.32250  0.17750  Biso   1.000  O
  O2       1.0000 0.45200  0.27300  0.12800  Biso   1.000  O
  O3       1.0000 0.35700  0.25700  0.05300  Biso   1.000  O
  C1       1.0000 0.42600  0.26900  0.06400  Biso   1.000  C
  C2       1.0000 0.46300  0.27400  0.00000  Biso   1.000  C
  O4       1.0000 0.46960  0.25700  0.34900  Biso   1.000  O
  O5       1.0000 0.38300  0.25200  0.43450  Biso   1.000  O
  C3       1.0000 0.45000  0.25900  0.41900  Biso   1.000  C
  C4       1.0000 0.50900  0.26700  0.46400  Biso   1.000  C
  Ce2      1.0000 0.60710  0.74020  0.24410  Biso   1.000  Ce
  O6       1.0000 0.67750  0.67750  0.17750  Biso   1.000  O
  O7       1.0000 0.54800  0.72700  0.12800  Biso   1.000  O
  O8       1.0000 0.64300  0.74300  0.05300  Biso   1.000  O
  C5       1.0000 0.57400  0.73100  0.06400  Biso   1.000  C
  C6       1.0000 0.53700  0.72600  0.00000  Biso   1.000  C
  O9       1.0000 0.53040  0.74300  0.34900  Biso   1.000  O
  O10      1.0000 0.61700  0.74800  0.43450  Biso   1.000  O
  C7       1.0000 0.55000  0.74100  0.41900  Biso   1.000  C
  C8       1.0000 0.49100  0.73300  0.46400  Biso   1.000  C
  Ce3      1.0000 0.60710  0.25980  0.75590  Biso   1.000  Ce
  O11      1.0000 0.67750  0.32250  0.82250  Biso   1.000  O
  O12      1.0000 0.54800  0.27300  0.87200  Biso   1.000  O
  O13      1.0000 0.64300  0.25700  0.94700  Biso   1.000  O
  C9       1.0000 0.57400  0.26900  0.93600  Biso   1.000  C
  C10      1.0000 0.53700  0.27400  0.00000  Biso   1.000  C
  O14      1.0000 0.53040  0.25700  0.65100  Biso   1.000  O
  O15      1.0000 0.61700  0.25200  0.56550  Biso   1.000  O
  C11      1.0000 0.55000  0.25900  0.58100  Biso   1.000  C
  C12      1.0000 0.49100  0.26700  0.53600  Biso   1.000  C
  Ce4      1.0000 0.39290  0.74020  0.75590  Biso   1.000  Ce
  O16      1.0000 0.32250  0.67750  0.82250  Biso   1.000  O
  O17      1.0000 0.45200  0.72700  0.87200  Biso   1.000  O
  O18      1.0000 0.35700  0.74300  0.94700  Biso   1.000  O
  C13      1.0000 0.42600  0.73100  0.93600  Biso   1.000  C
  C14      1.0000 0.46300  0.72600  0.00000  Biso   1.000  C
  O19      1.0000 0.46960  0.74300  0.65100  Biso   1.000  O
  O20      1.0000 0.38300  0.74800  0.56550  Biso   1.000  O
  C15      1.0000 0.45000  0.74100  0.58100  Biso   1.000  C
  C16      1.0000 0.50900  0.73300  0.53600  Biso   1.000  C
  Ce5      1.0000 0.24410  0.39290  0.25980  Biso   1.000  Ce
  O21      1.0000 0.17750  0.32250  0.32250  Biso   1.000  O
  O22      1.0000 0.12800  0.45200  0.27300  Biso   1.000  O
  O23      1.0000 0.05300  0.35700  0.25700  Biso   1.000  O
  C17      1.0000 0.06400  0.42600  0.26900  Biso   1.000  C
  C18      1.0000 0.00000  0.46300  0.27400  Biso   1.000  C
  O24      1.0000 0.34900  0.46960  0.25700  Biso   1.000  O
  O25      1.0000 0.43450  0.38300  0.25200  Biso   1.000  O
  C19      1.0000 0.41900  0.45000  0.25900  Biso   1.000  C
  C20      1.0000 0.46400  0.50900  0.26700  Biso   1.000  C
  Ce6      1.0000 0.24410  0.60710  0.74020  Biso   1.000  Ce
  O26      1.0000 0.17750  0.67750  0.67750  Biso   1.000  O
  O27      1.0000 0.12800  0.54800  0.72700  Biso   1.000  O
  O28      1.0000 0.05300  0.64300  0.74300  Biso   1.000  O
  C21      1.0000 0.06400  0.57400  0.73100  Biso   1.000  C
  C22      1.0000 0.00000  0.53700  0.72600  Biso   1.000  C
  O29      1.0000 0.34900  0.53040  0.74300  Biso   1.000  O
  O30      1.0000 0.43450  0.61700  0.74800  Biso   1.000  O
  C23      1.0000 0.41900  0.55000  0.74100  Biso   1.000  C
  C24      1.0000 0.46400  0.49100  0.73300  Biso   1.000  C
  Ce7      1.0000 0.75590  0.60710  0.25980  Biso   1.000  Ce
  O31      1.0000 0.82250  0.67750  0.32250  Biso   1.000  O
  O32      1.0000 0.87200  0.54800  0.27300  Biso   1.000  O
  O33      1.0000 0.94700  0.64300  0.25700  Biso   1.000  O
  C25      1.0000 0.93600  0.57400  0.26900  Biso   1.000  C
  C26      1.0000 0.00000  0.53700  0.27400  Biso   1.000  C
  O34      1.0000 0.65100  0.53040  0.25700  Biso   1.000  O
  O35      1.0000 0.56550  0.61700  0.25200  Biso   1.000  O
  C27      1.0000 0.58100  0.55000  0.25900  Biso   1.000  C
  C28      1.0000 0.53600  0.49100  0.26700  Biso   1.000  C
  Ce8      1.0000 0.75590  0.39290  0.74020  Biso   1.000  Ce
  O36      1.0000 0.82250  0.32250  0.67750  Biso   1.000  O
  O37      1.0000 0.87200  0.45200  0.72700  Biso   1.000  O
  O38      1.0000 0.94700  0.35700  0.74300  Biso   1.000  O
  C29      1.0000 0.93600  0.42600  0.73100  Biso   1.000  C
  C30      1.0000 0.00000  0.46300  0.72600  Biso   1.000  C
  O39      1.0000 0.65100  0.46960  0.74300  Biso   1.000  O
  O40      1.0000 0.56550  0.38300  0.74800  Biso   1.000  O
  C31      1.0000 0.58100  0.45000  0.74100  Biso   1.000  C
  C32      1.0000 0.53600  0.50900  0.73300  Biso   1.000  C
  Ce9      1.0000 0.25980  0.24410  0.39290  Biso   1.000  Ce
  O41      1.0000 0.32250  0.17750  0.32250  Biso   1.000  O
  O42      1.0000 0.27300  0.12800  0.45200  Biso   1.000  O
  O43      1.0000 0.25700  0.05300  0.35700  Biso   1.000  O
  C33      1.0000 0.26900  0.06400  0.42600  Biso   1.000  C
  C34      1.0000 0.27400  0.00000  0.46300  Biso   1.000  C
  O44      1.0000 0.25700  0.34900  0.46960  Biso   1.000  O
  O45      1.0000 0.25200  0.43450  0.38300  Biso   1.000  O
  C35      1.0000 0.25900  0.41900  0.45000  Biso   1.000  C
  C36      1.0000 0.26700  0.46400  0.50900  Biso   1.000  C
  Ce10     1.0000 0.74020  0.24410  0.60710  Biso   1.000  Ce
  O46      1.0000 0.67750  0.17750  0.67750  Biso   1.000  O
  O47      1.0000 0.72700  0.12800  0.54800  Biso   1.000  O
  O48      1.0000 0.74300  0.05300  0.64300  Biso   1.000  O
  C37      1.0000 0.73100  0.06400  0.57400  Biso   1.000  C
  C38      1.0000 0.72600  0.00000  0.53700  Biso   1.000  C
  O49      1.0000 0.74300  0.34900  0.53040  Biso   1.000  O
  O50      1.0000 0.74800  0.43450  0.61700  Biso   1.000  O
  C39      1.0000 0.74100  0.41900  0.55000  Biso   1.000  C
  C40      1.0000 0.73300  0.46400  0.49100  Biso   1.000  C
  Ce11     1.0000 0.25980  0.75590  0.60710  Biso   1.000  Ce
  O51      1.0000 0.32250  0.82250  0.67750  Biso   1.000  O
  O52      1.0000 0.27300  0.87200  0.54800  Biso   1.000  O
  O53      1.0000 0.25700  0.94700  0.64300  Biso   1.000  O
  C41      1.0000 0.26900  0.93600  0.57400  Biso   1.000  C
  C42      1.0000 0.27400  0.00000  0.53700  Biso   1.000  C
  O54      1.0000 0.25700  0.65100  0.53040  Biso   1.000  O
  O55      1.0000 0.25200  0.56550  0.61700  Biso   1.000  O
  C43      1.0000 0.25900  0.58100  0.55000  Biso   1.000  C
  C44      1.0000 0.26700  0.53600  0.49100  Biso   1.000  C
  Ce12     1.0000 0.74020  0.75590  0.39290  Biso   1.000  Ce
  O56      1.0000 0.67750  0.82250  0.32250  Biso   1.000  O
  O57      1.0000 0.72700  0.87200  0.45200  Biso   1.000  O
  O58      1.0000 0.74300  0.94700  0.35700  Biso   1.000  O
  C45      1.0000 0.73100  0.93600  0.42600  Biso   1.000  C
  C46      1.0000 0.72600  0.00000  0.46300  Biso   1.000  C
  O59      1.0000 0.74300  0.65100  0.46960  Biso   1.000  O
  O60      1.0000 0.74800  0.56550  0.38300  Biso   1.000  O
  C47      1.0000 0.74100  0.58100  0.45000  Biso   1.000  C
  C48      1.0000 0.73300  0.53600  0.50900  Biso   1.000  C
  Ce13     1.0000 0.10710  0.24020  0.25590  Biso   1.000  Ce
  O61      1.0000 0.17750  0.17750  0.32250  Biso   1.000  O
  O62      1.0000 0.04800  0.22700  0.37200  Biso   1.000  O
  O63      1.0000 0.14300  0.24300  0.44700  Biso   1.000  O
  C49      1.0000 0.07400  0.23100  0.43600  Biso   1.000  C
  C50      1.0000 0.03700  0.22600  0.50000  Biso   1.000  C
  O64      1.0000 0.03040  0.24300  0.15100  Biso   1.000  O
  O65      1.0000 0.11700  0.24800  0.06550  Biso   1.000  O
  C51      1.0000 0.05000  0.24100  0.08100  Biso   1.000  C
  C52      1.0000 0.99100  0.23300  0.03600  Biso   1.000  C
  Ce14     1.0000 0.89290  0.75980  0.25590  Biso   1.000  Ce
  O66      1.0000 0.82250  0.82250  0.32250  Biso   1.000  O
  O67      1.0000 0.95200  0.77300  0.37200  Biso   1.000  O
  O68      1.0000 0.85700  0.75700  0.44700  Biso   1.000  O
  C53      1.0000 0.92600  0.76900  0.43600  Biso   1.000  C
  C54      1.0000 0.96300  0.77400  0.50000  Biso   1.000  C
  O69      1.0000 0.96960  0.75700  0.15100  Biso   1.000  O
  O70      1.0000 0.88300  0.75200  0.06550  Biso   1.000  O
  C55      1.0000 0.95000  0.75900  0.08100  Biso   1.000  C
  C56      1.0000 0.00900  0.76700  0.03600  Biso   1.000  C
  Ce15     1.0000 0.89290  0.24020  0.74410  Biso   1.000  Ce
  O71      1.0000 0.82250  0.17750  0.67750  Biso   1.000  O
  O72      1.0000 0.95200  0.22700  0.62800  Biso   1.000  O
  O73      1.0000 0.85700  0.24300  0.55300  Biso   1.000  O
  C57      1.0000 0.92600  0.23100  0.56400  Biso   1.000  C
  C58      1.0000 0.96300  0.22600  0.50000  Biso   1.000  C
  O74      1.0000 0.96960  0.24300  0.84900  Biso   1.000  O
  O75      1.0000 0.88300  0.24800  0.93450  Biso   1.000  O
  C59      1.0000 0.95000  0.24100  0.91900  Biso   1.000  C
  C60      1.0000 0.00900  0.23300  0.96400  Biso   1.000  C
  Ce16     1.0000 0.10710  0.75980  0.74410  Biso   1.000  Ce
  O76      1.0000 0.17750  0.82250  0.67750  Biso   1.000  O
  O77      1.0000 0.04800  0.77300  0.62800  Biso   1.000  O
  O78      1.0000 0.14300  0.75700  0.55300  Biso   1.000  O
  C61      1.0000 0.07400  0.76900  0.56400  Biso   1.000  C
  C62      1.0000 0.03700  0.77400  0.50000  Biso   1.000  C
  O79      1.0000 0.03040  0.75700  0.84900  Biso   1.000  O
  O80      1.0000 0.11700  0.75200  0.93450  Biso   1.000  O
  C63      1.0000 0.05000  0.75900  0.91900  Biso   1.000  C
  C64      1.0000 0.99100  0.76700  0.96400  Biso   1.000  C
  Ce17     1.0000 0.25590  0.10710  0.24020  Biso   1.000  Ce
  O81      1.0000 0.32250  0.17750  0.17750  Biso   1.000  O
  O82      1.0000 0.37200  0.04800  0.22700  Biso   1.000  O
  O83      1.0000 0.44700  0.14300  0.24300  Biso   1.000  O
  C65      1.0000 0.43600  0.07400  0.23100  Biso   1.000  C
  C66      1.0000 0.50000  0.03700  0.22600  Biso   1.000  C
  O84      1.0000 0.15100  0.03040  0.24300  Biso   1.000  O
  O85      1.0000 0.06550  0.11700  0.24800  Biso   1.000  O
  C67      1.0000 0.08100  0.05000  0.24100  Biso   1.000  C
  C68      1.0000 0.03600  0.99100  0.23300  Biso   1.000  C
  Ce18     1.0000 0.25590  0.89290  0.75980  Biso   1.000  Ce
  O86      1.0000 0.32250  0.82250  0.82250  Biso   1.000  O
  O87      1.0000 0.37200  0.95200  0.77300  Biso   1.000  O
  O88      1.0000 0.44700  0.85700  0.75700  Biso   1.000  O
  C69      1.0000 0.43600  0.92600  0.76900  Biso   1.000  C
  C70      1.0000 0.50000  0.96300  0.77400  Biso   1.000  C
  O89      1.0000 0.15100  0.96960  0.75700  Biso   1.000  O
  O90      1.0000 0.06550  0.88300  0.75200  Biso   1.000  O
  C71      1.0000 0.08100  0.95000  0.75900  Biso   1.000  C
  C72      1.0000 0.03600  0.00900  0.76700  Biso   1.000  C
  Ce19     1.0000 0.74410  0.89290  0.24020  Biso   1.000  Ce
  O91      1.0000 0.67750  0.82250  0.17750  Biso   1.000  O
  O92      1.0000 0.62800  0.95200  0.22700  Biso   1.000  O
  O93      1.0000 0.55300  0.85700  0.24300  Biso   1.000  O
  C73      1.0000 0.56400  0.92600  0.23100  Biso   1.000  C
  C74      1.0000 0.50000  0.96300  0.22600  Biso   1.000  C
  O94      1.0000 0.84900  0.96960  0.24300  Biso   1.000  O
  O95      1.0000 0.93450  0.88300  0.24800  Biso   1.000  O
  C75      1.0000 0.91900  0.95000  0.24100  Biso   1.000  C
  C76      1.0000 0.96400  0.00900  0.23300  Biso   1.000  C
  Ce20     1.0000 0.74410  0.10710  0.75980  Biso   1.000  Ce
  O96      1.0000 0.67750  0.17750  0.82250  Biso   1.000  O
  O97      1.0000 0.62800  0.04800  0.77300  Biso   1.000  O
  O98      1.0000 0.55300  0.14300  0.75700  Biso   1.000  O
  C77      1.0000 0.56400  0.07400  0.76900  Biso   1.000  C
  C78      1.0000 0.50000  0.03700  0.77400  Biso   1.000  C
  O99      1.0000 0.84900  0.03040  0.75700  Biso   1.000  O
  O100     1.0000 0.93450  0.11700  0.75200  Biso   1.000  O
  C79      1.0000 0.91900  0.05000  0.75900  Biso   1.000  C
  C80      1.0000 0.96400  0.99100  0.76700  Biso   1.000  C
  Ce21     1.0000 0.24020  0.25590  0.10710  Biso   1.000  Ce
  O101     1.0000 0.17750  0.32250  0.17750  Biso   1.000  O
  O102     1.0000 0.22700  0.37200  0.04800  Biso   1.000  O
  O103     1.0000 0.24300  0.44700  0.14300  Biso   1.000  O
  C81      1.0000 0.23100  0.43600  0.07400  Biso   1.000  C
  C82      1.0000 0.22600  0.50000  0.03700  Biso   1.000  C
  O104     1.0000 0.24300  0.15100  0.03040  Biso   1.000  O
  O105     1.0000 0.24800  0.06550  0.11700  Biso   1.000  O
  C83      1.0000 0.24100  0.08100  0.05000  Biso   1.000  C
  C84      1.0000 0.23300  0.03600  0.99100  Biso   1.000  C
  Ce22     1.0000 0.75980  0.25590  0.89290  Biso   1.000  Ce
  O106     1.0000 0.82250  0.32250  0.82250  Biso   1.000  O
  O107     1.0000 0.77300  0.37200  0.95200  Biso   1.000  O
  O108     1.0000 0.75700  0.44700  0.85700  Biso   1.000  O
  C85      1.0000 0.76900  0.43600  0.92600  Biso   1.000  C
  C86      1.0000 0.77400  0.50000  0.96300  Biso   1.000  C
  O109     1.0000 0.75700  0.15100  0.96960  Biso   1.000  O
  O110     1.0000 0.75200  0.06550  0.88300  Biso   1.000  O
  C87      1.0000 0.75900  0.08100  0.95000  Biso   1.000  C
  C88      1.0000 0.76700  0.03600  0.00900  Biso   1.000  C
  Ce23     1.0000 0.24020  0.74410  0.89290  Biso   1.000  Ce
  O111     1.0000 0.17750  0.67750  0.82250  Biso   1.000  O
  O112     1.0000 0.22700  0.62800  0.95200  Biso   1.000  O
  O113     1.0000 0.24300  0.55300  0.85700  Biso   1.000  O
  C89      1.0000 0.23100  0.56400  0.92600  Biso   1.000  C
  C90      1.0000 0.22600  0.50000  0.96300  Biso   1.000  C
  O114     1.0000 0.24300  0.84900  0.96960  Biso   1.000  O
  O115     1.0000 0.24800  0.93450  0.88300  Biso   1.000  O
  C91      1.0000 0.24100  0.91900  0.95000  Biso   1.000  C
  C92      1.0000 0.23300  0.96400  0.00900  Biso   1.000  C
  Ce24     1.0000 0.75980  0.74410  0.10710  Biso   1.000  Ce
  O116     1.0000 0.82250  0.67750  0.17750  Biso   1.000  O
  O117     1.0000 0.77300  0.62800  0.04800  Biso   1.000  O
  O118     1.0000 0.75700  0.55300  0.14300  Biso   1.000  O
  C93      1.0000 0.76900  0.56400  0.07400  Biso   1.000  C
  C94      1.0000 0.77400  0.50000  0.03700  Biso   1.000  C
  O119     1.0000 0.75700  0.84900  0.03040  Biso   1.000  O
  O120     1.0000 0.75200  0.93450  0.11700  Biso   1.000  O
  C95      1.0000 0.75900  0.91900  0.05000  Biso   1.000  C
  C96      1.0000 0.76700  0.96400  0.99100  Biso   1.000  C
  O121     1.0000 0.33490  0.33490  0.33490  Biso   1.000  O
  O122     1.0000 0.66510  0.66510  0.33490  Biso   1.000  O
  O123     1.0000 0.66510  0.33490  0.66510  Biso   1.000  O
  O124     1.0000 0.33490  0.66510  0.66510  Biso   1.000  O
  O125     1.0000 0.16510  0.16510  0.16510  Biso   1.000  O
  O126     1.0000 0.83490  0.83490  0.16510  Biso   1.000  O
  O127     1.0000 0.83490  0.16510  0.83490  Biso   1.000  O
  O128     1.0000 0.16510  0.83490  0.83490  Biso   1.000  O
