data_image0
_cell_length_a       15.882
_cell_length_b       8.462
_cell_length_c       16.096
_cell_angle_alpha    90
_cell_angle_beta     112.563
_cell_angle_gamma    90

_symmetry_space_group_name_H-M    "P 1"
_symmetry_int_tables_number       1

loop_
  _symmetry_equiv_pos_as_xyz
  'x, y, z'

loop_
  _atom_site_label
  _atom_site_occupancy
  _atom_site_fract_x
  _atom_site_fract_y
  _atom_site_fract_z
  _atom_site_thermal_displace_type
  _atom_site_B_iso_or_equiv
  _atom_site_type_symbol
  Co1      1.0000 0.36390  0.13654  0.47626  Biso   1.000  Co
  P1       1.0000 0.15253  0.13676  0.36334  Biso   1.000  P
  P2       1.0000 0.02018  0.62988  0.40078  Biso   1.000  P
  O1       1.0000 0.11130  0.24880  0.28466  Biso   1.000  O
  O2       1.0000 0.24815  0.09650  0.37567  Biso   1.000  O
  O3       1.0000 0.13960  0.18990  0.44642  Biso   1.000  O
  O4       1.0000 0.10849  0.58070  0.47636  Biso   1.000  O
  O5       1.0000 0.97443  0.49190  0.34059  Biso   1.000  O
  O6       1.0000 0.95619  0.71510  0.43460  Biso   1.000  O
  H1       1.0000 0.11000  0.00600  0.34400  Biso   1.000  H
  H2       1.0000 0.04200  0.73700  0.35300  Biso   1.000  H
  Co2      1.0000 0.86390  0.63654  0.47626  Biso   1.000  Co
  P3       1.0000 0.65253  0.63676  0.36334  Biso   1.000  P
  P4       1.0000 0.52018  0.12988  0.40078  Biso   1.000  P
  O7       1.0000 0.61130  0.74880  0.28466  Biso   1.000  O
  O8       1.0000 0.74815  0.59650  0.37567  Biso   1.000  O
  O9       1.0000 0.63960  0.68990  0.44642  Biso   1.000  O
  O10      1.0000 0.60849  0.08070  0.47636  Biso   1.000  O
  O11      1.0000 0.47443  0.99190  0.34059  Biso   1.000  O
  O12      1.0000 0.45619  0.21510  0.43460  Biso   1.000  O
  H3       1.0000 0.61000  0.50600  0.34400  Biso   1.000  H
  H4       1.0000 0.54200  0.23700  0.35300  Biso   1.000  H
  Co3      1.0000 0.63610  0.13654  0.02374  Biso   1.000  Co
  P5       1.0000 0.84747  0.13676  0.13666  Biso   1.000  P
  P6       1.0000 0.97982  0.62988  0.09922  Biso   1.000  P
  O13      1.0000 0.88870  0.24880  0.21534  Biso   1.000  O
  O14      1.0000 0.75185  0.09650  0.12433  Biso   1.000  O
  O15      1.0000 0.86040  0.18990  0.05358  Biso   1.000  O
  O16      1.0000 0.89151  0.58070  0.02364  Biso   1.000  O
  O17      1.0000 0.02557  0.49190  0.15941  Biso   1.000  O
  O18      1.0000 0.04381  0.71510  0.06540  Biso   1.000  O
  H5       1.0000 0.89000  0.00600  0.15600  Biso   1.000  H
  H6       1.0000 0.95800  0.73700  0.14700  Biso   1.000  H
  Co4      1.0000 0.13610  0.63654  0.02374  Biso   1.000  Co
  P7       1.0000 0.34747  0.63676  0.13666  Biso   1.000  P
  P8       1.0000 0.47982  0.12988  0.09922  Biso   1.000  P
  O19      1.0000 0.38870  0.74880  0.21534  Biso   1.000  O
  O20      1.0000 0.25185  0.59650  0.12433  Biso   1.000  O
  O21      1.0000 0.36040  0.68990  0.05358  Biso   1.000  O
  O22      1.0000 0.39151  0.08070  0.02364  Biso   1.000  O
  O23      1.0000 0.52557  0.99190  0.15941  Biso   1.000  O
  O24      1.0000 0.54381  0.21510  0.06540  Biso   1.000  O
  H7       1.0000 0.39000  0.50600  0.15600  Biso   1.000  H
  H8       1.0000 0.45800  0.23700  0.14700  Biso   1.000  H
  Co5      1.0000 0.63610  0.86346  0.52374  Biso   1.000  Co
  P9       1.0000 0.84747  0.86324  0.63666  Biso   1.000  P
  P10      1.0000 0.97982  0.37012  0.59922  Biso   1.000  P
  O25      1.0000 0.88870  0.75120  0.71534  Biso   1.000  O
  O26      1.0000 0.75185  0.90350  0.62433  Biso   1.000  O
  O27      1.0000 0.86040  0.81010  0.55358  Biso   1.000  O
  O28      1.0000 0.89151  0.41930  0.52364  Biso   1.000  O
  O29      1.0000 0.02557  0.50810  0.65941  Biso   1.000  O
  O30      1.0000 0.04381  0.28490  0.56540  Biso   1.000  O
  H9       1.0000 0.89000  0.99400  0.65600  Biso   1.000  H
  H10      1.0000 0.95800  0.26300  0.64700  Biso   1.000  H
  Co6      1.0000 0.13610  0.36346  0.52374  Biso   1.000  Co
  P11      1.0000 0.34747  0.36324  0.63666  Biso   1.000  P
  P12      1.0000 0.47982  0.87012  0.59922  Biso   1.000  P
  O31      1.0000 0.38870  0.25120  0.71534  Biso   1.000  O
  O32      1.0000 0.25185  0.40350  0.62433  Biso   1.000  O
  O33      1.0000 0.36040  0.31010  0.55358  Biso   1.000  O
  O34      1.0000 0.39151  0.91930  0.52364  Biso   1.000  O
  O35      1.0000 0.52557  0.00810  0.65941  Biso   1.000  O
  O36      1.0000 0.54381  0.78490  0.56540  Biso   1.000  O
  H11      1.0000 0.39000  0.49400  0.65600  Biso   1.000  H
  H12      1.0000 0.45800  0.76300  0.64700  Biso   1.000  H
  Co7      1.0000 0.36390  0.86346  0.97626  Biso   1.000  Co
  P13      1.0000 0.15253  0.86324  0.86334  Biso   1.000  P
  P14      1.0000 0.02018  0.37012  0.90078  Biso   1.000  P
  O37      1.0000 0.11130  0.75120  0.78466  Biso   1.000  O
  O38      1.0000 0.24815  0.90350  0.87567  Biso   1.000  O
  O39      1.0000 0.13960  0.81010  0.94642  Biso   1.000  O
  O40      1.0000 0.10849  0.41930  0.97636  Biso   1.000  O
  O41      1.0000 0.97443  0.50810  0.84059  Biso   1.000  O
  O42      1.0000 0.95619  0.28490  0.93460  Biso   1.000  O
  H13      1.0000 0.11000  0.99400  0.84400  Biso   1.000  H
  H14      1.0000 0.04200  0.26300  0.85300  Biso   1.000  H
  Co8      1.0000 0.86390  0.36346  0.97626  Biso   1.000  Co
  P15      1.0000 0.65253  0.36324  0.86334  Biso   1.000  P
  P16      1.0000 0.52018  0.87012  0.90078  Biso   1.000  P
  O43      1.0000 0.61130  0.25120  0.78466  Biso   1.000  O
  O44      1.0000 0.74815  0.40350  0.87567  Biso   1.000  O
  O45      1.0000 0.63960  0.31010  0.94642  Biso   1.000  O
  O46      1.0000 0.60849  0.91930  0.97636  Biso   1.000  O
  O47      1.0000 0.47443  0.00810  0.84059  Biso   1.000  O
  O48      1.0000 0.45619  0.78490  0.93460  Biso   1.000  O
  H15      1.0000 0.61000  0.49400  0.84400  Biso   1.000  H
  H16      1.0000 0.54200  0.76300  0.85300  Biso   1.000  H
  Co9      1.0000 0.00000  0.37328  0.25000  Biso   1.000  Co
  Co10     1.0000 0.50000  0.87328  0.25000  Biso   1.000  Co
  Co11     1.0000 0.00000  0.62672  0.75000  Biso   1.000  Co
  Co12     1.0000 0.50000  0.12672  0.75000  Biso   1.000  Co
