data_image0
_cell_length_a       11.144
_cell_length_b       15.2392
_cell_length_c       16.695
_cell_angle_alpha    114.419
_cell_angle_beta     90
_cell_angle_gamma    111.447

_symmetry_space_group_name_H-M    P 1
_symmetry_int_tables_number       1

loop_
  _symmetry_equiv_pos_as_xyz
  'x, y, z'

loop_
  _atom_site_label
  _atom_site_occupancy
  _atom_site_fract_x
  _atom_site_fract_y
  _atom_site_fract_z
  _atom_site_thermal_displace_type
  _atom_site_B_iso_or_equiv
  _atom_site_type_symbol
  Co1      1.0000 0.00000  0.50000  0.00000  Biso   1.000  Co
  Co2      1.0000 0.50000  0.50000  0.50000  Biso   1.000  Co
  Co3      1.0000 0.50000  0.50000  0.00000  Biso   1.000  Co
  Co4      1.0000 0.00000  0.50000  0.50000  Biso   1.000  Co
  H1       1.0000 0.87710  0.66840  0.86900  Biso   1.000  H
  H2       1.0000 0.47450  0.43100  0.68110  Biso   1.000  H
  H3       1.0000 0.75840  0.69540  0.60590  Biso   1.000  H
  H4       1.0000 0.71250  0.32640  0.88240  Biso   1.000  H
  H5       1.0000 0.57040  0.15620  0.84170  Biso   1.000  H
  H6       1.0000 0.80840  0.14800  0.01580  Biso   1.000  H
  H7       1.0000 0.94330  0.31540  0.04760  Biso   1.000  H
  H8       1.0000 0.68370  0.86800  0.01950  Biso   1.000  H
  H9       1.0000 0.66990  0.73340  0.05270  Biso   1.000  H
  H10      1.0000 0.35310  0.54240  0.87510  Biso   1.000  H
  H11      1.0000 0.35440  0.67160  0.83860  Biso   1.000  H
  H12      1.0000 0.36500  0.82420  0.82280  Biso   1.000  H
  H13      1.0000 0.89120  0.74740  0.74000  Biso   1.000  H
  H14      1.0000 0.20870  0.33160  0.63100  Biso   1.000  H
  H15      1.0000 0.04350  0.56900  0.81890  Biso   1.000  H
  H16      1.0000 0.06300  0.30460  0.89410  Biso   1.000  H
  H17      1.0000 0.38610  0.67360  0.61760  Biso   1.000  H
  H18      1.0000 0.41420  0.84380  0.65830  Biso   1.000  H
  H19      1.0000 0.66040  0.85200  0.48420  Biso   1.000  H
  H20      1.0000 0.62790  0.68460  0.45240  Biso   1.000  H
  H21      1.0000 0.81570  0.13200  0.48050  Biso   1.000  H
  H22      1.0000 0.93650  0.26660  0.44730  Biso   1.000  H
  H23      1.0000 0.81070  0.45760  0.62490  Biso   1.000  H
  H24      1.0000 0.68280  0.32840  0.66140  Biso   1.000  H
  H25      1.0000 0.54080  0.17580  0.67720  Biso   1.000  H
  H26      1.0000 0.14380  0.25260  0.76000  Biso   1.000  H
  H27      1.0000 0.12290  0.33160  0.13100  Biso   1.000  H
  H28      1.0000 0.52550  0.56900  0.31890  Biso   1.000  H
  H29      1.0000 0.24160  0.30460  0.39410  Biso   1.000  H
  H30      1.0000 0.28750  0.67360  0.11760  Biso   1.000  H
  H31      1.0000 0.42960  0.84380  0.15830  Biso   1.000  H
  H32      1.0000 0.19160  0.85200  0.98420  Biso   1.000  H
  H33      1.0000 0.05670  0.68460  0.95240  Biso   1.000  H
  H34      1.0000 0.31630  0.13200  0.98050  Biso   1.000  H
  H35      1.0000 0.33010  0.26660  0.94730  Biso   1.000  H
  H36      1.0000 0.64690  0.45760  0.12490  Biso   1.000  H
  H37      1.0000 0.64560  0.32840  0.16140  Biso   1.000  H
  H38      1.0000 0.63500  0.17580  0.17720  Biso   1.000  H
  H39      1.0000 0.10880  0.25260  0.26000  Biso   1.000  H
  H40      1.0000 0.79130  0.66840  0.36900  Biso   1.000  H
  H41      1.0000 0.95650  0.43100  0.18110  Biso   1.000  H
  H42      1.0000 0.93700  0.69540  0.10590  Biso   1.000  H
  H43      1.0000 0.61390  0.32640  0.38240  Biso   1.000  H
  H44      1.0000 0.58580  0.15620  0.34170  Biso   1.000  H
  H45      1.0000 0.33960  0.14800  0.51580  Biso   1.000  H
  H46      1.0000 0.37210  0.31540  0.54760  Biso   1.000  H
  H47      1.0000 0.18430  0.86800  0.51950  Biso   1.000  H
  H48      1.0000 0.06350  0.73340  0.55270  Biso   1.000  H
  H49      1.0000 0.18930  0.54240  0.37510  Biso   1.000  H
  H50      1.0000 0.31720  0.67160  0.33860  Biso   1.000  H
  H51      1.0000 0.45920  0.82420  0.32280  Biso   1.000  H
  H52      1.0000 0.85620  0.74740  0.24000  Biso   1.000  H
  C1       1.0000 0.76418  0.52996  0.92850  Biso   1.000  C
  C2       1.0000 0.71452  0.54044  0.84950  Biso   1.000  C
  C3       1.0000 0.59235  0.46870  0.79280  Biso   1.000  C
  C4       1.0000 0.49933  0.37506  0.80380  Biso   1.000  C
  C5       1.0000 0.79665  0.62090  0.83180  Biso   1.000  C
  C6       1.0000 0.75713  0.62966  0.75750  Biso   1.000  C
  C7       1.0000 0.63807  0.55774  0.69960  Biso   1.000  C
  C8       1.0000 0.55489  0.47798  0.71820  Biso   1.000  C
  C9       1.0000 0.73784  0.66348  0.64380  Biso   1.000  C
  C10      1.0000 0.73256  0.28952  0.90930  Biso   1.000  C
  C11      1.0000 0.64562  0.18684  0.88440  Biso   1.000  C
  C12      1.0000 0.67219  0.13038  0.92400  Biso   1.000  C
  C13      1.0000 0.78652  0.18204  0.98680  Biso   1.000  C
  C14      1.0000 0.86672  0.28324  0.00590  Biso   1.000  C
  C15      1.0000 0.58874  0.02088  0.90300  Biso   1.000  C
  C16      1.0000 0.52772  0.87304  0.90490  Biso   1.000  C
  C17      1.0000 0.52039  0.78538  0.92430  Biso   1.000  C
  C18      1.0000 0.61500  0.80220  0.98930  Biso   1.000  C
  C19      1.0000 0.60630  0.72100  0.00860  Biso   1.000  C
  C20      1.0000 0.42013  0.60906  0.90470  Biso   1.000  C
  C21      1.0000 0.42054  0.68608  0.88190  Biso   1.000  C
  C22      1.0000 0.23422  0.47004  0.57150  Biso   1.000  C
  C23      1.0000 0.17408  0.45956  0.65050  Biso   1.000  C
  C24      1.0000 0.12365  0.53130  0.70720  Biso   1.000  C
  C25      1.0000 0.12427  0.62494  0.69620  Biso   1.000  C
  C26      1.0000 0.17575  0.37910  0.66820  Biso   1.000  C
  C27      1.0000 0.12747  0.37034  0.74250  Biso   1.000  C
  C28      1.0000 0.08033  0.44226  0.80040  Biso   1.000  C
  C29      1.0000 0.07691  0.52202  0.78180  Biso   1.000  C
  C30      1.0000 0.07436  0.33652  0.85620  Biso   1.000  C
  C31      1.0000 0.44304  0.71048  0.59070  Biso   1.000  C
  C32      1.0000 0.45878  0.81316  0.61560  Biso   1.000  C
  C33      1.0000 0.54181  0.86962  0.57600  Biso   1.000  C
  C34      1.0000 0.60448  0.81796  0.51320  Biso   1.000  C
  C35      1.0000 0.58348  0.71676  0.49410  Biso   1.000  C
  C36      1.0000 0.56786  0.97912  0.59700  Biso   1.000  C
  C37      1.0000 0.65468  0.12696  0.59510  Biso   1.000  C
  C38      1.0000 0.73501  0.21462  0.57570  Biso   1.000  C
  C39      1.0000 0.81280  0.19780  0.51070  Biso   1.000  C
  C40      1.0000 0.88530  0.27900  0.49140  Biso   1.000  C
  C41      1.0000 0.81107  0.39094  0.59530  Biso   1.000  C
  C42      1.0000 0.73446  0.31392  0.61810  Biso   1.000  C
  C43      1.0000 0.23582  0.47004  0.07150  Biso   1.000  C
  C44      1.0000 0.28548  0.45956  0.15050  Biso   1.000  C
  C45      1.0000 0.40765  0.53130  0.20720  Biso   1.000  C
  C46      1.0000 0.50067  0.62494  0.19620  Biso   1.000  C
  C47      1.0000 0.20335  0.37910  0.16820  Biso   1.000  C
  C48      1.0000 0.24287  0.37034  0.24250  Biso   1.000  C
  C49      1.0000 0.36193  0.44226  0.30040  Biso   1.000  C
  C50      1.0000 0.44511  0.52202  0.28180  Biso   1.000  C
  C51      1.0000 0.26216  0.33652  0.35620  Biso   1.000  C
  C52      1.0000 0.26744  0.71048  0.09070  Biso   1.000  C
  C53      1.0000 0.35438  0.81316  0.11560  Biso   1.000  C
  C54      1.0000 0.32781  0.86962  0.07600  Biso   1.000  C
  C55      1.0000 0.21348  0.81796  0.01320  Biso   1.000  C
  C56      1.0000 0.13328  0.71676  0.99410  Biso   1.000  C
  C57      1.0000 0.41126  0.97912  0.09700  Biso   1.000  C
  C58      1.0000 0.47228  0.12696  0.09510  Biso   1.000  C
  C59      1.0000 0.47961  0.21462  0.07570  Biso   1.000  C
  C60      1.0000 0.38500  0.19780  0.01070  Biso   1.000  C
  C61      1.0000 0.39370  0.27900  0.99140  Biso   1.000  C
  C62      1.0000 0.57987  0.39094  0.09530  Biso   1.000  C
  C63      1.0000 0.57946  0.31392  0.11810  Biso   1.000  C
  C64      1.0000 0.76578  0.52996  0.42850  Biso   1.000  C
  C65      1.0000 0.82592  0.54044  0.34950  Biso   1.000  C
  C66      1.0000 0.87635  0.46870  0.29280  Biso   1.000  C
  C67      1.0000 0.87573  0.37506  0.30380  Biso   1.000  C
  C68      1.0000 0.82425  0.62090  0.33180  Biso   1.000  C
  C69      1.0000 0.87253  0.62966  0.25750  Biso   1.000  C
  C70      1.0000 0.91967  0.55774  0.19960  Biso   1.000  C
  C71      1.0000 0.92309  0.47798  0.21820  Biso   1.000  C
  C72      1.0000 0.92564  0.66348  0.14380  Biso   1.000  C
  C73      1.0000 0.55696  0.28952  0.40930  Biso   1.000  C
  C74      1.0000 0.54122  0.18684  0.38440  Biso   1.000  C
  C75      1.0000 0.45819  0.13038  0.42400  Biso   1.000  C
  C76      1.0000 0.39552  0.18204  0.48680  Biso   1.000  C
  C77      1.0000 0.41652  0.28324  0.50590  Biso   1.000  C
  C78      1.0000 0.43214  0.02088  0.40300  Biso   1.000  C
  C79      1.0000 0.34532  0.87304  0.40490  Biso   1.000  C
  C80      1.0000 0.26499  0.78538  0.42430  Biso   1.000  C
  C81      1.0000 0.18720  0.80220  0.48930  Biso   1.000  C
  C82      1.0000 0.11470  0.72100  0.50860  Biso   1.000  C
  C83      1.0000 0.18893  0.60906  0.40470  Biso   1.000  C
  C84      1.0000 0.26554  0.68608  0.38190  Biso   1.000  C
  N1       1.0000 0.84277  0.33934  0.96860  Biso   1.000  N
  N2       1.0000 0.62683  0.96686  0.93860  Biso   1.000  N
  N3       1.0000 0.47114  0.96548  0.85080  Biso   1.000  N
  N4       1.0000 0.43497  0.87114  0.85270  Biso   1.000  N
  N5       1.0000 0.51098  0.62516  0.96730  Biso   1.000  N
  N6       1.0000 0.81722  0.69724  0.72040  Biso   1.000  N
  N7       1.0000 0.62858  0.58116  0.62730  Biso   1.000  N
  N8       1.0000 0.50343  0.66066  0.53140  Biso   1.000  N
  N9       1.0000 0.65997  0.03314  0.56140  Biso   1.000  N
  N10      1.0000 0.50566  0.03452  0.64920  Biso   1.000  N
  N11      1.0000 0.56383  0.12886  0.64730  Biso   1.000  N
  N12      1.0000 0.88582  0.37484  0.53270  Biso   1.000  N
  N13      1.0000 0.11998  0.30276  0.77960  Biso   1.000  N
  N14      1.0000 0.04742  0.41884  0.87270  Biso   1.000  N
  N15      1.0000 0.15723  0.66066  0.03140  Biso   1.000  N
  N16      1.0000 0.37317  0.03314  0.06140  Biso   1.000  N
  N17      1.0000 0.52886  0.03452  0.14920  Biso   1.000  N
  N18      1.0000 0.56503  0.12886  0.14730  Biso   1.000  N
  N19      1.0000 0.48902  0.37484  0.03270  Biso   1.000  N
  N20      1.0000 0.18278  0.30276  0.27960  Biso   1.000  N
  N21      1.0000 0.37142  0.41884  0.37270  Biso   1.000  N
  N22      1.0000 0.49657  0.33934  0.46860  Biso   1.000  N
  N23      1.0000 0.34003  0.96686  0.43860  Biso   1.000  N
  N24      1.0000 0.49434  0.96548  0.35080  Biso   1.000  N
  N25      1.0000 0.43617  0.87114  0.35270  Biso   1.000  N
  N26      1.0000 0.11418  0.62516  0.46730  Biso   1.000  N
  N27      1.0000 0.88002  0.69724  0.22040  Biso   1.000  N
  N28      1.0000 0.95258  0.58116  0.12730  Biso   1.000  N
  O1       1.0000 0.87878  0.53456  0.93270  Biso   1.000  O
  O2       1.0000 0.69146  0.51812  0.98410  Biso   1.000  O
  O3       1.0000 0.43751  0.38762  0.86750  Biso   1.000  O
  O4       1.0000 0.48067  0.28594  0.74310  Biso   1.000  O
  O5       1.0000 0.34422  0.46544  0.56730  Biso   1.000  O
  O6       1.0000 0.17334  0.48188  0.51590  Biso   1.000  O
  O7       1.0000 0.04989  0.61238  0.63250  Biso   1.000  O
  O8       1.0000 0.19473  0.71406  0.75690  Biso   1.000  O
  O9       1.0000 0.12122  0.46544  0.06730  Biso   1.000  O
  O10      1.0000 0.30854  0.48188  0.01590  Biso   1.000  O
  O11      1.0000 0.56249  0.61238  0.13250  Biso   1.000  O
  O12      1.0000 0.51933  0.71406  0.25690  Biso   1.000  O
  O13      1.0000 0.65578  0.53456  0.43270  Biso   1.000  O
  O14      1.0000 0.82666  0.51812  0.48410  Biso   1.000  O
  O15      1.0000 0.95011  0.38762  0.36750  Biso   1.000  O
  O16      1.0000 0.80527  0.28594  0.24310  Biso   1.000  O
