data_image0
_cell_length_a       9.2333
_cell_length_b       9.5503
_cell_length_c       21.585
_cell_angle_alpha    90
_cell_angle_beta     90
_cell_angle_gamma    116.006

_symmetry_space_group_name_H-M    P 1
_symmetry_int_tables_number       1

loop_
  _symmetry_equiv_pos_as_xyz
  'x, y, z'

loop_
  _atom_site_label
  _atom_site_occupancy
  _atom_site_fract_x
  _atom_site_fract_y
  _atom_site_fract_z
  _atom_site_thermal_displace_type
  _atom_site_B_iso_or_equiv
  _atom_site_type_symbol
  Sm1      1.0000 0.62341  0.85922  0.99144  Biso   1.000  Sm
  Sm2      1.0000 0.87659  0.14078  0.49144  Biso   1.000  Sm
  Sm3      1.0000 0.37659  0.14078  0.00856  Biso   1.000  Sm
  Sm4      1.0000 0.12341  0.85922  0.50856  Biso   1.000  Sm
  Cu1      1.0000 0.95914  0.80884  0.85455  Biso   1.000  Cu
  Cu2      1.0000 0.54086  0.19116  0.35455  Biso   1.000  Cu
  Cu3      1.0000 0.04086  0.19116  0.14545  Biso   1.000  Cu
  Cu4      1.0000 0.45914  0.80884  0.64545  Biso   1.000  Cu
  H1       1.0000 0.60890  0.81730  0.16640  Biso   1.000  H
  H2       1.0000 0.06080  0.29690  0.93010  Biso   1.000  H
  H3       1.0000 0.25580  0.49930  0.87480  Biso   1.000  H
  H4       1.0000 0.79250  0.52920  0.92970  Biso   1.000  H
  H5       1.0000 0.64720  0.77190  0.26900  Biso   1.000  H
  H6       1.0000 0.20630  0.70320  0.84360  Biso   1.000  H
  H7       1.0000 0.49600  0.15420  0.22390  Biso   1.000  H
  H8       1.0000 0.62520  0.92650  0.34480  Biso   1.000  H
  H9       1.0000 0.89110  0.18270  0.66640  Biso   1.000  H
  H10      1.0000 0.43920  0.70310  0.43010  Biso   1.000  H
  H11      1.0000 0.24420  0.50070  0.37480  Biso   1.000  H
  H12      1.0000 0.70750  0.47080  0.42970  Biso   1.000  H
  H13      1.0000 0.85280  0.22810  0.76900  Biso   1.000  H
  H14      1.0000 0.29370  0.29680  0.34360  Biso   1.000  H
  H15      1.0000 0.00400  0.84580  0.72390  Biso   1.000  H
  H16      1.0000 0.87480  0.07350  0.84480  Biso   1.000  H
  H17      1.0000 0.39110  0.18270  0.83360  Biso   1.000  H
  H18      1.0000 0.93920  0.70310  0.06990  Biso   1.000  H
  H19      1.0000 0.74420  0.50070  0.12520  Biso   1.000  H
  H20      1.0000 0.20750  0.47080  0.07030  Biso   1.000  H
  H21      1.0000 0.35280  0.22810  0.73100  Biso   1.000  H
  H22      1.0000 0.79370  0.29680  0.15640  Biso   1.000  H
  H23      1.0000 0.50400  0.84580  0.77610  Biso   1.000  H
  H24      1.0000 0.37480  0.07350  0.65520  Biso   1.000  H
  H25      1.0000 0.10890  0.81730  0.33360  Biso   1.000  H
  H26      1.0000 0.56080  0.29690  0.56990  Biso   1.000  H
  H27      1.0000 0.75580  0.49930  0.62520  Biso   1.000  H
  H28      1.0000 0.29250  0.52920  0.57030  Biso   1.000  H
  H29      1.0000 0.14720  0.77190  0.23100  Biso   1.000  H
  H30      1.0000 0.70630  0.70320  0.65640  Biso   1.000  H
  H31      1.0000 0.99600  0.15420  0.27610  Biso   1.000  H
  H32      1.0000 0.12520  0.92650  0.15520  Biso   1.000  H
  C1       1.0000 0.54600  0.99150  0.18450  Biso   1.000  C
  C2       1.0000 0.51140  0.02730  0.12050  Biso   1.000  C
  C3       1.0000 0.59410  0.87630  0.19790  Biso   1.000  C
  C4       1.0000 0.77190  0.25950  0.96940  Biso   1.000  C
  C5       1.0000 0.90380  0.39040  0.93490  Biso   1.000  C
  C6       1.0000 0.04410  0.38260  0.91860  Biso   1.000  C
  C7       1.0000 0.15920  0.50180  0.88520  Biso   1.000  C
  C8       1.0000 0.88500  0.52110  0.91730  Biso   1.000  C
  C9       1.0000 0.61930  0.85140  0.25870  Biso   1.000  C
  C10      1.0000 0.12960  0.62470  0.86750  Biso   1.000  C
  C11      1.0000 0.52910  0.07750  0.23300  Biso   1.000  C
  C12      1.0000 0.60350  0.94300  0.30410  Biso   1.000  C
  C13      1.0000 0.48880  0.49200  0.96450  Biso   1.000  C
  C14      1.0000 0.00350  0.97720  0.96630  Biso   1.000  C
  C15      1.0000 0.95400  0.00850  0.68450  Biso   1.000  C
  C16      1.0000 0.98860  0.97270  0.62050  Biso   1.000  C
  C17      1.0000 0.90590  0.12370  0.69790  Biso   1.000  C
  C18      1.0000 0.72810  0.74050  0.46940  Biso   1.000  C
  C19      1.0000 0.59620  0.60960  0.43490  Biso   1.000  C
  C20      1.0000 0.45590  0.61740  0.41860  Biso   1.000  C
  C21      1.0000 0.34080  0.49820  0.38520  Biso   1.000  C
  C22      1.0000 0.61500  0.47890  0.41730  Biso   1.000  C
  C23      1.0000 0.88070  0.14860  0.75870  Biso   1.000  C
  C24      1.0000 0.37040  0.37530  0.36750  Biso   1.000  C
  C25      1.0000 0.97090  0.92250  0.73300  Biso   1.000  C
  C26      1.0000 0.89650  0.05700  0.80410  Biso   1.000  C
  C27      1.0000 0.01120  0.50800  0.46450  Biso   1.000  C
  C28      1.0000 0.49650  0.02280  0.46630  Biso   1.000  C
  C29      1.0000 0.45400  0.00850  0.81550  Biso   1.000  C
  C30      1.0000 0.48860  0.97270  0.87950  Biso   1.000  C
  C31      1.0000 0.40590  0.12370  0.80210  Biso   1.000  C
  C32      1.0000 0.22810  0.74050  0.03060  Biso   1.000  C
  C33      1.0000 0.09620  0.60960  0.06510  Biso   1.000  C
  C34      1.0000 0.95590  0.61740  0.08140  Biso   1.000  C
  C35      1.0000 0.84080  0.49820  0.11480  Biso   1.000  C
  C36      1.0000 0.11500  0.47890  0.08270  Biso   1.000  C
  C37      1.0000 0.38070  0.14860  0.74130  Biso   1.000  C
  C38      1.0000 0.87040  0.37530  0.13250  Biso   1.000  C
  C39      1.0000 0.47090  0.92250  0.76700  Biso   1.000  C
  C40      1.0000 0.39650  0.05700  0.69590  Biso   1.000  C
  C41      1.0000 0.51120  0.50800  0.03550  Biso   1.000  C
  C42      1.0000 0.99650  0.02280  0.03370  Biso   1.000  C
  C43      1.0000 0.04600  0.99150  0.31550  Biso   1.000  C
  C44      1.0000 0.01140  0.02730  0.37950  Biso   1.000  C
  C45      1.0000 0.09410  0.87630  0.30210  Biso   1.000  C
  C46      1.0000 0.27190  0.25950  0.53060  Biso   1.000  C
  C47      1.0000 0.40380  0.39040  0.56510  Biso   1.000  C
  C48      1.0000 0.54410  0.38260  0.58140  Biso   1.000  C
  C49      1.0000 0.65920  0.50180  0.61480  Biso   1.000  C
  C50      1.0000 0.38500  0.52110  0.58270  Biso   1.000  C
  C51      1.0000 0.11930  0.85140  0.24130  Biso   1.000  C
  C52      1.0000 0.62960  0.62470  0.63250  Biso   1.000  C
  C53      1.0000 0.02910  0.07750  0.26700  Biso   1.000  C
  C54      1.0000 0.10350  0.94300  0.19590  Biso   1.000  C
  C55      1.0000 0.98880  0.49200  0.53550  Biso   1.000  C
  C56      1.0000 0.50350  0.97720  0.53370  Biso   1.000  C
  N1       1.0000 0.99500  0.63690  0.88310  Biso   1.000  N
  N2       1.0000 0.55770  0.05680  0.29250  Biso   1.000  N
  N3       1.0000 0.50500  0.36310  0.38310  Biso   1.000  N
  N4       1.0000 0.94230  0.94320  0.79250  Biso   1.000  N
  N5       1.0000 0.00500  0.36310  0.11690  Biso   1.000  N
  N6       1.0000 0.44230  0.94320  0.70750  Biso   1.000  N
  N7       1.0000 0.49500  0.63690  0.61690  Biso   1.000  N
  N8       1.0000 0.05770  0.05680  0.20750  Biso   1.000  N
  O1       1.0000 0.87320  0.88220  0.94214  Biso   1.000  O
  O2       1.0000 0.78000  0.13210  0.96962  Biso   1.000  O
  O3       1.0000 0.55040  0.96830  0.07549  Biso   1.000  O
  O4       1.0000 0.55120  0.61540  0.93372  Biso   1.000  O
  O5       1.0000 0.66400  0.28730  0.99420  Biso   1.000  O
  O6       1.0000 0.44310  0.11450  0.11438  Biso   1.000  O
  O7       1.0000 0.40890  0.35790  0.94314  Biso   1.000  O
  O8       1.0000 0.13660  0.03770  0.93933  Biso   1.000  O
  O9       1.0000 0.62680  0.11780  0.44214  Biso   1.000  O
  O10      1.0000 0.72000  0.86790  0.46962  Biso   1.000  O
  O11      1.0000 0.94960  0.03170  0.57549  Biso   1.000  O
  O12      1.0000 0.94880  0.38460  0.43372  Biso   1.000  O
  O13      1.0000 0.83600  0.71270  0.49420  Biso   1.000  O
  O14      1.0000 0.05690  0.88550  0.61438  Biso   1.000  O
  O15      1.0000 0.09110  0.64210  0.44314  Biso   1.000  O
  O16      1.0000 0.36340  0.96230  0.43933  Biso   1.000  O
  O17      1.0000 0.12680  0.11780  0.05786  Biso   1.000  O
  O18      1.0000 0.22000  0.86790  0.03038  Biso   1.000  O
  O19      1.0000 0.44960  0.03170  0.92451  Biso   1.000  O
  O20      1.0000 0.44880  0.38460  0.06628  Biso   1.000  O
  O21      1.0000 0.33600  0.71270  0.00580  Biso   1.000  O
  O22      1.0000 0.55690  0.88550  0.88562  Biso   1.000  O
  O23      1.0000 0.59110  0.64210  0.05686  Biso   1.000  O
  O24      1.0000 0.86340  0.96230  0.06067  Biso   1.000  O
  O25      1.0000 0.37320  0.88220  0.55786  Biso   1.000  O
  O26      1.0000 0.28000  0.13210  0.53038  Biso   1.000  O
  O27      1.0000 0.05040  0.96830  0.42451  Biso   1.000  O
  O28      1.0000 0.05120  0.61540  0.56628  Biso   1.000  O
  O29      1.0000 0.16400  0.28730  0.50580  Biso   1.000  O
  O30      1.0000 0.94310  0.11450  0.38562  Biso   1.000  O
  O31      1.0000 0.90890  0.35790  0.55686  Biso   1.000  O
  O32      1.0000 0.63660  0.03770  0.56067  Biso   1.000  O
