data_image0
_cell_length_a       10.126
_cell_length_b       15.9892
_cell_length_c       15.9892
_cell_angle_alpha    64.3321
_cell_angle_beta     77.8131
_cell_angle_gamma    102.187

_symmetry_space_group_name_H-M    P 1
_symmetry_int_tables_number       1

loop_
  _symmetry_equiv_pos_as_xyz
  'x, y, z'

loop_
  _atom_site_label
  _atom_site_occupancy
  _atom_site_fract_x
  _atom_site_fract_y
  _atom_site_fract_z
  _atom_site_thermal_displace_type
  _atom_site_B_iso_or_equiv
  _atom_site_type_symbol
  Co1      1.0000 0.50000  0.00000  0.50000  Biso   1.000  Co
  Co2      1.0000 0.00000  0.50000  0.50000  Biso   1.000  Co
  Co3      1.0000 0.50000  0.50000  0.00000  Biso   1.000  Co
  H1       1.0000 0.37470  0.86280  0.73380  Biso   1.000  H
  H2       1.0000 0.45980  0.80880  0.86280  Biso   1.000  H
  H3       1.0000 0.70000  0.88010  0.83510  Biso   1.000  H
  H4       1.0000 0.01140  0.22600  0.17750  Biso   1.000  H
  H5       1.0000 0.21690  0.33760  0.05150  Biso   1.000  H
  H6       1.0000 0.39280  0.37090  0.23300  Biso   1.000  H
  H7       1.0000 0.19110  0.25880  0.36570  Biso   1.000  H
  H8       1.0000 0.96660  0.06070  0.60230  Biso   1.000  H
  H9       1.0000 0.95910  0.96250  0.69130  Biso   1.000  H
  H10      1.0000 0.92690  0.04630  0.70910  Biso   1.000  H
  H11      1.0000 0.10850  0.73380  0.40340  Biso   1.000  H
  H12      1.0000 0.32260  0.86280  0.32840  Biso   1.000  H
  H13      1.0000 0.53510  0.83510  0.28480  Biso   1.000  H
  H14      1.0000 0.18890  0.17750  0.59650  Biso   1.000  H
  H15      1.0000 0.26840  0.05150  0.61090  Biso   1.000  H
  H16      1.0000 0.62580  0.23300  0.39610  Biso   1.000  H
  H17      1.0000 0.55680  0.36570  0.37550  Biso   1.000  H
  H18      1.0000 0.56890  0.60230  0.33700  Biso   1.000  H
  H19      1.0000 0.65040  0.69130  0.34620  Biso   1.000  H
  H20      1.0000 0.63600  0.70910  0.24460  Biso   1.000  H
  H21      1.0000 0.51190  0.40340  0.86280  Biso   1.000  H
  H22      1.0000 0.65100  0.32840  0.80880  Biso   1.000  H
  H23      1.0000 0.81990  0.28480  0.88010  Biso   1.000  H
  H24      1.0000 0.78540  0.59650  0.22600  Biso   1.000  H
  H25      1.0000 0.87930  0.61090  0.33760  Biso   1.000  H
  H26      1.0000 0.02190  0.39610  0.37090  Biso   1.000  H
  H27      1.0000 0.93230  0.37550  0.25880  Biso   1.000  H
  H28      1.0000 0.90590  0.33700  0.06070  Biso   1.000  H
  H29      1.0000 0.99660  0.34620  0.96250  Biso   1.000  H
  H30      1.0000 0.88060  0.24460  0.04630  Biso   1.000  H
  H31      1.0000 0.62530  0.13720  0.26620  Biso   1.000  H
  H32      1.0000 0.54020  0.19120  0.13720  Biso   1.000  H
  H33      1.0000 0.30000  0.11990  0.16490  Biso   1.000  H
  H34      1.0000 0.98860  0.77400  0.82250  Biso   1.000  H
  H35      1.0000 0.78310  0.66240  0.94850  Biso   1.000  H
  H36      1.0000 0.60720  0.62910  0.76700  Biso   1.000  H
  H37      1.0000 0.80890  0.74120  0.63430  Biso   1.000  H
  H38      1.0000 0.03340  0.93930  0.39770  Biso   1.000  H
  H39      1.0000 0.04090  0.03750  0.30870  Biso   1.000  H
  H40      1.0000 0.07310  0.95370  0.29090  Biso   1.000  H
  H41      1.0000 0.89150  0.26620  0.59660  Biso   1.000  H
  H42      1.0000 0.67740  0.13720  0.67160  Biso   1.000  H
  H43      1.0000 0.46490  0.16490  0.71520  Biso   1.000  H
  H44      1.0000 0.81110  0.82250  0.40350  Biso   1.000  H
  H45      1.0000 0.73160  0.94850  0.38910  Biso   1.000  H
  H46      1.0000 0.37420  0.76700  0.60390  Biso   1.000  H
  H47      1.0000 0.44320  0.63430  0.62450  Biso   1.000  H
  H48      1.0000 0.43110  0.39770  0.66300  Biso   1.000  H
  H49      1.0000 0.34960  0.30870  0.65380  Biso   1.000  H
  H50      1.0000 0.36400  0.29090  0.75540  Biso   1.000  H
  H51      1.0000 0.48810  0.59660  0.13720  Biso   1.000  H
  H52      1.0000 0.34900  0.67160  0.19120  Biso   1.000  H
  H53      1.0000 0.18010  0.71520  0.11990  Biso   1.000  H
  H54      1.0000 0.21460  0.40350  0.77400  Biso   1.000  H
  H55      1.0000 0.12070  0.38910  0.66240  Biso   1.000  H
  H56      1.0000 0.97810  0.60390  0.62910  Biso   1.000  H
  H57      1.0000 0.06770  0.62450  0.74120  Biso   1.000  H
  H58      1.0000 0.09410  0.66300  0.93930  Biso   1.000  H
  H59      1.0000 0.00340  0.65380  0.03750  Biso   1.000  H
  H60      1.0000 0.11940  0.75540  0.95370  Biso   1.000  H
  C1       1.0000 0.47230  0.88870  0.72220  Biso   1.000  C
  C2       1.0000 0.52180  0.85730  0.79970  Biso   1.000  C
  C3       1.0000 0.66610  0.89930  0.78230  Biso   1.000  C
  C4       1.0000 0.75970  0.96840  0.68940  Biso   1.000  C
  C5       1.0000 0.70230  0.99550  0.61330  Biso   1.000  C
  C6       1.0000 0.78410  0.06530  0.50820  Biso   1.000  C
  C7       1.0000 0.93820  0.16300  0.36890  Biso   1.000  C
  C8       1.0000 0.07390  0.23130  0.28690  Biso   1.000  C
  C9       1.0000 0.08740  0.25560  0.19090  Biso   1.000  C
  C10      1.0000 0.21110  0.32250  0.11560  Biso   1.000  C
  C11      1.0000 0.31390  0.34200  0.22150  Biso   1.000  C
  C12      1.0000 0.19280  0.27470  0.30210  Biso   1.000  C
  C13      1.0000 0.91760  0.01370  0.67140  Biso   1.000  C
  C14      1.0000 0.19450  0.72220  0.38910  Biso   1.000  C
  C15      1.0000 0.32150  0.79970  0.34300  Biso   1.000  C
  C16      1.0000 0.44840  0.78230  0.31840  Biso   1.000  C
  C17      1.0000 0.44910  0.68940  0.34220  Biso   1.000  C
  C18      1.0000 0.31560  0.61330  0.39120  Biso   1.000  C
  C19      1.0000 0.29230  0.50820  0.42650  Biso   1.000  C
  C20      1.0000 0.30710  0.36890  0.46810  Biso   1.000  C
  C21      1.0000 0.36080  0.28690  0.48180  Biso   1.000  C
  C22      1.0000 0.27830  0.19090  0.55350  Biso   1.000  C
  C23      1.0000 0.32670  0.11560  0.56190  Biso   1.000  C
  C24      1.0000 0.53540  0.22150  0.43650  Biso   1.000  C
  C25      1.0000 0.49490  0.30210  0.42320  Biso   1.000  C
  C26      1.0000 0.58900  0.67140  0.31490  Biso   1.000  C
  C27      1.0000 0.58360  0.38910  0.88870  Biso   1.000  C
  C28      1.0000 0.66450  0.34300  0.85730  Biso   1.000  C
  C29      1.0000 0.76680  0.31840  0.89930  Biso   1.000  C
  C30      1.0000 0.79130  0.34220  0.96840  Biso   1.000  C
  C31      1.0000 0.70680  0.39120  0.99550  Biso   1.000  C
  C32      1.0000 0.71880  0.42650  0.06530  Biso   1.000  C
  C33      1.0000 0.77520  0.46810  0.16300  Biso   1.000  C
  C34      1.0000 0.84260  0.48180  0.23130  Biso   1.000  C
  C35      1.0000 0.83180  0.55350  0.25560  Biso   1.000  C
  C36      1.0000 0.88860  0.56190  0.32250  Biso   1.000  C
  C37      1.0000 0.97190  0.43650  0.34200  Biso   1.000  C
  C38      1.0000 0.91810  0.42320  0.27470  Biso   1.000  C
  C39      1.0000 0.90390  0.31490  0.01370  Biso   1.000  C
  C40      1.0000 0.52770  0.11130  0.27780  Biso   1.000  C
  C41      1.0000 0.47820  0.14270  0.20030  Biso   1.000  C
  C42      1.0000 0.33390  0.10070  0.21770  Biso   1.000  C
  C43      1.0000 0.24030  0.03160  0.31060  Biso   1.000  C
  C44      1.0000 0.29770  0.00450  0.38670  Biso   1.000  C
  C45      1.0000 0.21590  0.93470  0.49180  Biso   1.000  C
  C46      1.0000 0.06180  0.83700  0.63110  Biso   1.000  C
  C47      1.0000 0.92610  0.76870  0.71310  Biso   1.000  C
  C48      1.0000 0.91260  0.74440  0.80910  Biso   1.000  C
  C49      1.0000 0.78890  0.67750  0.88440  Biso   1.000  C
  C50      1.0000 0.68610  0.65800  0.77850  Biso   1.000  C
  C51      1.0000 0.80720  0.72530  0.69790  Biso   1.000  C
  C52      1.0000 0.08240  0.98630  0.32860  Biso   1.000  C
  C53      1.0000 0.80550  0.27780  0.61090  Biso   1.000  C
  C54      1.0000 0.67850  0.20030  0.65700  Biso   1.000  C
  C55      1.0000 0.55160  0.21770  0.68160  Biso   1.000  C
  C56      1.0000 0.55090  0.31060  0.65780  Biso   1.000  C
  C57      1.0000 0.68440  0.38670  0.60880  Biso   1.000  C
  C58      1.0000 0.70770  0.49180  0.57350  Biso   1.000  C
  C59      1.0000 0.69290  0.63110  0.53190  Biso   1.000  C
  C60      1.0000 0.63920  0.71310  0.51820  Biso   1.000  C
  C61      1.0000 0.72170  0.80910  0.44650  Biso   1.000  C
  C62      1.0000 0.67330  0.88440  0.43810  Biso   1.000  C
  C63      1.0000 0.46460  0.77850  0.56350  Biso   1.000  C
  C64      1.0000 0.50510  0.69790  0.57680  Biso   1.000  C
  C65      1.0000 0.41100  0.32860  0.68510  Biso   1.000  C
  C66      1.0000 0.41640  0.61090  0.11130  Biso   1.000  C
  C67      1.0000 0.33550  0.65700  0.14270  Biso   1.000  C
  C68      1.0000 0.23320  0.68160  0.10070  Biso   1.000  C
  C69      1.0000 0.20870  0.65780  0.03160  Biso   1.000  C
  C70      1.0000 0.29320  0.60880  0.00450  Biso   1.000  C
  C71      1.0000 0.28120  0.57350  0.93470  Biso   1.000  C
  C72      1.0000 0.22480  0.53190  0.83700  Biso   1.000  C
  C73      1.0000 0.15740  0.51820  0.76870  Biso   1.000  C
  C74      1.0000 0.16820  0.44650  0.74440  Biso   1.000  C
  C75      1.0000 0.11140  0.43810  0.67750  Biso   1.000  C
  C76      1.0000 0.02810  0.56350  0.65800  Biso   1.000  C
  C77      1.0000 0.08190  0.57680  0.72530  Biso   1.000  C
  C78      1.0000 0.09610  0.68510  0.98630  Biso   1.000  C
  N1       1.0000 0.56020  0.95550  0.63060  Biso   1.000  N
  N2       1.0000 0.71502  0.07754  0.44298  Biso   1.000  N
  N3       1.0000 0.81579  0.14078  0.35091  Biso   1.000  N
  N4       1.0000 0.92620  0.11920  0.46520  Biso   1.000  N
  N5       1.0000 0.32560  0.36840  0.12880  Biso   1.000  N
  N6       1.0000 0.19080  0.63060  0.41390  Biso   1.000  N
  N7       1.0000 0.15800  0.44298  0.47948  Biso   1.000  N
  N8       1.0000 0.16670  0.35091  0.50831  Biso   1.000  N
  N9       1.0000 0.39140  0.46520  0.41560  Biso   1.000  N
  N10      1.0000 0.45440  0.12880  0.50280  Biso   1.000  N
  N11      1.0000 0.60470  0.41390  0.95550  Biso   1.000  N
  N12      1.0000 0.63748  0.47948  0.07754  Biso   1.000  N
  N13      1.0000 0.67501  0.50831  0.14078  Biso   1.000  N
  N14      1.0000 0.80700  0.41560  0.11920  Biso   1.000  N
  N15      1.0000 0.95720  0.50280  0.36840  Biso   1.000  N
  N16      1.0000 0.43980  0.04450  0.36940  Biso   1.000  N
  N17      1.0000 0.28498  0.92246  0.55702  Biso   1.000  N
  N18      1.0000 0.18421  0.85922  0.64909  Biso   1.000  N
  N19      1.0000 0.07380  0.88080  0.53480  Biso   1.000  N
  N20      1.0000 0.67440  0.63160  0.87120  Biso   1.000  N
  N21      1.0000 0.80920  0.36940  0.58610  Biso   1.000  N
  N22      1.0000 0.84200  0.55702  0.52052  Biso   1.000  N
  N23      1.0000 0.83330  0.64909  0.49169  Biso   1.000  N
  N24      1.0000 0.60860  0.53480  0.58440  Biso   1.000  N
  N25      1.0000 0.54560  0.87120  0.49720  Biso   1.000  N
  N26      1.0000 0.39530  0.58610  0.04450  Biso   1.000  N
  N27      1.0000 0.36252  0.52052  0.92246  Biso   1.000  N
  N28      1.0000 0.32499  0.49169  0.85922  Biso   1.000  N
  N29      1.0000 0.19300  0.58440  0.88080  Biso   1.000  N
  N30      1.0000 0.04280  0.49720  0.63160  Biso   1.000  N
