data_image0
_cell_length_a       11.782
_cell_length_b       13.0054
_cell_length_c       13.0054
_cell_angle_alpha    97.8283
_cell_angle_beta     105.473
_cell_angle_gamma    105.473

_symmetry_space_group_name_H-M    P 1
_symmetry_int_tables_number       1

loop_
  _symmetry_equiv_pos_as_xyz
  'x, y, z'

loop_
  _atom_site_label
  _atom_site_occupancy
  _atom_site_fract_x
  _atom_site_fract_y
  _atom_site_fract_z
  _atom_site_thermal_displace_type
  _atom_site_B_iso_or_equiv
  _atom_site_type_symbol
  Cu1      1.0000 0.12588  0.23121  0.67759  Biso   1.000  Cu
  Cu2      1.0000 0.37412  0.32241  0.76879  Biso   1.000  Cu
  Cu3      1.0000 0.87412  0.76879  0.32241  Biso   1.000  Cu
  Cu4      1.0000 0.62588  0.67759  0.23121  Biso   1.000  Cu
  H1       1.0000 0.12100  0.19410  0.33990  Biso   1.000  H
  H2       1.0000 0.47470  0.38350  0.48290  Biso   1.000  H
  H3       1.0000 0.49670  0.40470  0.31830  Biso   1.000  H
  H4       1.0000 0.02960  0.15270  0.13690  Biso   1.000  H
  H5       1.0000 0.04780  0.17620  0.97140  Biso   1.000  H
  H6       1.0000 0.40590  0.36020  0.11340  Biso   1.000  H
  H7       1.0000 0.91880  0.00960  0.59020  Biso   1.000  H
  H8       1.0000 0.89270  0.30100  0.61460  Biso   1.000  H
  H9       1.0000 0.70650  0.93330  0.53130  Biso   1.000  H
  H10      1.0000 0.68020  0.23330  0.54710  Biso   1.000  H
  H11      1.0000 0.54030  0.02110  0.61770  Biso   1.000  H
  H12      1.0000 0.50720  0.10790  0.55110  Biso   1.000  H
  H13      1.0000 0.37900  0.66010  0.80590  Biso   1.000  H
  H14      1.0000 0.02530  0.51710  0.61650  Biso   1.000  H
  H15      1.0000 0.00330  0.68170  0.59530  Biso   1.000  H
  H16      1.0000 0.47040  0.86310  0.84730  Biso   1.000  H
  H17      1.0000 0.45220  0.02860  0.82380  Biso   1.000  H
  H18      1.0000 0.09410  0.88660  0.63980  Biso   1.000  H
  H19      1.0000 0.58120  0.40980  0.99040  Biso   1.000  H
  H20      1.0000 0.60730  0.38540  0.69900  Biso   1.000  H
  H21      1.0000 0.79350  0.46870  0.06670  Biso   1.000  H
  H22      1.0000 0.81980  0.45290  0.76670  Biso   1.000  H
  H23      1.0000 0.95970  0.38230  0.97890  Biso   1.000  H
  H24      1.0000 0.99280  0.44890  0.89210  Biso   1.000  H
  H25      1.0000 0.87900  0.80590  0.66010  Biso   1.000  H
  H26      1.0000 0.52530  0.61650  0.51710  Biso   1.000  H
  H27      1.0000 0.50330  0.59530  0.68170  Biso   1.000  H
  H28      1.0000 0.97040  0.84730  0.86310  Biso   1.000  H
  H29      1.0000 0.95220  0.82380  0.02860  Biso   1.000  H
  H30      1.0000 0.59410  0.63980  0.88660  Biso   1.000  H
  H31      1.0000 0.08120  0.99040  0.40980  Biso   1.000  H
  H32      1.0000 0.10730  0.69900  0.38540  Biso   1.000  H
  H33      1.0000 0.29350  0.06670  0.46870  Biso   1.000  H
  H34      1.0000 0.31980  0.76670  0.45290  Biso   1.000  H
  H35      1.0000 0.45970  0.97890  0.38230  Biso   1.000  H
  H36      1.0000 0.49280  0.89210  0.44890  Biso   1.000  H
  H37      1.0000 0.62100  0.33990  0.19410  Biso   1.000  H
  H38      1.0000 0.97470  0.48290  0.38350  Biso   1.000  H
  H39      1.0000 0.99670  0.31830  0.40470  Biso   1.000  H
  H40      1.0000 0.52960  0.13690  0.15270  Biso   1.000  H
  H41      1.0000 0.54780  0.97140  0.17620  Biso   1.000  H
  H42      1.0000 0.90590  0.11340  0.36020  Biso   1.000  H
  H43      1.0000 0.41880  0.59020  0.00960  Biso   1.000  H
  H44      1.0000 0.39270  0.61460  0.30100  Biso   1.000  H
  H45      1.0000 0.20650  0.53130  0.93330  Biso   1.000  H
  H46      1.0000 0.18020  0.54710  0.23330  Biso   1.000  H
  H47      1.0000 0.04030  0.61770  0.02110  Biso   1.000  H
  H48      1.0000 0.00720  0.55110  0.10790  Biso   1.000  H
  C1       1.0000 0.27870  0.27867  0.53753  Biso   1.000  C
  C2       1.0000 0.29380  0.28790  0.42790  Biso   1.000  C
  C3       1.0000 0.19570  0.23630  0.33450  Biso   1.000  C
  C4       1.0000 0.40760  0.35000  0.41960  Biso   1.000  C
  C5       1.0000 0.20610  0.24630  0.23110  Biso   1.000  C
  C6       1.0000 0.42130  0.36170  0.32150  Biso   1.000  C
  C7       1.0000 0.32100  0.30900  0.22300  Biso   1.000  C
  C8       1.0000 0.10480  0.19540  0.13300  Biso   1.000  C
  C9       1.0000 0.11600  0.20820  0.03420  Biso   1.000  C
  C10      1.0000 0.33080  0.31930  0.11890  Biso   1.000  C
  C11      1.0000 0.23100  0.26990  0.02550  Biso   1.000  C
  C12      1.0000 0.24150  0.28130  0.91550  Biso   1.000  C
  C13      1.0000 0.86990  0.05540  0.58560  Biso   1.000  C
  C14      1.0000 0.85480  0.22570  0.59870  Biso   1.000  C
  C15      1.0000 0.74260  0.00900  0.54880  Biso   1.000  C
  C16      1.0000 0.72620  0.18540  0.55900  Biso   1.000  C
  C17      1.0000 0.66830  0.07760  0.53800  Biso   1.000  C
  C18      1.0000 0.53910  0.04646  0.55066  Biso   1.000  C
  C19      1.0000 0.22130  0.46247  0.72133  Biso   1.000  C
  C20      1.0000 0.20620  0.57210  0.71210  Biso   1.000  C
  C21      1.0000 0.30430  0.66550  0.76370  Biso   1.000  C
  C22      1.0000 0.09240  0.58040  0.65000  Biso   1.000  C
  C23      1.0000 0.29390  0.76890  0.75370  Biso   1.000  C
  C24      1.0000 0.07870  0.67850  0.63830  Biso   1.000  C
  C25      1.0000 0.17900  0.77700  0.69100  Biso   1.000  C
  C26      1.0000 0.39520  0.86700  0.80460  Biso   1.000  C
  C27      1.0000 0.38400  0.96580  0.79180  Biso   1.000  C
  C28      1.0000 0.16920  0.88110  0.68070  Biso   1.000  C
  C29      1.0000 0.26900  0.97450  0.73010  Biso   1.000  C
  C30      1.0000 0.25850  0.08450  0.71870  Biso   1.000  C
  C31      1.0000 0.63010  0.41440  0.94460  Biso   1.000  C
  C32      1.0000 0.64520  0.40130  0.77430  Biso   1.000  C
  C33      1.0000 0.75740  0.45120  0.99100  Biso   1.000  C
  C34      1.0000 0.77380  0.44100  0.81460  Biso   1.000  C
  C35      1.0000 0.83170  0.46200  0.92240  Biso   1.000  C
  C36      1.0000 0.96090  0.44934  0.95354  Biso   1.000  C
  C37      1.0000 0.72130  0.72133  0.46247  Biso   1.000  C
  C38      1.0000 0.70620  0.71210  0.57210  Biso   1.000  C
  C39      1.0000 0.80430  0.76370  0.66550  Biso   1.000  C
  C40      1.0000 0.59240  0.65000  0.58040  Biso   1.000  C
  C41      1.0000 0.79390  0.75370  0.76890  Biso   1.000  C
  C42      1.0000 0.57870  0.63830  0.67850  Biso   1.000  C
  C43      1.0000 0.67900  0.69100  0.77700  Biso   1.000  C
  C44      1.0000 0.89520  0.80460  0.86700  Biso   1.000  C
  C45      1.0000 0.88400  0.79180  0.96580  Biso   1.000  C
  C46      1.0000 0.66920  0.68070  0.88110  Biso   1.000  C
  C47      1.0000 0.76900  0.73010  0.97450  Biso   1.000  C
  C48      1.0000 0.75850  0.71870  0.08450  Biso   1.000  C
  C49      1.0000 0.13010  0.94460  0.41440  Biso   1.000  C
  C50      1.0000 0.14520  0.77430  0.40130  Biso   1.000  C
  C51      1.0000 0.25740  0.99100  0.45120  Biso   1.000  C
  C52      1.0000 0.27380  0.81460  0.44100  Biso   1.000  C
  C53      1.0000 0.33170  0.92240  0.46200  Biso   1.000  C
  C54      1.0000 0.46090  0.95354  0.44934  Biso   1.000  C
  C55      1.0000 0.77870  0.53753  0.27867  Biso   1.000  C
  C56      1.0000 0.79380  0.42790  0.28790  Biso   1.000  C
  C57      1.0000 0.69570  0.33450  0.23630  Biso   1.000  C
  C58      1.0000 0.90760  0.41960  0.35000  Biso   1.000  C
  C59      1.0000 0.70610  0.23110  0.24630  Biso   1.000  C
  C60      1.0000 0.92130  0.32150  0.36170  Biso   1.000  C
  C61      1.0000 0.82100  0.22300  0.30900  Biso   1.000  C
  C62      1.0000 0.60480  0.13300  0.19540  Biso   1.000  C
  C63      1.0000 0.61600  0.03420  0.20820  Biso   1.000  C
  C64      1.0000 0.83080  0.11890  0.31930  Biso   1.000  C
  C65      1.0000 0.73100  0.02550  0.26990  Biso   1.000  C
  C66      1.0000 0.74150  0.91550  0.28130  Biso   1.000  C
  C67      1.0000 0.36990  0.58560  0.05540  Biso   1.000  C
  C68      1.0000 0.35480  0.59870  0.22570  Biso   1.000  C
  C69      1.0000 0.24260  0.54880  0.00900  Biso   1.000  C
  C70      1.0000 0.22620  0.55900  0.18540  Biso   1.000  C
  C71      1.0000 0.16830  0.53800  0.07760  Biso   1.000  C
  C72      1.0000 0.03910  0.55066  0.04646  Biso   1.000  C
  N1       1.0000 0.92590  0.16345  0.61495  Biso   1.000  N
  N2       1.0000 0.57410  0.38505  0.83655  Biso   1.000  N
  N3       1.0000 0.07410  0.83655  0.38505  Biso   1.000  N
  N4       1.0000 0.42590  0.61495  0.16345  Biso   1.000  N
  O1       1.0000 0.17090  0.23465  0.54033  Biso   1.000  O
  O2       1.0000 0.37640  0.31699  0.61939  Biso   1.000  O
  O3       1.0000 0.14220  0.24923  0.83657  Biso   1.000  O
  O4       1.0000 0.35010  0.32145  0.91037  Biso   1.000  O
  O5       1.0000 0.32910  0.45967  0.76535  Biso   1.000  O
  O6       1.0000 0.12360  0.38061  0.68301  Biso   1.000  O
  O7       1.0000 0.35780  0.16343  0.75077  Biso   1.000  O
  O8       1.0000 0.14990  0.08963  0.67855  Biso   1.000  O
  O9       1.0000 0.82910  0.76535  0.45967  Biso   1.000  O
  O10      1.0000 0.62360  0.68301  0.38061  Biso   1.000  O
  O11      1.0000 0.85780  0.75077  0.16343  Biso   1.000  O
  O12      1.0000 0.64990  0.67855  0.08963  Biso   1.000  O
  O13      1.0000 0.67090  0.54033  0.23465  Biso   1.000  O
  O14      1.0000 0.87640  0.61939  0.31699  Biso   1.000  O
  O15      1.0000 0.64220  0.83657  0.24923  Biso   1.000  O
  O16      1.0000 0.85010  0.91037  0.32145  Biso   1.000  O
