data_image0
_cell_length_a       11.616
_cell_length_b       12.503
_cell_length_c       14.891
_cell_angle_alpha    90
_cell_angle_beta     90
_cell_angle_gamma    90

_symmetry_space_group_name_H-M    P 1
_symmetry_int_tables_number       1

loop_
  _symmetry_equiv_pos_as_xyz
  'x, y, z'

loop_
  _atom_site_label
  _atom_site_occupancy
  _atom_site_fract_x
  _atom_site_fract_y
  _atom_site_fract_z
  _atom_site_thermal_displace_type
  _atom_site_B_iso_or_equiv
  _atom_site_type_symbol
  Mn1      1.0000 0.50000  0.50000  0.25000  Biso   1.000  Mn
  Mn2      1.0000 0.50000  0.50000  0.75000  Biso   1.000  Mn
  H1       1.0000 0.30060  0.78260  0.36410  Biso   1.000  H
  H2       1.0000 0.16350  0.91800  0.36480  Biso   1.000  H
  H3       1.0000 0.28600  0.65190  0.21870  Biso   1.000  H
  H4       1.0000 0.08670  0.65710  0.21920  Biso   1.000  H
  H5       1.0000 0.69940  0.21740  0.36410  Biso   1.000  H
  H6       1.0000 0.83650  0.08200  0.36480  Biso   1.000  H
  H7       1.0000 0.71400  0.34810  0.21870  Biso   1.000  H
  H8       1.0000 0.91330  0.34290  0.21920  Biso   1.000  H
  H9       1.0000 0.69940  0.78260  0.13590  Biso   1.000  H
  H10      1.0000 0.83650  0.91800  0.13520  Biso   1.000  H
  H11      1.0000 0.71400  0.65190  0.28130  Biso   1.000  H
  H12      1.0000 0.91330  0.65710  0.28080  Biso   1.000  H
  H13      1.0000 0.30060  0.21740  0.13590  Biso   1.000  H
  H14      1.0000 0.16350  0.08200  0.13520  Biso   1.000  H
  H15      1.0000 0.28600  0.34810  0.28130  Biso   1.000  H
  H16      1.0000 0.08670  0.34290  0.28080  Biso   1.000  H
  H17      1.0000 0.69940  0.21740  0.63590  Biso   1.000  H
  H18      1.0000 0.83650  0.08200  0.63520  Biso   1.000  H
  H19      1.0000 0.71400  0.34810  0.78130  Biso   1.000  H
  H20      1.0000 0.91330  0.34290  0.78080  Biso   1.000  H
  H21      1.0000 0.30060  0.78260  0.63590  Biso   1.000  H
  H22      1.0000 0.16350  0.91800  0.63520  Biso   1.000  H
  H23      1.0000 0.28600  0.65190  0.78130  Biso   1.000  H
  H24      1.0000 0.08670  0.65710  0.78080  Biso   1.000  H
  H25      1.0000 0.30060  0.21740  0.86410  Biso   1.000  H
  H26      1.0000 0.16350  0.08200  0.86480  Biso   1.000  H
  H27      1.0000 0.28600  0.34810  0.71870  Biso   1.000  H
  H28      1.0000 0.08670  0.34290  0.71920  Biso   1.000  H
  H29      1.0000 0.69940  0.78260  0.86410  Biso   1.000  H
  H30      1.0000 0.83650  0.91800  0.86480  Biso   1.000  H
  H31      1.0000 0.71400  0.65190  0.71870  Biso   1.000  H
  H32      1.0000 0.91330  0.65710  0.71920  Biso   1.000  H
  C1       1.0000 0.46320  0.65830  0.42020  Biso   1.000  C
  C2       1.0000 0.27570  0.81200  0.41960  Biso   1.000  C
  C3       1.0000 0.19420  0.89260  0.42000  Biso   1.000  C
  C4       1.0000 0.07710  0.09200  0.42030  Biso   1.000  C
  C5       1.0000 0.24490  0.58820  0.23220  Biso   1.000  C
  C6       1.0000 0.12570  0.59200  0.23190  Biso   1.000  C
  C7       1.0000 0.53680  0.34170  0.42020  Biso   1.000  C
  C8       1.0000 0.72430  0.18800  0.41960  Biso   1.000  C
  C9       1.0000 0.80580  0.10740  0.42000  Biso   1.000  C
  C10      1.0000 0.92290  0.90800  0.42030  Biso   1.000  C
  C11      1.0000 0.75510  0.41180  0.23220  Biso   1.000  C
  C12      1.0000 0.87430  0.40800  0.23190  Biso   1.000  C
  C13      1.0000 0.53680  0.65830  0.07980  Biso   1.000  C
  C14      1.0000 0.72430  0.81200  0.08040  Biso   1.000  C
  C15      1.0000 0.80580  0.89260  0.08000  Biso   1.000  C
  C16      1.0000 0.92290  0.09200  0.07970  Biso   1.000  C
  C17      1.0000 0.75510  0.58820  0.26780  Biso   1.000  C
  C18      1.0000 0.87430  0.59200  0.26810  Biso   1.000  C
  C19      1.0000 0.46320  0.34170  0.07980  Biso   1.000  C
  C20      1.0000 0.27570  0.18800  0.08040  Biso   1.000  C
  C21      1.0000 0.19420  0.10740  0.08000  Biso   1.000  C
  C22      1.0000 0.07710  0.90800  0.07970  Biso   1.000  C
  C23      1.0000 0.24490  0.41180  0.26780  Biso   1.000  C
  C24      1.0000 0.12570  0.40800  0.26810  Biso   1.000  C
  C25      1.0000 0.53680  0.34170  0.57980  Biso   1.000  C
  C26      1.0000 0.72430  0.18800  0.58040  Biso   1.000  C
  C27      1.0000 0.80580  0.10740  0.58000  Biso   1.000  C
  C28      1.0000 0.92290  0.90800  0.57970  Biso   1.000  C
  C29      1.0000 0.75510  0.41180  0.76780  Biso   1.000  C
  C30      1.0000 0.87430  0.40800  0.76810  Biso   1.000  C
  C31      1.0000 0.46320  0.65830  0.57980  Biso   1.000  C
  C32      1.0000 0.27570  0.81200  0.58040  Biso   1.000  C
  C33      1.0000 0.19420  0.89260  0.58000  Biso   1.000  C
  C34      1.0000 0.07710  0.09200  0.57970  Biso   1.000  C
  C35      1.0000 0.24490  0.58820  0.76780  Biso   1.000  C
  C36      1.0000 0.12570  0.59200  0.76810  Biso   1.000  C
  C37      1.0000 0.46320  0.34170  0.92020  Biso   1.000  C
  C38      1.0000 0.27570  0.18800  0.91960  Biso   1.000  C
  C39      1.0000 0.19420  0.10740  0.92000  Biso   1.000  C
  C40      1.0000 0.07710  0.90800  0.92030  Biso   1.000  C
  C41      1.0000 0.24490  0.41180  0.73220  Biso   1.000  C
  C42      1.0000 0.12570  0.40800  0.73190  Biso   1.000  C
  C43      1.0000 0.53680  0.65830  0.92020  Biso   1.000  C
  C44      1.0000 0.72430  0.81200  0.91960  Biso   1.000  C
  C45      1.0000 0.80580  0.89260  0.92000  Biso   1.000  C
  C46      1.0000 0.92290  0.09200  0.92030  Biso   1.000  C
  C47      1.0000 0.75510  0.58820  0.73220  Biso   1.000  C
  C48      1.0000 0.87430  0.59200  0.73190  Biso   1.000  C
  C49      1.0000 0.06420  0.50000  0.25000  Biso   1.000  C
  C50      1.0000 0.93580  0.50000  0.25000  Biso   1.000  C
  C51      1.0000 0.93580  0.50000  0.75000  Biso   1.000  C
  C52      1.0000 0.06420  0.50000  0.75000  Biso   1.000  C
  C53      1.0000 0.41730  0.69790  0.50000  Biso   1.000  C
  C54      1.0000 0.32320  0.77360  0.50000  Biso   1.000  C
  C55      1.0000 0.15650  0.93620  0.50000  Biso   1.000  C
  C56      1.0000 0.06380  0.02720  0.50000  Biso   1.000  C
  C57      1.0000 0.58270  0.30210  0.50000  Biso   1.000  C
  C58      1.0000 0.67680  0.22640  0.50000  Biso   1.000  C
  C59      1.0000 0.84350  0.06380  0.50000  Biso   1.000  C
  C60      1.0000 0.93620  0.97280  0.50000  Biso   1.000  C
  C61      1.0000 0.58270  0.69790  0.00000  Biso   1.000  C
  C62      1.0000 0.67680  0.77360  0.00000  Biso   1.000  C
  C63      1.0000 0.84350  0.93620  0.00000  Biso   1.000  C
  C64      1.0000 0.93620  0.02720  0.00000  Biso   1.000  C
  C65      1.0000 0.41730  0.30210  0.00000  Biso   1.000  C
  C66      1.0000 0.32320  0.22640  0.00000  Biso   1.000  C
  C67      1.0000 0.15650  0.06380  0.00000  Biso   1.000  C
  C68      1.0000 0.06380  0.97280  0.00000  Biso   1.000  C
  N1       1.0000 0.50140  0.62530  0.35420  Biso   1.000  N
  N2       1.0000 0.09410  0.13960  0.35730  Biso   1.000  N
  N3       1.0000 0.49860  0.37470  0.35420  Biso   1.000  N
  N4       1.0000 0.90590  0.86040  0.35730  Biso   1.000  N
  N5       1.0000 0.49860  0.62530  0.14580  Biso   1.000  N
  N6       1.0000 0.90590  0.13960  0.14270  Biso   1.000  N
  N7       1.0000 0.50140  0.37470  0.14580  Biso   1.000  N
  N8       1.0000 0.09410  0.86040  0.14270  Biso   1.000  N
  N9       1.0000 0.49860  0.37470  0.64580  Biso   1.000  N
  N10      1.0000 0.90590  0.86040  0.64270  Biso   1.000  N
  N11      1.0000 0.50140  0.62530  0.64580  Biso   1.000  N
  N12      1.0000 0.09410  0.13960  0.64270  Biso   1.000  N
  N13      1.0000 0.50140  0.37470  0.85420  Biso   1.000  N
  N14      1.0000 0.09410  0.86040  0.85730  Biso   1.000  N
  N15      1.0000 0.49860  0.62530  0.85420  Biso   1.000  N
  N16      1.0000 0.90590  0.13960  0.85730  Biso   1.000  N
  N17      1.0000 0.30450  0.50000  0.25000  Biso   1.000  N
  N18      1.0000 0.69550  0.50000  0.25000  Biso   1.000  N
  N19      1.0000 0.69550  0.50000  0.75000  Biso   1.000  N
  N20      1.0000 0.30450  0.50000  0.75000  Biso   1.000  N
