data_image0
_cell_length_a       6.99407
_cell_length_b       7.489
_cell_length_c       11.1461
_cell_angle_alpha    107.822
_cell_angle_beta     106.364
_cell_angle_gamma    95.4664

_symmetry_space_group_name_H-M    P 1
_symmetry_int_tables_number       1

loop_
  _symmetry_equiv_pos_as_xyz
  'x, y, z'

loop_
  _atom_site_label
  _atom_site_occupancy
  _atom_site_fract_x
  _atom_site_fract_y
  _atom_site_fract_z
  _atom_site_thermal_displace_type
  _atom_site_B_iso_or_equiv
  _atom_site_type_symbol
  Al1      1.0000 0.29518  0.29518  0.59036  Biso   1.000  Al
  Al2      1.0000 0.70482  0.70482  0.40964  Biso   1.000  Al
  Al3      1.0000 0.00000  0.50000  0.50000  Biso   1.000  Al
  Al4      1.0000 0.50000  1.00000  0.50000  Biso   1.000  Al
  H1       1.0000 0.99400  0.31000  0.64800  Biso   1.000  H
  H2       1.0000 0.14200  0.97300  0.47800  Biso   1.000  H
  H3       1.0000 0.65400  0.33800  0.64800  Biso   1.000  H
  H4       1.0000 0.33600  0.50500  0.47800  Biso   1.000  H
  H5       1.0000 0.00600  0.69000  0.35200  Biso   1.000  H
  H6       1.0000 0.85800  0.02700  0.52200  Biso   1.000  H
  H7       1.0000 0.34600  0.66200  0.35200  Biso   1.000  H
  H8       1.0000 0.66400  0.49500  0.52200  Biso   1.000  H
  H9       1.0000 0.55190  0.31210  0.00000  Biso   1.000  H
  H10      1.0000 0.44810  0.68790  1.00000  Biso   1.000  H
  C1       1.0000 0.42680  0.06950  0.75140  Biso   1.000  C
  C2       1.0000 0.45580  0.03390  0.88040  Biso   1.000  C
  C3       1.0000 0.32460  0.68190  0.75140  Biso   1.000  C
  C4       1.0000 0.42460  0.84650  0.88040  Biso   1.000  C
  C5       1.0000 0.57320  0.93050  0.24860  Biso   1.000  C
  C6       1.0000 0.54420  0.96610  0.11960  Biso   1.000  C
  C7       1.0000 0.67540  0.31810  0.24860  Biso   1.000  C
  C8       1.0000 0.57540  0.15350  0.11960  Biso   1.000  C
  C9       1.0000 0.53070  0.18490  0.00000  Biso   1.000  C
  C10      1.0000 0.46930  0.81510  0.00000  Biso   1.000  C
  O1       1.0000 0.02770  0.31620  0.58360  Biso   1.000  O
  O2       1.0000 0.23550  0.04250  0.46700  Biso   1.000  O
  O3       1.0000 0.32790  0.19900  0.73560  Biso   1.000  O
  O4       1.0000 0.50340  0.97020  0.66940  Biso   1.000  O
  O5       1.0000 0.55590  0.26740  0.58360  Biso   1.000  O
  O6       1.0000 0.23150  0.42450  0.46700  Biso   1.000  O
  O7       1.0000 0.40770  0.53660  0.73560  Biso   1.000  O
  O8       1.0000 0.16600  0.69920  0.66940  Biso   1.000  O
  O9       1.0000 0.97230  0.68380  0.41640  Biso   1.000  O
  O10      1.0000 0.76450  0.95750  0.53300  Biso   1.000  O
  O11      1.0000 0.67210  0.80100  0.26440  Biso   1.000  O
  O12      1.0000 0.49660  0.02980  0.33060  Biso   1.000  O
  O13      1.0000 0.44410  0.73260  0.41640  Biso   1.000  O
  O14      1.0000 0.76850  0.57550  0.53300  Biso   1.000  O
  O15      1.0000 0.59230  0.46340  0.26440  Biso   1.000  O
  O16      1.0000 0.83400  0.30080  0.33060  Biso   1.000  O
