data_image0
_cell_length_a       11.7797
_cell_length_b       29.1825
_cell_length_c       14.2285
_cell_angle_alpha    90
_cell_angle_beta     100.679
_cell_angle_gamma    90

_symmetry_space_group_name_H-M    "P 1"
_symmetry_int_tables_number       1

loop_
  _symmetry_equiv_pos_as_xyz
  'x, y, z'

loop_
  _atom_site_label
  _atom_site_occupancy
  _atom_site_fract_x
  _atom_site_fract_y
  _atom_site_fract_z
  _atom_site_thermal_displace_type
  _atom_site_B_iso_or_equiv
  _atom_site_type_symbol
  C1       1.0000 0.33340  0.12590  0.83170  Biso   1.000  C
  C2       1.0000 0.30540  0.17310  0.79200  Biso   1.000  C
  C3       1.0000 0.36170  0.21010  0.83670  Biso   1.000  C
  H1       1.0000 0.41920  0.20600  0.89040  Biso   1.000  H
  C4       1.0000 0.22250  0.18170  0.71330  Biso   1.000  C
  H2       1.0000 0.18000  0.15730  0.68320  Biso   1.000  H
  C5       1.0000 0.33320  0.25380  0.80190  Biso   1.000  C
  H3       1.0000 0.36840  0.27890  0.83590  Biso   1.000  H
  C6       1.0000 0.19940  0.22470  0.67700  Biso   1.000  C
  H4       1.0000 0.14400  0.22860  0.62180  Biso   1.000  H
  C7       1.0000 0.25480  0.26150  0.71920  Biso   1.000  C
  C8       1.0000 0.23110  0.30960  0.68530  Biso   1.000  C
  C9       1.0000 0.29690  0.34550  0.72550  Biso   1.000  C
  H5       1.0000 0.35960  0.34000  0.77440  Biso   1.000  H
  C10      1.0000 0.13580  0.32030  0.61560  Biso   1.000  C
  H6       1.0000 0.08910  0.29680  0.58600  Biso   1.000  H
  C11      1.0000 0.27160  0.39050  0.69450  Biso   1.000  C
  H7       1.0000 0.32170  0.41390  0.71980  Biso   1.000  H
  C12      1.0000 0.10880  0.36570  0.58910  Biso   1.000  C
  H8       1.0000 0.04320  0.37190  0.54340  Biso   1.000  H
  C13      1.0000 0.17660  0.40120  0.62890  Biso   1.000  C
  C14      1.0000 0.14830  0.45000  0.60670  Biso   1.000  C
  C15      1.0000 0.17120  0.04580  0.00660  Biso   1.000  C
  H9       1.0000 0.13970  0.04080  0.94250  Biso   1.000  H
  C16      1.0000 0.32880  0.05920  0.12190  Biso   1.000  C
  H10      1.0000 0.40810  0.06400  0.13880  Biso   1.000  H
  C17      1.0000 0.09770  0.04740  0.07120  Biso   1.000  C
  H11      1.0000 0.01840  0.04400  0.05150  Biso   1.000  H
  C18      1.0000 0.26430  0.06110  0.19220  Biso   1.000  C
  H12      1.0000 0.29830  0.06680  0.25540  Biso   1.000  H
  C19      1.0000 0.14550  0.05430  0.16570  Biso   1.000  C
  C20      1.0000 0.07710  0.09240  0.29780  Biso   1.000  C
  C21      1.0000 0.01430  0.01270  0.24800  Biso   1.000  C
  C22      1.0000 0.94720  0.01130  0.32630  Biso   1.000  C
  C23      1.0000 0.01250  0.08930  0.37840  Biso   1.000  C
  C24      1.0000 0.94930  0.04910  0.38810  Biso   1.000  C
  C25      1.0000 0.88430  0.97290  0.33840  Biso   1.000  C
  H13      1.0000 0.88320  0.94820  0.29690  Biso   1.000  H
  C26      1.0000 0.01150  0.12520  0.43760  Biso   1.000  C
  H14      1.0000 0.05610  0.15100  0.43170  Biso   1.000  H
  C27      1.0000 0.82230  0.97060  0.41240  Biso   1.000  C
  H15      1.0000 0.78060  0.94420  0.42010  Biso   1.000  H
  C28      1.0000 0.94250  0.12340  0.50850  Biso   1.000  C
  H16      1.0000 0.93900  0.14890  0.54700  Biso   1.000  H
  C29      1.0000 0.82150  0.00650  0.47410  Biso   1.000  C
  C30      1.0000 0.88130  0.08560  0.52200  Biso   1.000  C
  C31      1.0000 0.88410  0.04740  0.46120  Biso   1.000  C
  C32      1.0000 0.75950  0.00330  0.55540  Biso   1.000  C
  C33      1.0000 0.80700  0.08490  0.59460  Biso   1.000  C
  C34      1.0000 0.67740  0.04170  0.67800  Biso   1.000  C
  C35      1.0000 0.56660  0.02770  0.65220  Biso   1.000  C
  H17      1.0000 0.53800  0.01880  0.58950  Biso   1.000  H
  C36      1.0000 0.71510  0.05450  0.77090  Biso   1.000  C
  H18      1.0000 0.79140  0.06350  0.79170  Biso   1.000  H
  C37      1.0000 0.49700  0.02670  0.71920  Biso   1.000  C
  H19      1.0000 0.42150  0.01640  0.70030  Biso   1.000  H
  C38      1.0000 0.63900  0.05410  0.83310  Biso   1.000  C
  H20      1.0000 0.66450  0.06450  0.89530  Biso   1.000  H
  N1       1.0000 0.28470  0.05106  0.03090  Biso   1.000  N
  N2       1.0000 0.07500  0.05334  0.23880  Biso   1.000  N
  N3       1.0000 0.75310  0.04298  0.61000  Biso   1.000  N
  N4       1.0000 0.53010  0.03960  0.80860  Biso   1.000  N
  O1       1.0000 0.27870  0.09250  0.79410  Biso   1.000  O
  O2       1.0000 0.41300  0.12285  0.90360  Biso   1.000  O
  O3       1.0000 0.06180  0.45949  0.54240  Biso   1.000  O
  O4       1.0000 0.20910  0.48054  0.65090  Biso   1.000  O
  O5       1.0000 0.01860  0.98109  0.19630  Biso   1.000  O
  O6       1.0000 0.12870  0.12610  0.28240  Biso   1.000  O
  O7       1.0000 0.79210  0.11783  0.64030  Biso   1.000  O
  O8       1.0000 0.71760  0.96773  0.57620  Biso   1.000  O
  Cd1      1.0000 0.40048  0.04377  0.91426  Biso   1.000  Cd
  C39      1.0000 0.16660  0.62590  0.66830  Biso   1.000  C
  C40      1.0000 0.19460  0.67310  0.70800  Biso   1.000  C
  C41      1.0000 0.13830  0.71010  0.66330  Biso   1.000  C
  H21      1.0000 0.08080  0.70600  0.60960  Biso   1.000  H
  C42      1.0000 0.27750  0.68170  0.78670  Biso   1.000  C
  H22      1.0000 0.32000  0.65730  0.81680  Biso   1.000  H
  C43      1.0000 0.16680  0.75380  0.69810  Biso   1.000  C
  H23      1.0000 0.13160  0.77890  0.66410  Biso   1.000  H
  C44      1.0000 0.30060  0.72470  0.82300  Biso   1.000  C
  H24      1.0000 0.35600  0.72860  0.87820  Biso   1.000  H
  C45      1.0000 0.24520  0.76150  0.78080  Biso   1.000  C
  C46      1.0000 0.26890  0.80960  0.81470  Biso   1.000  C
  C47      1.0000 0.20310  0.84550  0.77450  Biso   1.000  C
  H25      1.0000 0.14040  0.84000  0.72560  Biso   1.000  H
  C48      1.0000 0.36420  0.82030  0.88440  Biso   1.000  C
  H26      1.0000 0.41090  0.79680  0.91400  Biso   1.000  H
  C49      1.0000 0.22840  0.89050  0.80550  Biso   1.000  C
  H27      1.0000 0.17830  0.91390  0.78020  Biso   1.000  H
  C50      1.0000 0.39120  0.86570  0.91090  Biso   1.000  C
  H28      1.0000 0.45680  0.87190  0.95660  Biso   1.000  H
  C51      1.0000 0.32340  0.90120  0.87110  Biso   1.000  C
  C52      1.0000 0.35170  0.95000  0.89330  Biso   1.000  C
  C53      1.0000 0.32880  0.54580  0.49340  Biso   1.000  C
  H29      1.0000 0.36030  0.54080  0.55750  Biso   1.000  H
  C54      1.0000 0.17120  0.55920  0.37810  Biso   1.000  C
  H30      1.0000 0.09190  0.56400  0.36120  Biso   1.000  H
  C55      1.0000 0.40230  0.54740  0.42880  Biso   1.000  C
  H31      1.0000 0.48160  0.54400  0.44850  Biso   1.000  H
  C56      1.0000 0.23570  0.56110  0.30780  Biso   1.000  C
  H32      1.0000 0.20170  0.56680  0.24460  Biso   1.000  H
  C57      1.0000 0.35450  0.55430  0.33430  Biso   1.000  C
  C58      1.0000 0.42290  0.59240  0.20220  Biso   1.000  C
  C59      1.0000 0.48570  0.51270  0.25200  Biso   1.000  C
  C60      1.0000 0.55280  0.51130  0.17370  Biso   1.000  C
  C61      1.0000 0.48750  0.58930  0.12160  Biso   1.000  C
  C62      1.0000 0.55070  0.54910  0.11190  Biso   1.000  C
  C63      1.0000 0.61570  0.47290  0.16160  Biso   1.000  C
  H33      1.0000 0.61680  0.44820  0.20310  Biso   1.000  H
  C64      1.0000 0.48850  0.62520  0.06240  Biso   1.000  C
  H34      1.0000 0.44390  0.65100  0.06830  Biso   1.000  H
  C65      1.0000 0.67770  0.47060  0.08760  Biso   1.000  C
  H35      1.0000 0.71940  0.44420  0.07990  Biso   1.000  H
  C66      1.0000 0.55750  0.62340  0.99150  Biso   1.000  C
  H36      1.0000 0.56100  0.64890  0.95300  Biso   1.000  H
  C67      1.0000 0.67850  0.50650  0.02590  Biso   1.000  C
  C68      1.0000 0.61870  0.58560  0.97800  Biso   1.000  C
  C69      1.0000 0.61590  0.54740  0.03880  Biso   1.000  C
  C70      1.0000 0.74050  0.50330  0.94460  Biso   1.000  C
  C71      1.0000 0.69300  0.58490  0.90540  Biso   1.000  C
  C72      1.0000 0.82260  0.54170  0.82200  Biso   1.000  C
  C73      1.0000 0.93340  0.52770  0.84780  Biso   1.000  C
  H37      1.0000 0.96200  0.51880  0.91050  Biso   1.000  H
  C74      1.0000 0.78490  0.55450  0.72910  Biso   1.000  C
  H38      1.0000 0.70860  0.56350  0.70830  Biso   1.000  H
  C75      1.0000 0.00300  0.52670  0.78080  Biso   1.000  C
  H39      1.0000 0.07850  0.51640  0.79970  Biso   1.000  H
  C76      1.0000 0.86100  0.55410  0.66690  Biso   1.000  C
  H40      1.0000 0.83550  0.56450  0.60470  Biso   1.000  H
  N5       1.0000 0.21530  0.55106  0.46910  Biso   1.000  N
  N6       1.0000 0.42500  0.55334  0.26120  Biso   1.000  N
  N7       1.0000 0.74690  0.54298  0.89000  Biso   1.000  N
  N8       1.0000 0.96990  0.53960  0.69140  Biso   1.000  N
  O9       1.0000 0.22130  0.59250  0.70590  Biso   1.000  O
  O10      1.0000 0.08700  0.62285  0.59640  Biso   1.000  O
  O11      1.0000 0.43820  0.95949  0.95760  Biso   1.000  O
  O12      1.0000 0.29090  0.98054  0.84910  Biso   1.000  O
  O13      1.0000 0.48140  0.48109  0.30370  Biso   1.000  O
  O14      1.0000 0.37130  0.62610  0.21760  Biso   1.000  O
  O15      1.0000 0.70790  0.61783  0.85970  Biso   1.000  O
  O16      1.0000 0.78240  0.46773  0.92380  Biso   1.000  O
  Cd2      1.0000 0.09952  0.54377  0.58574  Biso   1.000  Cd
  C77      1.0000 0.66660  0.87410  0.16830  Biso   1.000  C
  C78      1.0000 0.69460  0.82690  0.20800  Biso   1.000  C
  C79      1.0000 0.63830  0.78990  0.16330  Biso   1.000  C
  H41      1.0000 0.58080  0.79400  0.10960  Biso   1.000  H
  C80      1.0000 0.77750  0.81830  0.28670  Biso   1.000  C
  H42      1.0000 0.82000  0.84270  0.31680  Biso   1.000  H
  C81      1.0000 0.66680  0.74620  0.19810  Biso   1.000  C
  H43      1.0000 0.63160  0.72110  0.16410  Biso   1.000  H
  C82      1.0000 0.80060  0.77530  0.32300  Biso   1.000  C
  H44      1.0000 0.85600  0.77140  0.37820  Biso   1.000  H
  C83      1.0000 0.74520  0.73850  0.28080  Biso   1.000  C
  C84      1.0000 0.76890  0.69040  0.31470  Biso   1.000  C
  C85      1.0000 0.70310  0.65450  0.27450  Biso   1.000  C
  H45      1.0000 0.64040  0.66000  0.22560  Biso   1.000  H
  C86      1.0000 0.86420  0.67970  0.38440  Biso   1.000  C
  H46      1.0000 0.91090  0.70320  0.41400  Biso   1.000  H
  C87      1.0000 0.72840  0.60950  0.30550  Biso   1.000  C
  H47      1.0000 0.67830  0.58610  0.28020  Biso   1.000  H
  C88      1.0000 0.89120  0.63430  0.41090  Biso   1.000  C
  H48      1.0000 0.95680  0.62810  0.45660  Biso   1.000  H
  C89      1.0000 0.82340  0.59880  0.37110  Biso   1.000  C
  C90      1.0000 0.85170  0.55000  0.39330  Biso   1.000  C
  C91      1.0000 0.82880  0.95420  0.99340  Biso   1.000  C
  H49      1.0000 0.86030  0.95920  0.05750  Biso   1.000  H
  C92      1.0000 0.67120  0.94080  0.87810  Biso   1.000  C
  H50      1.0000 0.59190  0.93600  0.86120  Biso   1.000  H
  C93      1.0000 0.90230  0.95260  0.92880  Biso   1.000  C
  H51      1.0000 0.98160  0.95600  0.94850  Biso   1.000  H
  C94      1.0000 0.73570  0.93890  0.80780  Biso   1.000  C
  H52      1.0000 0.70170  0.93320  0.74460  Biso   1.000  H
  C95      1.0000 0.85450  0.94570  0.83430  Biso   1.000  C
  C96      1.0000 0.92290  0.90760  0.70220  Biso   1.000  C
  C97      1.0000 0.98570  0.98730  0.75200  Biso   1.000  C
  C98      1.0000 0.05280  0.98870  0.67370  Biso   1.000  C
  C99      1.0000 0.98750  0.91070  0.62160  Biso   1.000  C
  C100     1.0000 0.05070  0.95090  0.61190  Biso   1.000  C
  C101     1.0000 0.11570  0.02710  0.66160  Biso   1.000  C
  H53      1.0000 0.11680  0.05180  0.70310  Biso   1.000  H
  C102     1.0000 0.98850  0.87480  0.56240  Biso   1.000  C
  H54      1.0000 0.94390  0.84900  0.56830  Biso   1.000  H
  C103     1.0000 0.17770  0.02940  0.58760  Biso   1.000  C
  H55      1.0000 0.21940  0.05580  0.57990  Biso   1.000  H
  C104     1.0000 0.05750  0.87660  0.49150  Biso   1.000  C
  H56      1.0000 0.06100  0.85110  0.45300  Biso   1.000  H
  C105     1.0000 0.17850  0.99350  0.52590  Biso   1.000  C
  C106     1.0000 0.11870  0.91440  0.47800  Biso   1.000  C
  C107     1.0000 0.11590  0.95260  0.53880  Biso   1.000  C
  C108     1.0000 0.24050  0.99670  0.44460  Biso   1.000  C
  C109     1.0000 0.19300  0.91510  0.40540  Biso   1.000  C
  C110     1.0000 0.32260  0.95830  0.32200  Biso   1.000  C
  C111     1.0000 0.43340  0.97230  0.34780  Biso   1.000  C
  H57      1.0000 0.46200  0.98120  0.41050  Biso   1.000  H
  C112     1.0000 0.28490  0.94550  0.22910  Biso   1.000  C
  H58      1.0000 0.20860  0.93650  0.20830  Biso   1.000  H
  C113     1.0000 0.50300  0.97330  0.28080  Biso   1.000  C
  H59      1.0000 0.57850  0.98360  0.29970  Biso   1.000  H
  C114     1.0000 0.36100  0.94590  0.16690  Biso   1.000  C
  H60      1.0000 0.33550  0.93550  0.10470  Biso   1.000  H
  N9       1.0000 0.71530  0.94894  0.96910  Biso   1.000  N
  N10      1.0000 0.92500  0.94666  0.76120  Biso   1.000  N
  N11      1.0000 0.24690  0.95702  0.39000  Biso   1.000  N
  N12      1.0000 0.46990  0.96040  0.19140  Biso   1.000  N
  O17      1.0000 0.72130  0.90750  0.20590  Biso   1.000  O
  O18      1.0000 0.58700  0.87715  0.09640  Biso   1.000  O
  O19      1.0000 0.93820  0.54051  0.45760  Biso   1.000  O
  O20      1.0000 0.79090  0.51946  0.34910  Biso   1.000  O
  O21      1.0000 0.98140  0.01891  0.80370  Biso   1.000  O
  O22      1.0000 0.87130  0.87390  0.71760  Biso   1.000  O
  O23      1.0000 0.20790  0.88217  0.35970  Biso   1.000  O
  O24      1.0000 0.28240  0.03227  0.42380  Biso   1.000  O
  Cd3      1.0000 0.59952  0.95624  0.08574  Biso   1.000  Cd
  C115     1.0000 0.83340  0.37410  0.33170  Biso   1.000  C
  C116     1.0000 0.80540  0.32690  0.29200  Biso   1.000  C
  C117     1.0000 0.86170  0.28990  0.33670  Biso   1.000  C
  H61      1.0000 0.91920  0.29400  0.39040  Biso   1.000  H
  C118     1.0000 0.72250  0.31830  0.21330  Biso   1.000  C
  H62      1.0000 0.68000  0.34270  0.18320  Biso   1.000  H
  C119     1.0000 0.83320  0.24620  0.30190  Biso   1.000  C
  H63      1.0000 0.86840  0.22110  0.33590  Biso   1.000  H
  C120     1.0000 0.69940  0.27530  0.17700  Biso   1.000  C
  H64      1.0000 0.64400  0.27140  0.12180  Biso   1.000  H
  C121     1.0000 0.75480  0.23850  0.21920  Biso   1.000  C
  C122     1.0000 0.73110  0.19040  0.18530  Biso   1.000  C
  C123     1.0000 0.79690  0.15450  0.22550  Biso   1.000  C
  H65      1.0000 0.85960  0.16000  0.27440  Biso   1.000  H
  C124     1.0000 0.63580  0.17970  0.11560  Biso   1.000  C
  H66      1.0000 0.58910  0.20320  0.08600  Biso   1.000  H
  C125     1.0000 0.77160  0.10950  0.19450  Biso   1.000  C
  H67      1.0000 0.82170  0.08610  0.21980  Biso   1.000  H
  C126     1.0000 0.60880  0.13430  0.08910  Biso   1.000  C
  H68      1.0000 0.54320  0.12810  0.04340  Biso   1.000  H
  C127     1.0000 0.67660  0.09880  0.12890  Biso   1.000  C
  C128     1.0000 0.64830  0.05000  0.10670  Biso   1.000  C
  C129     1.0000 0.67120  0.45420  0.50660  Biso   1.000  C
  H69      1.0000 0.63970  0.45920  0.44250  Biso   1.000  H
  C130     1.0000 0.82880  0.44080  0.62190  Biso   1.000  C
  H70      1.0000 0.90810  0.43600  0.63880  Biso   1.000  H
  C131     1.0000 0.59770  0.45260  0.57120  Biso   1.000  C
  H71      1.0000 0.51840  0.45600  0.55150  Biso   1.000  H
  C132     1.0000 0.76430  0.43890  0.69220  Biso   1.000  C
  H72      1.0000 0.79830  0.43320  0.75540  Biso   1.000  H
  C133     1.0000 0.64550  0.44570  0.66570  Biso   1.000  C
  C134     1.0000 0.57710  0.40760  0.79780  Biso   1.000  C
  C135     1.0000 0.51430  0.48730  0.74800  Biso   1.000  C
  C136     1.0000 0.44720  0.48870  0.82630  Biso   1.000  C
  C137     1.0000 0.51250  0.41070  0.87840  Biso   1.000  C
  C138     1.0000 0.44930  0.45090  0.88810  Biso   1.000  C
  C139     1.0000 0.38430  0.52710  0.83840  Biso   1.000  C
  H73      1.0000 0.38320  0.55180  0.79690  Biso   1.000  H
  C140     1.0000 0.51150  0.37480  0.93760  Biso   1.000  C
  H74      1.0000 0.55610  0.34900  0.93170  Biso   1.000  H
  C141     1.0000 0.32230  0.52940  0.91240  Biso   1.000  C
  H75      1.0000 0.28060  0.55580  0.92010  Biso   1.000  H
  C142     1.0000 0.44250  0.37660  0.00850  Biso   1.000  C
  H76      1.0000 0.43900  0.35110  0.04700  Biso   1.000  H
  C143     1.0000 0.32150  0.49350  0.97410  Biso   1.000  C
  C144     1.0000 0.38130  0.41440  0.02200  Biso   1.000  C
  C145     1.0000 0.38410  0.45260  0.96120  Biso   1.000  C
  C146     1.0000 0.25950  0.49670  0.05540  Biso   1.000  C
  C147     1.0000 0.30700  0.41510  0.09460  Biso   1.000  C
  C148     1.0000 0.17740  0.45830  0.17800  Biso   1.000  C
  C149     1.0000 0.06660  0.47230  0.15220  Biso   1.000  C
  H77      1.0000 0.03800  0.48120  0.08950  Biso   1.000  H
  C150     1.0000 0.21510  0.44550  0.27090  Biso   1.000  C
  H78      1.0000 0.29140  0.43650  0.29170  Biso   1.000  H
  C151     1.0000 0.99700  0.47330  0.21920  Biso   1.000  C
  H79      1.0000 0.92150  0.48360  0.20030  Biso   1.000  H
  C152     1.0000 0.13900  0.44590  0.33310  Biso   1.000  C
  H80      1.0000 0.16450  0.43550  0.39530  Biso   1.000  H
  N13      1.0000 0.78470  0.44894  0.53090  Biso   1.000  N
  N14      1.0000 0.57500  0.44666  0.73880  Biso   1.000  N
  N15      1.0000 0.25310  0.45702  0.11000  Biso   1.000  N
  N16      1.0000 0.03010  0.46040  0.30860  Biso   1.000  N
  O25      1.0000 0.77870  0.40750  0.29410  Biso   1.000  O
  O26      1.0000 0.91300  0.37715  0.40360  Biso   1.000  O
  O27      1.0000 0.56180  0.04051  0.04240  Biso   1.000  O
  O28      1.0000 0.70910  0.01946  0.15090  Biso   1.000  O
  O29      1.0000 0.51860  0.51891  0.69630  Biso   1.000  O
  O30      1.0000 0.62870  0.37390  0.78240  Biso   1.000  O
  O31      1.0000 0.29210  0.38217  0.14030  Biso   1.000  O
  O32      1.0000 0.21760  0.53227  0.07620  Biso   1.000  O
  Cd4      1.0000 0.90048  0.45624  0.41426  Biso   1.000  Cd
