data_image0
_cell_length_a       16.139
_cell_length_b       18.0992
_cell_length_c       18.0992
_cell_angle_alpha    68.4397
_cell_angle_beta     72.7086
_cell_angle_gamma    107.291

_symmetry_space_group_name_H-M    P 1
_symmetry_int_tables_number       1

loop_
  _symmetry_equiv_pos_as_xyz
  'x, y, z'

loop_
  _atom_site_label
  _atom_site_occupancy
  _atom_site_fract_x
  _atom_site_fract_y
  _atom_site_fract_z
  _atom_site_thermal_displace_type
  _atom_site_B_iso_or_equiv
  _atom_site_type_symbol
  Fe1      1.0000 0.50000  0.00000  0.50000  Biso   1.000  Fe
  Fe2      1.0000 0.00000  0.50000  0.50000  Biso   1.000  Fe
  Fe3      1.0000 0.50000  0.50000  0.00000  Biso   1.000  Fe
  H1       1.0000 0.29070  0.94320  0.79210  Biso   1.000  H
  H2       1.0000 0.25520  0.06180  0.74720  Biso   1.000  H
  H3       1.0000 0.31490  0.15550  0.59580  Biso   1.000  H
  H4       1.0000 0.40790  0.12930  0.49580  Biso   1.000  H
  H5       1.0000 0.66440  0.31570  0.08670  Biso   1.000  H
  H6       1.0000 0.64040  0.42240  0.99630  Biso   1.000  H
  H7       1.0000 0.42920  0.38420  0.19660  Biso   1.000  H
  H8       1.0000 0.44930  0.27570  0.29240  Biso   1.000  H
  H9       1.0000 0.08280  0.79210  0.26470  Biso   1.000  H
  H10      1.0000 0.00240  0.74720  0.19100  Biso   1.000  H
  H11      1.0000 0.91070  0.59580  0.24870  Biso   1.000  H
  H12      1.0000 0.90370  0.49580  0.37490  Biso   1.000  H
  H13      1.0000 0.75110  0.08670  0.59760  Biso   1.000  H
  H14      1.0000 0.63670  0.99630  0.58130  Biso   1.000  H
  H15      1.0000 0.62580  0.19660  0.41920  Biso   1.000  H
  H16      1.0000 0.74170  0.29240  0.43190  Biso   1.000  H
  H17      1.0000 0.34750  0.26470  0.94320  Biso   1.000  H
  H18      1.0000 0.19340  0.19100  0.06180  Biso   1.000  H
  H19      1.0000 0.15940  0.24870  0.15550  Biso   1.000  H
  H20      1.0000 0.27860  0.37490  0.12930  Biso   1.000  H
  H21      1.0000 0.34870  0.59760  0.31570  Biso   1.000  H
  H22      1.0000 0.21800  0.58130  0.42240  Biso   1.000  H
  H23      1.0000 0.04500  0.41920  0.38420  Biso   1.000  H
  H24      1.0000 0.17360  0.43190  0.27570  Biso   1.000  H
  H25      1.0000 0.70930  0.05680  0.20790  Biso   1.000  H
  H26      1.0000 0.74480  0.93820  0.25280  Biso   1.000  H
  H27      1.0000 0.68510  0.84450  0.40420  Biso   1.000  H
  H28      1.0000 0.59210  0.87070  0.50420  Biso   1.000  H
  H29      1.0000 0.33560  0.68430  0.91330  Biso   1.000  H
  H30      1.0000 0.35960  0.57760  0.00370  Biso   1.000  H
  H31      1.0000 0.57080  0.61580  0.80340  Biso   1.000  H
  H32      1.0000 0.55070  0.72430  0.70760  Biso   1.000  H
  H33      1.0000 0.91720  0.20790  0.73530  Biso   1.000  H
  H34      1.0000 0.99760  0.25280  0.80900  Biso   1.000  H
  H35      1.0000 0.08930  0.40420  0.75130  Biso   1.000  H
  H36      1.0000 0.09630  0.50420  0.62510  Biso   1.000  H
  H37      1.0000 0.24890  0.91330  0.40240  Biso   1.000  H
  H38      1.0000 0.36330  0.00370  0.41870  Biso   1.000  H
  H39      1.0000 0.37420  0.80340  0.58080  Biso   1.000  H
  H40      1.0000 0.25830  0.70760  0.56810  Biso   1.000  H
  H41      1.0000 0.65250  0.73530  0.05680  Biso   1.000  H
  H42      1.0000 0.80660  0.80900  0.93820  Biso   1.000  H
  H43      1.0000 0.84060  0.75130  0.84450  Biso   1.000  H
  H44      1.0000 0.72140  0.62510  0.87070  Biso   1.000  H
  H45      1.0000 0.65130  0.40240  0.68430  Biso   1.000  H
  H46      1.0000 0.78200  0.41870  0.57760  Biso   1.000  H
  H47      1.0000 0.95500  0.58080  0.61580  Biso   1.000  H
  H48      1.0000 0.82640  0.56810  0.72430  Biso   1.000  H
  C1       1.0000 0.59360  0.09650  0.31120  Biso   1.000  C
  C2       1.0000 0.43920  0.79860  0.73900  Biso   1.000  C
  C3       1.0000 0.62560  0.02890  0.32940  Biso   1.000  C
  C4       1.0000 0.31600  0.98280  0.73150  Biso   1.000  C
  C5       1.0000 0.29360  0.05250  0.70520  Biso   1.000  C
  C6       1.0000 0.32910  0.10780  0.61590  Biso   1.000  C
  C7       1.0000 0.38570  0.09240  0.55640  Biso   1.000  C
  C8       1.0000 0.44450  0.72090  0.79960  Biso   1.000  C
  C9       1.0000 0.38640  0.67290  0.88840  Biso   1.000  C
  C10      1.0000 0.40090  0.60790  0.94250  Biso   1.000  C
  C11      1.0000 0.47780  0.37020  0.17270  Biso   1.000  C
  C12      1.0000 0.48870  0.30360  0.23120  Biso   1.000  C
  C13      1.0000 0.90480  0.31120  0.59230  Biso   1.000  C
  C14      1.0000 0.17820  0.73900  0.46240  Biso   1.000  C
  C15      1.0000 0.95500  0.32940  0.64170  Biso   1.000  C
  C16      1.0000 0.04750  0.73150  0.28570  Biso   1.000  C
  C17      1.0000 0.99880  0.70520  0.24230  Biso   1.000  C
  C18      1.0000 0.94500  0.61590  0.27630  Biso   1.000  C
  C19      1.0000 0.94210  0.55640  0.35120  Biso   1.000  C
  C20      1.0000 0.24410  0.79960  0.47950  Biso   1.000  C
  C21      1.0000 0.27480  0.88840  0.43870  Biso   1.000  C
  C22      1.0000 0.34340  0.94250  0.44960  Biso   1.000  C
  C23      1.0000 0.65050  0.17270  0.45710  Biso   1.000  C
  C24      1.0000 0.71990  0.23120  0.46520  Biso   1.000  C
  C25      1.0000 0.49710  0.59230  0.09650  Biso   1.000  C
  C26      1.0000 0.64060  0.46240  0.79860  Biso   1.000  C
  C27      1.0000 0.59670  0.64170  0.02890  Biso   1.000  C
  C28      1.0000 0.33320  0.28570  0.98280  Biso   1.000  C
  C29      1.0000 0.24110  0.24230  0.05250  Biso   1.000  C
  C30      1.0000 0.22130  0.27630  0.10780  Biso   1.000  C
  C31      1.0000 0.29330  0.35120  0.09240  Biso   1.000  C
  C32      1.0000 0.72360  0.47950  0.72090  Biso   1.000  C
  C33      1.0000 0.71350  0.43870  0.67290  Biso   1.000  C
  C34      1.0000 0.79300  0.44960  0.60790  Biso   1.000  C
  C35      1.0000 0.10760  0.45710  0.37020  Biso   1.000  C
  C36      1.0000 0.18510  0.46520  0.30360  Biso   1.000  C
  C37      1.0000 0.40640  0.90350  0.68880  Biso   1.000  C
  C38      1.0000 0.56080  0.20140  0.26100  Biso   1.000  C
  C39      1.0000 0.37440  0.97110  0.67060  Biso   1.000  C
  C40      1.0000 0.68400  0.01720  0.26850  Biso   1.000  C
  C41      1.0000 0.70640  0.94750  0.29480  Biso   1.000  C
  C42      1.0000 0.67090  0.89220  0.38410  Biso   1.000  C
  C43      1.0000 0.61430  0.90760  0.44360  Biso   1.000  C
  C44      1.0000 0.55550  0.27910  0.20040  Biso   1.000  C
  C45      1.0000 0.61360  0.32710  0.11160  Biso   1.000  C
  C46      1.0000 0.59910  0.39210  0.05750  Biso   1.000  C
  C47      1.0000 0.52220  0.62980  0.82730  Biso   1.000  C
  C48      1.0000 0.51130  0.69640  0.76880  Biso   1.000  C
  C49      1.0000 0.09520  0.68880  0.40770  Biso   1.000  C
  C50      1.0000 0.82180  0.26100  0.53760  Biso   1.000  C
  C51      1.0000 0.04500  0.67060  0.35830  Biso   1.000  C
  C52      1.0000 0.95250  0.26850  0.71430  Biso   1.000  C
  C53      1.0000 0.00120  0.29480  0.75770  Biso   1.000  C
  C54      1.0000 0.05500  0.38410  0.72370  Biso   1.000  C
  C55      1.0000 0.05790  0.44360  0.64880  Biso   1.000  C
  C56      1.0000 0.75590  0.20040  0.52050  Biso   1.000  C
  C57      1.0000 0.72520  0.11160  0.56130  Biso   1.000  C
  C58      1.0000 0.65660  0.05750  0.55040  Biso   1.000  C
  C59      1.0000 0.34950  0.82730  0.54290  Biso   1.000  C
  C60      1.0000 0.28010  0.76880  0.53480  Biso   1.000  C
  C61      1.0000 0.50290  0.40770  0.90350  Biso   1.000  C
  C62      1.0000 0.35940  0.53760  0.20140  Biso   1.000  C
  C63      1.0000 0.40330  0.35830  0.97110  Biso   1.000  C
  C64      1.0000 0.66680  0.71430  0.01720  Biso   1.000  C
  C65      1.0000 0.75890  0.75770  0.94750  Biso   1.000  C
  C66      1.0000 0.77870  0.72370  0.89220  Biso   1.000  C
  C67      1.0000 0.70670  0.64880  0.90760  Biso   1.000  C
  C68      1.0000 0.27640  0.52050  0.27910  Biso   1.000  C
  C69      1.0000 0.28650  0.56130  0.32710  Biso   1.000  C
  C70      1.0000 0.20700  0.55040  0.39210  Biso   1.000  C
  C71      1.0000 0.89240  0.54290  0.62980  Biso   1.000  C
  C72      1.0000 0.81490  0.53480  0.69640  Biso   1.000  C
  N1       1.0000 0.46863  0.90563  0.61704  Biso   1.000  N
  N2       1.0000 0.48871  0.83713  0.65150  Biso   1.000  N
  N3       1.0000 0.61357  0.16324  0.23343  Biso   1.000  N
  N4       1.0000 0.58930  0.97385  0.41835  Biso   1.000  N
  N5       1.0000 0.46820  0.58467  0.91537  Biso   1.000  N
  N6       1.0000 0.08567  0.61704  0.47733  Biso   1.000  N
  N7       1.0000 0.14021  0.65150  0.51137  Biso   1.000  N
  N8       1.0000 0.84700  0.23343  0.60333  Biso   1.000  N
  N9       1.0000 0.00765  0.41835  0.60780  Biso   1.000  N
  N10      1.0000 0.38357  0.91537  0.49996  Biso   1.000  N
  N11      1.0000 0.56300  0.47733  0.90563  Biso   1.000  N
  N12      1.0000 0.65158  0.51137  0.83713  Biso   1.000  N
  N13      1.0000 0.45033  0.60333  0.16324  Biso   1.000  N
  N14      1.0000 0.61545  0.60780  0.97385  Biso   1.000  N
  N15      1.0000 0.88353  0.49996  0.58467  Biso   1.000  N
  N16      1.0000 0.53137  0.09437  0.38296  Biso   1.000  N
  N17      1.0000 0.51129  0.16287  0.34850  Biso   1.000  N
  N18      1.0000 0.38643  0.83676  0.76657  Biso   1.000  N
  N19      1.0000 0.41070  0.02615  0.58165  Biso   1.000  N
  N20      1.0000 0.53180  0.41533  0.08463  Biso   1.000  N
  N21      1.0000 0.91433  0.38296  0.52267  Biso   1.000  N
  N22      1.0000 0.85979  0.34850  0.48863  Biso   1.000  N
  N23      1.0000 0.15300  0.76657  0.39667  Biso   1.000  N
  N24      1.0000 0.99235  0.58165  0.39220  Biso   1.000  N
  N25      1.0000 0.61643  0.08463  0.50004  Biso   1.000  N
  N26      1.0000 0.43700  0.52267  0.09437  Biso   1.000  N
  N27      1.0000 0.34842  0.48863  0.16287  Biso   1.000  N
  N28      1.0000 0.54967  0.39667  0.83676  Biso   1.000  N
  N29      1.0000 0.38455  0.39220  0.02615  Biso   1.000  N
  N30      1.0000 0.11647  0.50004  0.41533  Biso   1.000  N
  Fe4      1.0000 0.50000  0.50000  0.50000  Biso   1.000  Fe
  Fe5      1.0000 0.00000  0.00000  0.50000  Biso   1.000  Fe
  Fe6      1.0000 0.00000  0.50000  0.00000  Biso   1.000  Fe
  H49      1.0000 0.41720  0.26470  0.79210  Biso   1.000  H
  H50      1.0000 0.49760  0.19100  0.74720  Biso   1.000  H
  H51      1.0000 0.58930  0.24870  0.59580  Biso   1.000  H
  H52      1.0000 0.59630  0.37490  0.49580  Biso   1.000  H
  H53      1.0000 0.74890  0.59760  0.08670  Biso   1.000  H
  H54      1.0000 0.86330  0.58130  0.99630  Biso   1.000  H
  H55      1.0000 0.87420  0.41920  0.19660  Biso   1.000  H
  H56      1.0000 0.75830  0.43190  0.29240  Biso   1.000  H
  H57      1.0000 0.15250  0.94320  0.26470  Biso   1.000  H
  H58      1.0000 0.30660  0.06180  0.19100  Biso   1.000  H
  H59      1.0000 0.34060  0.15550  0.24870  Biso   1.000  H
  H60      1.0000 0.22140  0.12930  0.37490  Biso   1.000  H
  H61      1.0000 0.15130  0.31570  0.59760  Biso   1.000  H
  H62      1.0000 0.28200  0.42240  0.58130  Biso   1.000  H
  H63      1.0000 0.45500  0.38420  0.41920  Biso   1.000  H
  H64      1.0000 0.32640  0.27570  0.43190  Biso   1.000  H
  H65      1.0000 0.20930  0.79210  0.94320  Biso   1.000  H
  H66      1.0000 0.24480  0.74720  0.06180  Biso   1.000  H
  H67      1.0000 0.18510  0.59580  0.15550  Biso   1.000  H
  H68      1.0000 0.09210  0.49580  0.12930  Biso   1.000  H
  H69      1.0000 0.83560  0.08670  0.31570  Biso   1.000  H
  H70      1.0000 0.85960  0.99630  0.42240  Biso   1.000  H
  H71      1.0000 0.07080  0.19660  0.38420  Biso   1.000  H
  H72      1.0000 0.05070  0.29240  0.27570  Biso   1.000  H
  H73      1.0000 0.58280  0.73530  0.20790  Biso   1.000  H
  H74      1.0000 0.50240  0.80900  0.25280  Biso   1.000  H
  H75      1.0000 0.41070  0.75130  0.40420  Biso   1.000  H
  H76      1.0000 0.40370  0.62510  0.50420  Biso   1.000  H
  H77      1.0000 0.25110  0.40240  0.91330  Biso   1.000  H
  H78      1.0000 0.13670  0.41870  0.00370  Biso   1.000  H
  H79      1.0000 0.12580  0.58080  0.80340  Biso   1.000  H
  H80      1.0000 0.24170  0.56810  0.70760  Biso   1.000  H
  H81      1.0000 0.84750  0.05680  0.73530  Biso   1.000  H
  H82      1.0000 0.69340  0.93820  0.80900  Biso   1.000  H
  H83      1.0000 0.65940  0.84450  0.75130  Biso   1.000  H
  H84      1.0000 0.77860  0.87070  0.62510  Biso   1.000  H
  H85      1.0000 0.84870  0.68430  0.40240  Biso   1.000  H
  H86      1.0000 0.71800  0.57760  0.41870  Biso   1.000  H
  H87      1.0000 0.54500  0.61580  0.58080  Biso   1.000  H
  H88      1.0000 0.67360  0.72430  0.56810  Biso   1.000  H
  H89      1.0000 0.79070  0.20790  0.05680  Biso   1.000  H
  H90      1.0000 0.75520  0.25280  0.93820  Biso   1.000  H
  H91      1.0000 0.81490  0.40420  0.84450  Biso   1.000  H
  H92      1.0000 0.90790  0.50420  0.87070  Biso   1.000  H
  H93      1.0000 0.16440  0.91330  0.68430  Biso   1.000  H
  H94      1.0000 0.14040  0.00370  0.57760  Biso   1.000  H
  H95      1.0000 0.92920  0.80340  0.61580  Biso   1.000  H
  H96      1.0000 0.94930  0.70760  0.72430  Biso   1.000  H
  C73      1.0000 0.59520  0.59230  0.31120  Biso   1.000  C
  C74      1.0000 0.32180  0.46240  0.73900  Biso   1.000  C
  C75      1.0000 0.54500  0.64170  0.32940  Biso   1.000  C
  C76      1.0000 0.45250  0.28570  0.73150  Biso   1.000  C
  C77      1.0000 0.50120  0.24230  0.70520  Biso   1.000  C
  C78      1.0000 0.55500  0.27630  0.61590  Biso   1.000  C
  C79      1.0000 0.55790  0.35120  0.55640  Biso   1.000  C
  C80      1.0000 0.25590  0.47950  0.79960  Biso   1.000  C
  C81      1.0000 0.22520  0.43870  0.88840  Biso   1.000  C
  C82      1.0000 0.15660  0.44960  0.94250  Biso   1.000  C
  C83      1.0000 0.84950  0.45710  0.17270  Biso   1.000  C
  C84      1.0000 0.78010  0.46520  0.23120  Biso   1.000  C
  C85      1.0000 0.00290  0.09650  0.59230  Biso   1.000  C
  C86      1.0000 0.85940  0.79860  0.46240  Biso   1.000  C
  C87      1.0000 0.90330  0.02890  0.64170  Biso   1.000  C
  C88      1.0000 0.16680  0.98280  0.28570  Biso   1.000  C
  C89      1.0000 0.25890  0.05250  0.24230  Biso   1.000  C
  C90      1.0000 0.27870  0.10780  0.27630  Biso   1.000  C
  C91      1.0000 0.20670  0.09240  0.35120  Biso   1.000  C
  C92      1.0000 0.77640  0.72090  0.47950  Biso   1.000  C
  C93      1.0000 0.78650  0.67290  0.43870  Biso   1.000  C
  C94      1.0000 0.70700  0.60790  0.44960  Biso   1.000  C
  C95      1.0000 0.39240  0.37020  0.45710  Biso   1.000  C
  C96      1.0000 0.31490  0.30360  0.46520  Biso   1.000  C
  C97      1.0000 0.90640  0.31120  0.09650  Biso   1.000  C
  C98      1.0000 0.06080  0.73900  0.79860  Biso   1.000  C
  C99      1.0000 0.87440  0.32940  0.02890  Biso   1.000  C
  C100     1.0000 0.18400  0.73150  0.98280  Biso   1.000  C
  C101     1.0000 0.20640  0.70520  0.05250  Biso   1.000  C
  C102     1.0000 0.17090  0.61590  0.10780  Biso   1.000  C
  C103     1.0000 0.11430  0.55640  0.09240  Biso   1.000  C
  C104     1.0000 0.05550  0.79960  0.72090  Biso   1.000  C
  C105     1.0000 0.11360  0.88840  0.67290  Biso   1.000  C
  C106     1.0000 0.09910  0.94250  0.60790  Biso   1.000  C
  C107     1.0000 0.02220  0.17270  0.37020  Biso   1.000  C
  C108     1.0000 0.01130  0.23120  0.30360  Biso   1.000  C
  C109     1.0000 0.40480  0.40770  0.68880  Biso   1.000  C
  C110     1.0000 0.67820  0.53760  0.26100  Biso   1.000  C
  C111     1.0000 0.45500  0.35830  0.67060  Biso   1.000  C
  C112     1.0000 0.54750  0.71430  0.26850  Biso   1.000  C
  C113     1.0000 0.49880  0.75770  0.29480  Biso   1.000  C
  C114     1.0000 0.44500  0.72370  0.38410  Biso   1.000  C
  C115     1.0000 0.44210  0.64880  0.44360  Biso   1.000  C
  C116     1.0000 0.74410  0.52050  0.20040  Biso   1.000  C
  C117     1.0000 0.77480  0.56130  0.11160  Biso   1.000  C
  C118     1.0000 0.84340  0.55040  0.05750  Biso   1.000  C
  C119     1.0000 0.15050  0.54290  0.82730  Biso   1.000  C
  C120     1.0000 0.21990  0.53480  0.76880  Biso   1.000  C
  C121     1.0000 0.99710  0.90350  0.40770  Biso   1.000  C
  C122     1.0000 0.14060  0.20140  0.53760  Biso   1.000  C
  C123     1.0000 0.09670  0.97110  0.35830  Biso   1.000  C
  C124     1.0000 0.83320  0.01720  0.71430  Biso   1.000  C
  C125     1.0000 0.74110  0.94750  0.75770  Biso   1.000  C
  C126     1.0000 0.72130  0.89220  0.72370  Biso   1.000  C
  C127     1.0000 0.79330  0.90760  0.64880  Biso   1.000  C
  C128     1.0000 0.22360  0.27910  0.52050  Biso   1.000  C
  C129     1.0000 0.21350  0.32710  0.56130  Biso   1.000  C
  C130     1.0000 0.29300  0.39210  0.55040  Biso   1.000  C
  C131     1.0000 0.60760  0.62980  0.54290  Biso   1.000  C
  C132     1.0000 0.68510  0.69640  0.53480  Biso   1.000  C
  C133     1.0000 0.09360  0.68880  0.90350  Biso   1.000  C
  C134     1.0000 0.93920  0.26100  0.20140  Biso   1.000  C
  C135     1.0000 0.12560  0.67060  0.97110  Biso   1.000  C
  C136     1.0000 0.81600  0.26850  0.01720  Biso   1.000  C
  C137     1.0000 0.79360  0.29480  0.94750  Biso   1.000  C
  C138     1.0000 0.82910  0.38410  0.89220  Biso   1.000  C
  C139     1.0000 0.88570  0.44360  0.90760  Biso   1.000  C
  C140     1.0000 0.94450  0.20040  0.27910  Biso   1.000  C
  C141     1.0000 0.88640  0.11160  0.32710  Biso   1.000  C
  C142     1.0000 0.90090  0.05750  0.39210  Biso   1.000  C
  C143     1.0000 0.97780  0.82730  0.62980  Biso   1.000  C
  C144     1.0000 0.98870  0.76880  0.69640  Biso   1.000  C
  N31      1.0000 0.41433  0.47733  0.61704  Biso   1.000  N
  N32      1.0000 0.35979  0.51137  0.65150  Biso   1.000  N
  N33      1.0000 0.65300  0.60333  0.23343  Biso   1.000  N
  N34      1.0000 0.49235  0.60780  0.41835  Biso   1.000  N
  N35      1.0000 0.11643  0.49996  0.91537  Biso   1.000  N
  N36      1.0000 0.93700  0.90563  0.47733  Biso   1.000  N
  N37      1.0000 0.84842  0.83713  0.51137  Biso   1.000  N
  N38      1.0000 0.04967  0.16324  0.60333  Biso   1.000  N
  N39      1.0000 0.88455  0.97385  0.60780  Biso   1.000  N
  N40      1.0000 0.61647  0.58467  0.49996  Biso   1.000  N
  N41      1.0000 0.03137  0.61704  0.90563  Biso   1.000  N
  N42      1.0000 0.01129  0.65150  0.83713  Biso   1.000  N
  N43      1.0000 0.88643  0.23343  0.16324  Biso   1.000  N
  N44      1.0000 0.91070  0.41835  0.97385  Biso   1.000  N
  N45      1.0000 0.03180  0.91537  0.58467  Biso   1.000  N
  N46      1.0000 0.58567  0.52267  0.38296  Biso   1.000  N
  N47      1.0000 0.64021  0.48863  0.34850  Biso   1.000  N
  N48      1.0000 0.34700  0.39667  0.76657  Biso   1.000  N
  N49      1.0000 0.50765  0.39220  0.58165  Biso   1.000  N
  N50      1.0000 0.88357  0.50004  0.08463  Biso   1.000  N
  N51      1.0000 0.06300  0.09437  0.52267  Biso   1.000  N
  N52      1.0000 0.15158  0.16287  0.48863  Biso   1.000  N
  N53      1.0000 0.95033  0.83676  0.39667  Biso   1.000  N
  N54      1.0000 0.11545  0.02615  0.39220  Biso   1.000  N
  N55      1.0000 0.38353  0.41533  0.50004  Biso   1.000  N
  N56      1.0000 0.96863  0.38296  0.09437  Biso   1.000  N
  N57      1.0000 0.98871  0.34850  0.16287  Biso   1.000  N
  N58      1.0000 0.11357  0.76657  0.83676  Biso   1.000  N
  N59      1.0000 0.08930  0.58165  0.02615  Biso   1.000  N
  N60      1.0000 0.96820  0.08463  0.41533  Biso   1.000  N
