data_image0
_cell_length_a       9.08793
_cell_length_b       16.3372
_cell_length_c       16.3372
_cell_angle_alpha    63.3572
_cell_angle_beta     79.3141
_cell_angle_gamma    100.686

_symmetry_space_group_name_H-M    P 1
_symmetry_int_tables_number       1

loop_
  _symmetry_equiv_pos_as_xyz
  'x, y, z'

loop_
  _atom_site_label
  _atom_site_occupancy
  _atom_site_fract_x
  _atom_site_fract_y
  _atom_site_fract_z
  _atom_site_thermal_displace_type
  _atom_site_B_iso_or_equiv
  _atom_site_type_symbol
  Fe1      1.0000 0.50000  0.50000  0.50000  Biso   1.000  Fe
  Fe2      1.0000 0.00000  0.50000  0.00000  Biso   1.000  Fe
  Fe3      1.0000 0.00000  0.00000  0.50000  Biso   1.000  Fe
  H1       1.0000 0.60160  0.72480  0.40520  Biso   1.000  H
  H2       1.0000 0.83470  0.84910  0.31440  Biso   1.000  H
  H3       1.0000 0.06210  0.81810  0.26630  Biso   1.000  H
  H4       1.0000 0.06040  0.65990  0.32110  Biso   1.000  H
  H5       1.0000 0.69590  0.17580  0.60350  Biso   1.000  H
  H6       1.0000 0.77090  0.04860  0.61190  Biso   1.000  H
  H7       1.0000 0.14220  0.21640  0.39060  Biso   1.000  H
  H8       1.0000 0.07830  0.35020  0.37920  Biso   1.000  H
  H9       1.0000 0.00680  0.40520  0.87000  Biso   1.000  H
  H10      1.0000 0.14910  0.31440  0.83650  Biso   1.000  H
  H11      1.0000 0.32840  0.26630  0.91560  Biso   1.000  H
  H12      1.0000 0.38150  0.32110  0.01900  Biso   1.000  H
  H13      1.0000 0.29940  0.60350  0.22070  Biso   1.000  H
  H14      1.0000 0.38280  0.61190  0.33950  Biso   1.000  H
  H15      1.0000 0.53280  0.39060  0.39300  Biso   1.000  H
  H16      1.0000 0.45750  0.37920  0.27060  Biso   1.000  H
  H17      1.0000 0.87680  0.87000  0.72480  Biso   1.000  H
  H18      1.0000 0.98560  0.83650  0.84910  Biso   1.000  H
  H19      1.0000 0.24400  0.91560  0.81810  Biso   1.000  H
  H20      1.0000 0.40050  0.01900  0.65990  Biso   1.000  H
  H21      1.0000 0.52010  0.22070  0.17580  Biso   1.000  H
  H22      1.0000 0.72230  0.33950  0.04860  Biso   1.000  H
  H23      1.0000 0.92580  0.39300  0.21640  Biso   1.000  H
  H24      1.0000 0.72810  0.27060  0.35020  Biso   1.000  H
  H25      1.0000 0.39840  0.27520  0.59480  Biso   1.000  H
  H26      1.0000 0.16530  0.15090  0.68560  Biso   1.000  H
  H27      1.0000 0.93790  0.18190  0.73370  Biso   1.000  H
  H28      1.0000 0.93960  0.34010  0.67890  Biso   1.000  H
  H29      1.0000 0.30410  0.82420  0.39650  Biso   1.000  H
  H30      1.0000 0.22910  0.95140  0.38810  Biso   1.000  H
  H31      1.0000 0.85780  0.78360  0.60940  Biso   1.000  H
  H32      1.0000 0.92170  0.64980  0.62080  Biso   1.000  H
  H33      1.0000 0.99320  0.59480  0.13000  Biso   1.000  H
  H34      1.0000 0.85090  0.68560  0.16350  Biso   1.000  H
  H35      1.0000 0.67160  0.73370  0.08440  Biso   1.000  H
  H36      1.0000 0.61850  0.67890  0.98100  Biso   1.000  H
  H37      1.0000 0.70060  0.39650  0.77930  Biso   1.000  H
  H38      1.0000 0.61720  0.38810  0.66050  Biso   1.000  H
  H39      1.0000 0.46720  0.60940  0.60700  Biso   1.000  H
  H40      1.0000 0.54250  0.62080  0.72940  Biso   1.000  H
  H41      1.0000 0.12320  0.13000  0.27520  Biso   1.000  H
  H42      1.0000 0.01440  0.16350  0.15090  Biso   1.000  H
  H43      1.0000 0.75600  0.08440  0.18190  Biso   1.000  H
  H44      1.0000 0.59950  0.98100  0.34010  Biso   1.000  H
  H45      1.0000 0.47990  0.77930  0.82420  Biso   1.000  H
  H46      1.0000 0.27770  0.66050  0.95140  Biso   1.000  H
  H47      1.0000 0.07420  0.60700  0.78360  Biso   1.000  H
  H48      1.0000 0.27190  0.72940  0.64980  Biso   1.000  H
  C1       1.0000 0.69366  0.71132  0.38794  Biso   1.000  C
  C2       1.0000 0.83360  0.78620  0.33280  Biso   1.000  C
  C3       1.0000 0.96950  0.76770  0.30560  Biso   1.000  C
  C4       1.0000 0.96840  0.67430  0.33640  Biso   1.000  C
  C5       1.0000 0.82585  0.60164  0.39139  Biso   1.000  C
  C6       1.0000 0.80736  0.49895  0.43147  Biso   1.000  C
  C7       1.0000 0.82414  0.36252  0.47660  Biso   1.000  C
  C8       1.0000 0.87735  0.27915  0.48800  Biso   1.000  C
  C9       1.0000 0.78729  0.18596  0.55879  Biso   1.000  C
  C10      1.0000 0.83224  0.11003  0.56281  Biso   1.000  C
  C11      1.0000 0.05022  0.20814  0.43358  Biso   1.000  C
  C12      1.0000 0.01212  0.28924  0.42618  Biso   1.000  C
  C13      1.0000 0.08160  0.38794  0.90074  Biso   1.000  C
  C14      1.0000 0.16640  0.33280  0.88100  Biso   1.000  C
  C15      1.0000 0.27510  0.30560  0.92670  Biso   1.000  C
  C16      1.0000 0.30480  0.33640  0.98930  Biso   1.000  C
  C17      1.0000 0.21724  0.39139  0.00697  Biso   1.000  C
  C18      1.0000 0.23883  0.43147  0.06958  Biso   1.000  C
  C19      1.0000 0.30074  0.47660  0.16088  Biso   1.000  C
  C20      1.0000 0.36535  0.48800  0.23285  Biso   1.000  C
  C21      1.0000 0.34608  0.55879  0.25525  Biso   1.000  C
  C22      1.0000 0.39505  0.56281  0.32716  Biso   1.000  C
  C23      1.0000 0.48380  0.43358  0.35828  Biso   1.000  C
  C24      1.0000 0.43830  0.42618  0.28458  Biso   1.000  C
  C25      1.0000 0.98234  0.90074  0.71132  Biso   1.000  C
  C26      1.0000 0.04740  0.88100  0.78620  Biso   1.000  C
  C27      1.0000 0.20180  0.92670  0.76770  Biso   1.000  C
  C28      1.0000 0.29410  0.98930  0.67430  Biso   1.000  C
  C29      1.0000 0.22421  0.00697  0.60164  Biso   1.000  C
  C30      1.0000 0.30841  0.06958  0.49895  Biso   1.000  C
  C31      1.0000 0.46162  0.16088  0.36252  Biso   1.000  C
  C32      1.0000 0.59820  0.23285  0.27915  Biso   1.000  C
  C33      1.0000 0.60133  0.25525  0.18596  Biso   1.000  C
  C34      1.0000 0.72221  0.32716  0.11003  Biso   1.000  C
  C35      1.0000 0.84208  0.35828  0.20814  Biso   1.000  C
  C36      1.0000 0.72288  0.28458  0.28924  Biso   1.000  C
  C37      1.0000 0.30634  0.28868  0.61206  Biso   1.000  C
  C38      1.0000 0.16640  0.21380  0.66720  Biso   1.000  C
  C39      1.0000 0.03050  0.23230  0.69440  Biso   1.000  C
  C40      1.0000 0.03160  0.32570  0.66360  Biso   1.000  C
  C41      1.0000 0.17415  0.39836  0.60861  Biso   1.000  C
  C42      1.0000 0.19264  0.50105  0.56853  Biso   1.000  C
  C43      1.0000 0.17586  0.63748  0.52340  Biso   1.000  C
  C44      1.0000 0.12265  0.72085  0.51200  Biso   1.000  C
  C45      1.0000 0.21271  0.81404  0.44121  Biso   1.000  C
  C46      1.0000 0.16776  0.88997  0.43719  Biso   1.000  C
  C47      1.0000 0.94978  0.79186  0.56642  Biso   1.000  C
  C48      1.0000 0.98788  0.71076  0.57382  Biso   1.000  C
  C49      1.0000 0.91840  0.61206  0.09926  Biso   1.000  C
  C50      1.0000 0.83360  0.66720  0.11900  Biso   1.000  C
  C51      1.0000 0.72490  0.69440  0.07330  Biso   1.000  C
  C52      1.0000 0.69520  0.66360  0.01070  Biso   1.000  C
  C53      1.0000 0.78276  0.60861  0.99303  Biso   1.000  C
  C54      1.0000 0.76117  0.56853  0.93042  Biso   1.000  C
  C55      1.0000 0.69926  0.52340  0.83912  Biso   1.000  C
  C56      1.0000 0.63465  0.51200  0.76715  Biso   1.000  C
  C57      1.0000 0.65392  0.44121  0.74475  Biso   1.000  C
  C58      1.0000 0.60495  0.43719  0.67284  Biso   1.000  C
  C59      1.0000 0.51620  0.56642  0.64172  Biso   1.000  C
  C60      1.0000 0.56170  0.57382  0.71542  Biso   1.000  C
  C61      1.0000 0.01766  0.09926  0.28868  Biso   1.000  C
  C62      1.0000 0.95260  0.11900  0.21380  Biso   1.000  C
  C63      1.0000 0.79820  0.07330  0.23230  Biso   1.000  C
  C64      1.0000 0.70590  0.01070  0.32570  Biso   1.000  C
  C65      1.0000 0.77579  0.99303  0.39836  Biso   1.000  C
  C66      1.0000 0.69159  0.93042  0.50105  Biso   1.000  C
  C67      1.0000 0.53838  0.83912  0.63748  Biso   1.000  C
  C68      1.0000 0.40180  0.76715  0.72085  Biso   1.000  C
  C69      1.0000 0.39867  0.74475  0.81404  Biso   1.000  C
  C70      1.0000 0.27779  0.67284  0.88997  Biso   1.000  C
  C71      1.0000 0.15792  0.64172  0.79186  Biso   1.000  C
  C72      1.0000 0.27712  0.71542  0.71076  Biso   1.000  C
  N1       1.0000 0.68933  0.61870  0.41721  Biso   1.000  N
  N2       1.0000 0.66586  0.44003  0.48985  Biso   1.000  N
  N3       1.0000 0.67445  0.34863  0.52178  Biso   1.000  N
  N4       1.0000 0.91350  0.45528  0.41948  Biso   1.000  N
  N5       1.0000 0.96022  0.11853  0.49997  Biso   1.000  N
  N6       1.0000 0.10654  0.41721  0.96409  Biso   1.000  N
  N7       1.0000 0.15571  0.48985  0.07012  Biso   1.000  N
  N8       1.0000 0.19623  0.52178  0.12959  Biso   1.000  N
  N9       1.0000 0.33298  0.41948  0.12524  Biso   1.000  N
  N10      1.0000 0.46019  0.49997  0.38150  Biso   1.000  N
  N11      1.0000 0.07063  0.96409  0.61870  Biso   1.000  N
  N12      1.0000 0.22583  0.07012  0.44003  Biso   1.000  N
  N13      1.0000 0.32582  0.12959  0.34863  Biso   1.000  N
  N14      1.0000 0.45822  0.12524  0.45528  Biso   1.000  N
  N15      1.0000 0.84169  0.38150  0.11853  Biso   1.000  N
  N16      1.0000 0.31067  0.38130  0.58279  Biso   1.000  N
  N17      1.0000 0.33414  0.55997  0.51015  Biso   1.000  N
  N18      1.0000 0.32555  0.65137  0.47822  Biso   1.000  N
  N19      1.0000 0.08650  0.54472  0.58052  Biso   1.000  N
  N20      1.0000 0.03978  0.88147  0.50003  Biso   1.000  N
  N21      1.0000 0.89346  0.58279  0.03591  Biso   1.000  N
  N22      1.0000 0.84429  0.51015  0.92988  Biso   1.000  N
  N23      1.0000 0.80377  0.47822  0.87041  Biso   1.000  N
  N24      1.0000 0.66702  0.58052  0.87476  Biso   1.000  N
  N25      1.0000 0.53981  0.50003  0.61850  Biso   1.000  N
  N26      1.0000 0.92937  0.03591  0.38130  Biso   1.000  N
  N27      1.0000 0.77417  0.92988  0.55997  Biso   1.000  N
  N28      1.0000 0.67418  0.87041  0.65137  Biso   1.000  N
  N29      1.0000 0.54178  0.87476  0.54472  Biso   1.000  N
  N30      1.0000 0.15831  0.61850  0.88147  Biso   1.000  N
