data_image0
_cell_length_a       8.93706
_cell_length_b       16.2155
_cell_length_c       16.2155
_cell_angle_alpha    63.2965
_cell_angle_beta     79.4138
_cell_angle_gamma    100.586

_symmetry_space_group_name_H-M    P 1
_symmetry_int_tables_number       1

loop_
  _symmetry_equiv_pos_as_xyz
  'x, y, z'

loop_
  _atom_site_label
  _atom_site_occupancy
  _atom_site_fract_x
  _atom_site_fract_y
  _atom_site_fract_z
  _atom_site_thermal_displace_type
  _atom_site_B_iso_or_equiv
  _atom_site_type_symbol
  Fe1      1.0000 0.50000  0.00000  0.50000  Biso   1.000  Fe
  Fe2      1.0000 0.00000  0.50000  0.50000  Biso   1.000  Fe
  Fe3      1.0000 0.50000  0.50000  0.00000  Biso   1.000  Fe
  H1       1.0000 0.09870  0.98050  0.33650  Biso   1.000  H
  H2       1.0000 0.25780  0.08790  0.17540  Biso   1.000  H
  H3       1.0000 0.52600  0.16450  0.14580  Biso   1.000  H
  H4       1.0000 0.62970  0.13130  0.27400  Biso   1.000  H
  H5       1.0000 0.76370  0.72740  0.64830  Biso   1.000  H
  H6       1.0000 0.57080  0.60310  0.78230  Biso   1.000  H
  H7       1.0000 0.77050  0.66460  0.95270  Biso   1.000  H
  H8       1.0000 0.97500  0.78640  0.82310  Biso   1.000  H
  H9       1.0000 0.43520  0.33650  0.68300  Biso   1.000  H
  H10      1.0000 0.43320  0.17540  0.73670  Biso   1.000  H
  H11      1.0000 0.67180  0.14580  0.68970  Biso   1.000  H
  H12      1.0000 0.90370  0.27400  0.59470  Biso   1.000  H
  H13      1.0000 0.41200  0.64830  0.62430  Biso   1.000  H
  H14      1.0000 0.35310  0.78230  0.61460  Biso   1.000  H
  H15      1.0000 0.72320  0.95270  0.38270  Biso   1.000  H
  H16      1.0000 0.79810  0.82310  0.39050  Biso   1.000  H
  H17      1.0000 0.11820  0.68300  0.98050  Biso   1.000  H
  H18      1.0000 0.16990  0.73670  0.08790  Biso   1.000  H
  H19      1.0000 0.36150  0.68970  0.16450  Biso   1.000  H
  H20      1.0000 0.49840  0.59470  0.13130  Biso   1.000  H
  H21      1.0000 0.03630  0.62430  0.72740  Biso   1.000  H
  H22      1.0000 0.96770  0.61460  0.60310  Biso   1.000  H
  H23      1.0000 0.10590  0.38270  0.66460  Biso   1.000  H
  H24      1.0000 0.18860  0.39050  0.78640  Biso   1.000  H
  H25      1.0000 0.90130  0.01950  0.66350  Biso   1.000  H
  H26      1.0000 0.74220  0.91210  0.82460  Biso   1.000  H
  H27      1.0000 0.47400  0.83550  0.85420  Biso   1.000  H
  H28      1.0000 0.37030  0.86870  0.72600  Biso   1.000  H
  H29      1.0000 0.23630  0.27260  0.35170  Biso   1.000  H
  H30      1.0000 0.42920  0.39690  0.21770  Biso   1.000  H
  H31      1.0000 0.22950  0.33540  0.04730  Biso   1.000  H
  H32      1.0000 0.02500  0.21360  0.17690  Biso   1.000  H
  H33      1.0000 0.56480  0.66350  0.31700  Biso   1.000  H
  H34      1.0000 0.56680  0.82460  0.26330  Biso   1.000  H
  H35      1.0000 0.32820  0.85420  0.31030  Biso   1.000  H
  H36      1.0000 0.09630  0.72600  0.40530  Biso   1.000  H
  H37      1.0000 0.58800  0.35170  0.37570  Biso   1.000  H
  H38      1.0000 0.64690  0.21770  0.38540  Biso   1.000  H
  H39      1.0000 0.27680  0.04730  0.61730  Biso   1.000  H
  H40      1.0000 0.20190  0.17690  0.60950  Biso   1.000  H
  H41      1.0000 0.88180  0.31700  0.01950  Biso   1.000  H
  H42      1.0000 0.83010  0.26330  0.91210  Biso   1.000  H
  H43      1.0000 0.63850  0.31030  0.83550  Biso   1.000  H
  H44      1.0000 0.50160  0.40530  0.86870  Biso   1.000  H
  H45      1.0000 0.96370  0.37570  0.27260  Biso   1.000  H
  H46      1.0000 0.03230  0.38540  0.39690  Biso   1.000  H
  H47      1.0000 0.89410  0.61730  0.33540  Biso   1.000  H
  H48      1.0000 0.81140  0.60950  0.21360  Biso   1.000  H
  C1       1.0000 0.18990  0.93270  0.49780  Biso   1.000  C
  C2       1.0000 0.03310  0.84160  0.63650  Biso   1.000  C
  C3       1.0000 0.27430  0.99460  0.39620  Biso   1.000  C
  C4       1.0000 0.20840  0.01200  0.32240  Biso   1.000  C
  C5       1.0000 0.30160  0.07540  0.22740  Biso   1.000  C
  C6       1.0000 0.45930  0.12000  0.21020  Biso   1.000  C
  C7       1.0000 0.52060  0.09990  0.28700  Biso   1.000  C
  C8       1.0000 0.89680  0.77040  0.71920  Biso   1.000  C
  C9       1.0000 0.76990  0.71410  0.71060  Biso   1.000  C
  C10      1.0000 0.65500  0.64050  0.79090  Biso   1.000  C
  C11      1.0000 0.77160  0.67560  0.88990  Biso   1.000  C
  C12      1.0000 0.89280  0.74920  0.81290  Biso   1.000  C
  C13      1.0000 0.68770  0.49780  0.56950  Biso   1.000  C
  C14      1.0000 0.66960  0.63650  0.52190  Biso   1.000  C
  C15      1.0000 0.67050  0.39620  0.60920  Biso   1.000  C
  C16      1.0000 0.53080  0.32240  0.66560  Biso   1.000  C
  C17      1.0000 0.52900  0.22740  0.69720  Biso   1.000  C
  C18      1.0000 0.66950  0.21020  0.66980  Biso   1.000  C
  C19      1.0000 0.80760  0.28700  0.61310  Biso   1.000  C
  C20      1.0000 0.61600  0.71920  0.51040  Biso   1.000  C
  C21      1.0000 0.48050  0.71060  0.57530  Biso   1.000  C
  C22      1.0000 0.44590  0.79090  0.56860  Biso   1.000  C
  C23      1.0000 0.66150  0.88990  0.43450  Biso   1.000  C
  C24      1.0000 0.70570  0.81290  0.43790  Biso   1.000  C
  C25      1.0000 0.25720  0.56950  0.93270  Biso   1.000  C
  C26      1.0000 0.19150  0.52190  0.84160  Biso   1.000  C
  C27      1.0000 0.27970  0.60920  0.99460  Biso   1.000  C
  C28      1.0000 0.19640  0.66560  0.01200  Biso   1.000  C
  C29      1.0000 0.22620  0.69720  0.07540  Biso   1.000  C
  C30      1.0000 0.33930  0.66980  0.12000  Biso   1.000  C
  C31      1.0000 0.42070  0.61310  0.09990  Biso   1.000  C
  C32      1.0000 0.12640  0.51040  0.77040  Biso   1.000  C
  C33      1.0000 0.05580  0.57530  0.71410  Biso   1.000  C
  C34      1.0000 0.01450  0.56860  0.64050  Biso   1.000  C
  C35      1.0000 0.09600  0.43450  0.67560  Biso   1.000  C
  C36      1.0000 0.14360  0.43790  0.74920  Biso   1.000  C
  C37      1.0000 0.81010  0.06730  0.50220  Biso   1.000  C
  C38      1.0000 0.96690  0.15840  0.36350  Biso   1.000  C
  C39      1.0000 0.72570  0.00540  0.60380  Biso   1.000  C
  C40      1.0000 0.79160  0.98800  0.67760  Biso   1.000  C
  C41      1.0000 0.69840  0.92460  0.77260  Biso   1.000  C
  C42      1.0000 0.54070  0.88000  0.78980  Biso   1.000  C
  C43      1.0000 0.47940  0.90010  0.71300  Biso   1.000  C
  C44      1.0000 0.10320  0.22960  0.28080  Biso   1.000  C
  C45      1.0000 0.23010  0.28590  0.28940  Biso   1.000  C
  C46      1.0000 0.34500  0.35950  0.20910  Biso   1.000  C
  C47      1.0000 0.22840  0.32440  0.11010  Biso   1.000  C
  C48      1.0000 0.10720  0.25080  0.18710  Biso   1.000  C
  C49      1.0000 0.31230  0.50220  0.43050  Biso   1.000  C
  C50      1.0000 0.33040  0.36350  0.47810  Biso   1.000  C
  C51      1.0000 0.32950  0.60380  0.39080  Biso   1.000  C
  C52      1.0000 0.46920  0.67760  0.33440  Biso   1.000  C
  C53      1.0000 0.47100  0.77260  0.30280  Biso   1.000  C
  C54      1.0000 0.33050  0.78980  0.33020  Biso   1.000  C
  C55      1.0000 0.19240  0.71300  0.38690  Biso   1.000  C
  C56      1.0000 0.38400  0.28080  0.48960  Biso   1.000  C
  C57      1.0000 0.51950  0.28940  0.42470  Biso   1.000  C
  C58      1.0000 0.55410  0.20910  0.43140  Biso   1.000  C
  C59      1.0000 0.33850  0.11010  0.56550  Biso   1.000  C
  C60      1.0000 0.29430  0.18710  0.56210  Biso   1.000  C
  C61      1.0000 0.74280  0.43050  0.06730  Biso   1.000  C
  C62      1.0000 0.80850  0.47810  0.15840  Biso   1.000  C
  C63      1.0000 0.72030  0.39080  0.00540  Biso   1.000  C
  C64      1.0000 0.80360  0.33440  0.98800  Biso   1.000  C
  C65      1.0000 0.77380  0.30280  0.92460  Biso   1.000  C
  C66      1.0000 0.66070  0.33020  0.88000  Biso   1.000  C
  C67      1.0000 0.57930  0.38690  0.90010  Biso   1.000  C
  C68      1.0000 0.87360  0.48960  0.22960  Biso   1.000  C
  C69      1.0000 0.94420  0.42470  0.28590  Biso   1.000  C
  C70      1.0000 0.98550  0.43140  0.35950  Biso   1.000  C
  C71      1.0000 0.90400  0.56550  0.32440  Biso   1.000  C
  C72      1.0000 0.85640  0.56210  0.25080  Biso   1.000  C
  N1       1.0000 0.27310  0.93280  0.55850  Biso   1.000  N
  N2       1.0000 0.16970  0.87360  0.64990  Biso   1.000  N
  N3       1.0000 0.03690  0.87650  0.54360  Biso   1.000  N
  N4       1.0000 0.43160  0.03720  0.38030  Biso   1.000  N
  N5       1.0000 0.65260  0.61710  0.88240  Biso   1.000  N
  N6       1.0000 0.83160  0.55850  0.50870  Biso   1.000  N
  N7       1.0000 0.81960  0.64990  0.47650  Biso   1.000  N
  N8       1.0000 0.58050  0.54360  0.57990  Biso   1.000  N
  N9       1.0000 0.81190  0.38030  0.58250  Biso   1.000  N
  N10      1.0000 0.53500  0.88240  0.50050  Biso   1.000  N
  N11      1.0000 0.34030  0.50870  0.93280  Biso   1.000  N
  N12      1.0000 0.29610  0.47650  0.87360  Biso   1.000  N
  N13      1.0000 0.16040  0.57990  0.87650  Biso   1.000  N
  N14      1.0000 0.39440  0.58250  0.03720  Biso   1.000  N
  N15      1.0000 0.03550  0.50050  0.61710  Biso   1.000  N
  N16      1.0000 0.72690  0.06720  0.44150  Biso   1.000  N
  N17      1.0000 0.83030  0.12640  0.35010  Biso   1.000  N
  N18      1.0000 0.96310  0.12350  0.45640  Biso   1.000  N
  N19      1.0000 0.56840  0.96280  0.61970  Biso   1.000  N
  N20      1.0000 0.34740  0.38290  0.11760  Biso   1.000  N
  N21      1.0000 0.16840  0.44150  0.49130  Biso   1.000  N
  N22      1.0000 0.18040  0.35010  0.52350  Biso   1.000  N
  N23      1.0000 0.41950  0.45640  0.42010  Biso   1.000  N
  N24      1.0000 0.18810  0.61970  0.41750  Biso   1.000  N
  N25      1.0000 0.46500  0.11760  0.49950  Biso   1.000  N
  N26      1.0000 0.65970  0.49130  0.06720  Biso   1.000  N
  N27      1.0000 0.70390  0.52350  0.12640  Biso   1.000  N
  N28      1.0000 0.83960  0.42010  0.12350  Biso   1.000  N
  N29      1.0000 0.60560  0.41750  0.96280  Biso   1.000  N
  N30      1.0000 0.96450  0.49950  0.38290  Biso   1.000  N
