data_image0
_cell_length_a       16.145
_cell_length_b       17.9775
_cell_length_c       17.9775
_cell_angle_alpha    68.5568
_cell_angle_beta     72.5811
_cell_angle_gamma    107.419

_symmetry_space_group_name_H-M    P 1
_symmetry_int_tables_number       1

loop_
  _symmetry_equiv_pos_as_xyz
  'x, y, z'

loop_
  _atom_site_label
  _atom_site_occupancy
  _atom_site_fract_x
  _atom_site_fract_y
  _atom_site_fract_z
  _atom_site_thermal_displace_type
  _atom_site_B_iso_or_equiv
  _atom_site_type_symbol
  Fe1      1.0000 0.00000  0.00000  0.50000  Biso   1.000  Fe
  Fe2      1.0000 0.50000  0.50000  0.50000  Biso   1.000  Fe
  Fe3      1.0000 0.00000  0.50000  0.00000  Biso   1.000  Fe
  H1       1.0000 0.84890  0.05270  0.74250  Biso   1.000  H
  H2       1.0000 0.69390  0.93480  0.81420  Biso   1.000  H
  H3       1.0000 0.66010  0.84210  0.75150  Biso   1.000  H
  H4       1.0000 0.78010  0.86940  0.62400  Biso   1.000  H
  H5       1.0000 0.32760  0.27400  0.43400  Biso   1.000  H
  H6       1.0000 0.45620  0.38160  0.42250  Biso   1.000  H
  H7       1.0000 0.28270  0.42730  0.57860  Biso   1.000  H
  H8       1.0000 0.15120  0.32150  0.59370  Biso   1.000  H
  H9       1.0000 0.59140  0.74250  0.20480  Biso   1.000  H
  H10      1.0000 0.50810  0.81420  0.25100  Biso   1.000  H
  H11      1.0000 0.41160  0.75150  0.40640  Biso   1.000  H
  H12      1.0000 0.40410  0.62400  0.50660  Biso   1.000  H
  H13      1.0000 0.76160  0.43400  0.29200  Biso   1.000  H
  H14      1.0000 0.87870  0.42250  0.19590  Biso   1.000  H
  H15      1.0000 0.86130  0.57860  0.99410  Biso   1.000  H
  H16      1.0000 0.74490  0.59370  0.08480  Biso   1.000  H
  H17      1.0000 0.79620  0.20480  0.05270  Biso   1.000  H
  H18      1.0000 0.75910  0.25100  0.93480  Biso   1.000  H
  H19      1.0000 0.81800  0.40640  0.84210  Biso   1.000  H
  H20      1.0000 0.91070  0.50660  0.86940  Biso   1.000  H
  H21      1.0000 0.05360  0.29200  0.27400  Biso   1.000  H
  H22      1.0000 0.07460  0.19590  0.38160  Biso   1.000  H
  H23      1.0000 0.85540  0.99410  0.42730  Biso   1.000  H
  H24      1.0000 0.82970  0.08480  0.32150  Biso   1.000  H
  H25      1.0000 0.15110  0.94730  0.25750  Biso   1.000  H
  H26      1.0000 0.30610  0.06520  0.18580  Biso   1.000  H
  H27      1.0000 0.33990  0.15790  0.24850  Biso   1.000  H
  H28      1.0000 0.21990  0.13060  0.37600  Biso   1.000  H
  H29      1.0000 0.67240  0.72600  0.56600  Biso   1.000  H
  H30      1.0000 0.54380  0.61840  0.57750  Biso   1.000  H
  H31      1.0000 0.71730  0.57270  0.42140  Biso   1.000  H
  H32      1.0000 0.84880  0.67850  0.40630  Biso   1.000  H
  H33      1.0000 0.40860  0.25750  0.79520  Biso   1.000  H
  H34      1.0000 0.49190  0.18580  0.74900  Biso   1.000  H
  H35      1.0000 0.58840  0.24850  0.59360  Biso   1.000  H
  H36      1.0000 0.59590  0.37600  0.49340  Biso   1.000  H
  H37      1.0000 0.23840  0.56600  0.70800  Biso   1.000  H
  H38      1.0000 0.12130  0.57750  0.80410  Biso   1.000  H
  H39      1.0000 0.13870  0.42140  0.00590  Biso   1.000  H
  H40      1.0000 0.25510  0.40630  0.91520  Biso   1.000  H
  H41      1.0000 0.20380  0.79520  0.94730  Biso   1.000  H
  H42      1.0000 0.24090  0.74900  0.06520  Biso   1.000  H
  H43      1.0000 0.18200  0.59360  0.15790  Biso   1.000  H
  H44      1.0000 0.08930  0.49340  0.13060  Biso   1.000  H
  H45      1.0000 0.94640  0.70800  0.72600  Biso   1.000  H
  H46      1.0000 0.92540  0.80410  0.61840  Biso   1.000  H
  H47      1.0000 0.14460  0.00590  0.57270  Biso   1.000  H
  H48      1.0000 0.17030  0.91520  0.67850  Biso   1.000  H
  C1       1.0000 0.00400  0.09590  0.59280  Biso   1.000  C
  C2       1.0000 0.14120  0.20270  0.53610  Biso   1.000  C
  C3       1.0000 0.90280  0.02540  0.64320  Biso   1.000  C
  C4       1.0000 0.83310  0.01400  0.72030  Biso   1.000  C
  C5       1.0000 0.74210  0.94530  0.76200  Biso   1.000  C
  C6       1.0000 0.72220  0.88980  0.72450  Biso   1.000  C
  C7       1.0000 0.79470  0.90630  0.64830  Biso   1.000  C
  C8       1.0000 0.22330  0.27960  0.52090  Biso   1.000  C
  C9       1.0000 0.31620  0.30310  0.46640  Biso   1.000  C
  C10      1.0000 0.39340  0.36900  0.45910  Biso   1.000  C
  C11      1.0000 0.29320  0.39540  0.54910  Biso   1.000  C
  C12      1.0000 0.21330  0.33070  0.55970  Biso   1.000  C
  C13      1.0000 0.59680  0.59280  0.31130  Biso   1.000  C
  C14      1.0000 0.67730  0.53610  0.26120  Biso   1.000  C
  C15      1.0000 0.54600  0.64320  0.33140  Biso   1.000  C
  C16      1.0000 0.55340  0.72030  0.26570  Biso   1.000  C
  C17      1.0000 0.50410  0.76200  0.29270  Biso   1.000  C
  C18      1.0000 0.44670  0.72450  0.38570  Biso   1.000  C
  C19      1.0000 0.44300  0.64830  0.44540  Biso   1.000  C
  C20      1.0000 0.74420  0.52090  0.19950  Biso   1.000  C
  C21      1.0000 0.78260  0.46640  0.23050  Biso   1.000  C
  C22      1.0000 0.85250  0.45910  0.17190  Biso   1.000  C
  C23      1.0000 0.84230  0.54910  0.05550  Biso   1.000  C
  C24      1.0000 0.77300  0.55970  0.10960  Biso   1.000  C
  C25      1.0000 0.90810  0.31130  0.09590  Biso   1.000  C
  C26      1.0000 0.93850  0.26120  0.20270  Biso   1.000  C
  C27      1.0000 0.87740  0.33140  0.02540  Biso   1.000  C
  C28      1.0000 0.81910  0.26570  0.01400  Biso   1.000  C
  C29      1.0000 0.79680  0.29270  0.94530  Biso   1.000  C
  C30      1.0000 0.83240  0.38570  0.88980  Biso   1.000  C
  C31      1.0000 0.88840  0.44540  0.90630  Biso   1.000  C
  C32      1.0000 0.94370  0.19950  0.27960  Biso   1.000  C
  C33      1.0000 0.01310  0.23050  0.30310  Biso   1.000  C
  C34      1.0000 0.02440  0.17190  0.36900  Biso   1.000  C
  C35      1.0000 0.89780  0.05550  0.39540  Biso   1.000  C
  C36      1.0000 0.88260  0.10960  0.33070  Biso   1.000  C
  C37      1.0000 0.99600  0.90410  0.40720  Biso   1.000  C
  C38      1.0000 0.85880  0.79730  0.46390  Biso   1.000  C
  C39      1.0000 0.09720  0.97460  0.35680  Biso   1.000  C
  C40      1.0000 0.16690  0.98600  0.27970  Biso   1.000  C
  C41      1.0000 0.25790  0.05470  0.23800  Biso   1.000  C
  C42      1.0000 0.27780  0.11020  0.27550  Biso   1.000  C
  C43      1.0000 0.20530  0.09370  0.35170  Biso   1.000  C
  C44      1.0000 0.77670  0.72040  0.47910  Biso   1.000  C
  C45      1.0000 0.68380  0.69690  0.53360  Biso   1.000  C
  C46      1.0000 0.60660  0.63100  0.54090  Biso   1.000  C
  C47      1.0000 0.70680  0.60460  0.45090  Biso   1.000  C
  C48      1.0000 0.78670  0.66930  0.44030  Biso   1.000  C
  C49      1.0000 0.40320  0.40720  0.68870  Biso   1.000  C
  C50      1.0000 0.32270  0.46390  0.73880  Biso   1.000  C
  C51      1.0000 0.45400  0.35680  0.66860  Biso   1.000  C
  C52      1.0000 0.44660  0.27970  0.73430  Biso   1.000  C
  C53      1.0000 0.49590  0.23800  0.70730  Biso   1.000  C
  C54      1.0000 0.55330  0.27550  0.61430  Biso   1.000  C
  C55      1.0000 0.55700  0.35170  0.55460  Biso   1.000  C
  C56      1.0000 0.25580  0.47910  0.80050  Biso   1.000  C
  C57      1.0000 0.21740  0.53360  0.76950  Biso   1.000  C
  C58      1.0000 0.14750  0.54090  0.82810  Biso   1.000  C
  C59      1.0000 0.15770  0.45090  0.94450  Biso   1.000  C
  C60      1.0000 0.22700  0.44030  0.89040  Biso   1.000  C
  C61      1.0000 0.09190  0.68870  0.90410  Biso   1.000  C
  C62      1.0000 0.06150  0.73880  0.79730  Biso   1.000  C
  C63      1.0000 0.12260  0.66860  0.97460  Biso   1.000  C
  C64      1.0000 0.18090  0.73430  0.98600  Biso   1.000  C
  C65      1.0000 0.20320  0.70730  0.05470  Biso   1.000  C
  C66      1.0000 0.16760  0.61430  0.11020  Biso   1.000  C
  C67      1.0000 0.11160  0.55460  0.09370  Biso   1.000  C
  C68      1.0000 0.05630  0.80050  0.72040  Biso   1.000  C
  C69      1.0000 0.98690  0.76950  0.69690  Biso   1.000  C
  C70      1.0000 0.97560  0.82810  0.63100  Biso   1.000  C
  C71      1.0000 0.10220  0.94450  0.60460  Biso   1.000  C
  C72      1.0000 0.11740  0.89040  0.66930  Biso   1.000  C
  N1       1.0000 0.06240  0.09500  0.52200  Biso   1.000  N
  N2       1.0000 0.15110  0.16390  0.48710  Biso   1.000  N
  N3       1.0000 0.05070  0.16310  0.60390  Biso   1.000  N
  N4       1.0000 0.88490  0.97260  0.60750  Biso   1.000  N
  N5       1.0000 0.38500  0.41630  0.50010  Biso   1.000  N
  N6       1.0000 0.58440  0.52200  0.38300  Biso   1.000  N
  N7       1.0000 0.63820  0.48710  0.34900  Biso   1.000  N
  N8       1.0000 0.65460  0.60390  0.23300  Biso   1.000  N
  N9       1.0000 0.49240  0.60750  0.41990  Biso   1.000  N
  N10      1.0000 0.88510  0.50010  0.08360  Biso   1.000  N
  N11      1.0000 0.96740  0.38300  0.09500  Biso   1.000  N
  N12      1.0000 0.98720  0.34900  0.16390  Biso   1.000  N
  N13      1.0000 0.88760  0.23300  0.16310  Biso   1.000  N
  N14      1.0000 0.91230  0.41990  0.97260  Biso   1.000  N
  N15      1.0000 0.96870  0.08360  0.41630  Biso   1.000  N
  N16      1.0000 0.93760  0.90500  0.47800  Biso   1.000  N
  N17      1.0000 0.84890  0.83610  0.51290  Biso   1.000  N
  N18      1.0000 0.94930  0.83690  0.39610  Biso   1.000  N
  N19      1.0000 0.11510  0.02740  0.39250  Biso   1.000  N
  N20      1.0000 0.61500  0.58370  0.49990  Biso   1.000  N
  N21      1.0000 0.41560  0.47800  0.61700  Biso   1.000  N
  N22      1.0000 0.36180  0.51290  0.65100  Biso   1.000  N
  N23      1.0000 0.34540  0.39610  0.76700  Biso   1.000  N
  N24      1.0000 0.50760  0.39250  0.58010  Biso   1.000  N
  N25      1.0000 0.11490  0.49990  0.91640  Biso   1.000  N
  N26      1.0000 0.03260  0.61700  0.90500  Biso   1.000  N
  N27      1.0000 0.01280  0.65100  0.83610  Biso   1.000  N
  N28      1.0000 0.11240  0.76700  0.83690  Biso   1.000  N
  N29      1.0000 0.08770  0.58010  0.02740  Biso   1.000  N
  N30      1.0000 0.03130  0.91640  0.58370  Biso   1.000  N
  Fe4      1.0000 0.00000  0.50000  0.50000  Biso   1.000  Fe
  Fe5      1.0000 0.50000  0.00000  0.50000  Biso   1.000  Fe
  Fe6      1.0000 0.50000  0.50000  0.00000  Biso   1.000  Fe
  H49      1.0000 0.90860  0.20480  0.74250  Biso   1.000  H
  H50      1.0000 0.99190  0.25100  0.81420  Biso   1.000  H
  H51      1.0000 0.08840  0.40640  0.75150  Biso   1.000  H
  H52      1.0000 0.09590  0.50660  0.62400  Biso   1.000  H
  H53      1.0000 0.73840  0.29200  0.43400  Biso   1.000  H
  H54      1.0000 0.62130  0.19590  0.42250  Biso   1.000  H
  H55      1.0000 0.63870  0.99410  0.57860  Biso   1.000  H
  H56      1.0000 0.75510  0.08480  0.59370  Biso   1.000  H
  H57      1.0000 0.70380  0.05270  0.20480  Biso   1.000  H
  H58      1.0000 0.74090  0.93480  0.25100  Biso   1.000  H
  H59      1.0000 0.68200  0.84210  0.40640  Biso   1.000  H
  H60      1.0000 0.58930  0.86940  0.50660  Biso   1.000  H
  H61      1.0000 0.44640  0.27400  0.29200  Biso   1.000  H
  H62      1.0000 0.42540  0.38160  0.19590  Biso   1.000  H
  H63      1.0000 0.64460  0.42730  0.99410  Biso   1.000  H
  H64      1.0000 0.67030  0.32150  0.08480  Biso   1.000  H
  H65      1.0000 0.65110  0.74250  0.05270  Biso   1.000  H
  H66      1.0000 0.80610  0.81420  0.93480  Biso   1.000  H
  H67      1.0000 0.83990  0.75150  0.84210  Biso   1.000  H
  H68      1.0000 0.71990  0.62400  0.86940  Biso   1.000  H
  H69      1.0000 0.17240  0.43400  0.27400  Biso   1.000  H
  H70      1.0000 0.04380  0.42250  0.38160  Biso   1.000  H
  H71      1.0000 0.21730  0.57860  0.42730  Biso   1.000  H
  H72      1.0000 0.34880  0.59370  0.32150  Biso   1.000  H
  H73      1.0000 0.09140  0.79520  0.25750  Biso   1.000  H
  H74      1.0000 0.00810  0.74900  0.18580  Biso   1.000  H
  H75      1.0000 0.91160  0.59360  0.24850  Biso   1.000  H
  H76      1.0000 0.90410  0.49340  0.37600  Biso   1.000  H
  H77      1.0000 0.26160  0.70800  0.56600  Biso   1.000  H
  H78      1.0000 0.37870  0.80410  0.57750  Biso   1.000  H
  H79      1.0000 0.36130  0.00590  0.42140  Biso   1.000  H
  H80      1.0000 0.24490  0.91520  0.40630  Biso   1.000  H
  H81      1.0000 0.29620  0.94730  0.79520  Biso   1.000  H
  H82      1.0000 0.25910  0.06520  0.74900  Biso   1.000  H
  H83      1.0000 0.31800  0.15790  0.59360  Biso   1.000  H
  H84      1.0000 0.41070  0.13060  0.49340  Biso   1.000  H
  H85      1.0000 0.55360  0.72600  0.70800  Biso   1.000  H
  H86      1.0000 0.57460  0.61840  0.80410  Biso   1.000  H
  H87      1.0000 0.35540  0.57270  0.00590  Biso   1.000  H
  H88      1.0000 0.32970  0.67850  0.91520  Biso   1.000  H
  H89      1.0000 0.34890  0.25750  0.94730  Biso   1.000  H
  H90      1.0000 0.19390  0.18580  0.06520  Biso   1.000  H
  H91      1.0000 0.16010  0.24850  0.15790  Biso   1.000  H
  H92      1.0000 0.28010  0.37600  0.13060  Biso   1.000  H
  H93      1.0000 0.82760  0.56600  0.72600  Biso   1.000  H
  H94      1.0000 0.95620  0.57750  0.61840  Biso   1.000  H
  H95      1.0000 0.78270  0.42140  0.57270  Biso   1.000  H
  H96      1.0000 0.65120  0.40630  0.67850  Biso   1.000  H
  C73      1.0000 0.90320  0.31130  0.59280  Biso   1.000  C
  C74      1.0000 0.82270  0.26120  0.53610  Biso   1.000  C
  C75      1.0000 0.95400  0.33140  0.64320  Biso   1.000  C
  C76      1.0000 0.94660  0.26570  0.72030  Biso   1.000  C
  C77      1.0000 0.99590  0.29270  0.76200  Biso   1.000  C
  C78      1.0000 0.05330  0.38570  0.72450  Biso   1.000  C
  C79      1.0000 0.05700  0.44540  0.64830  Biso   1.000  C
  C80      1.0000 0.75580  0.19950  0.52090  Biso   1.000  C
  C81      1.0000 0.71740  0.23050  0.46640  Biso   1.000  C
  C82      1.0000 0.64750  0.17190  0.45910  Biso   1.000  C
  C83      1.0000 0.65770  0.05550  0.54910  Biso   1.000  C
  C84      1.0000 0.72700  0.10960  0.55970  Biso   1.000  C
  C85      1.0000 0.59190  0.09590  0.31130  Biso   1.000  C
  C86      1.0000 0.56150  0.20270  0.26120  Biso   1.000  C
  C87      1.0000 0.62260  0.02540  0.33140  Biso   1.000  C
  C88      1.0000 0.68090  0.01400  0.26570  Biso   1.000  C
  C89      1.0000 0.70320  0.94530  0.29270  Biso   1.000  C
  C90      1.0000 0.66760  0.88980  0.38570  Biso   1.000  C
  C91      1.0000 0.61160  0.90630  0.44540  Biso   1.000  C
  C92      1.0000 0.55630  0.27960  0.19950  Biso   1.000  C
  C93      1.0000 0.48690  0.30310  0.23050  Biso   1.000  C
  C94      1.0000 0.47560  0.36900  0.17190  Biso   1.000  C
  C95      1.0000 0.60220  0.39540  0.05550  Biso   1.000  C
  C96      1.0000 0.61740  0.33070  0.10960  Biso   1.000  C
  C97      1.0000 0.49600  0.59280  0.09590  Biso   1.000  C
  C98      1.0000 0.35880  0.53610  0.20270  Biso   1.000  C
  C99      1.0000 0.59720  0.64320  0.02540  Biso   1.000  C
  C100     1.0000 0.66690  0.72030  0.01400  Biso   1.000  C
  C101     1.0000 0.75790  0.76200  0.94530  Biso   1.000  C
  C102     1.0000 0.77780  0.72450  0.88980  Biso   1.000  C
  C103     1.0000 0.70530  0.64830  0.90630  Biso   1.000  C
  C104     1.0000 0.27670  0.52090  0.27960  Biso   1.000  C
  C105     1.0000 0.18380  0.46640  0.30310  Biso   1.000  C
  C106     1.0000 0.10660  0.45910  0.36900  Biso   1.000  C
  C107     1.0000 0.20680  0.54910  0.39540  Biso   1.000  C
  C108     1.0000 0.28670  0.55970  0.33070  Biso   1.000  C
  C109     1.0000 0.09680  0.68870  0.40720  Biso   1.000  C
  C110     1.0000 0.17730  0.73880  0.46390  Biso   1.000  C
  C111     1.0000 0.04600  0.66860  0.35680  Biso   1.000  C
  C112     1.0000 0.05340  0.73430  0.27970  Biso   1.000  C
  C113     1.0000 0.00410  0.70730  0.23800  Biso   1.000  C
  C114     1.0000 0.94670  0.61430  0.27550  Biso   1.000  C
  C115     1.0000 0.94300  0.55460  0.35170  Biso   1.000  C
  C116     1.0000 0.24420  0.80050  0.47910  Biso   1.000  C
  C117     1.0000 0.28260  0.76950  0.53360  Biso   1.000  C
  C118     1.0000 0.35250  0.82810  0.54090  Biso   1.000  C
  C119     1.0000 0.34230  0.94450  0.45090  Biso   1.000  C
  C120     1.0000 0.27300  0.89040  0.44030  Biso   1.000  C
  C121     1.0000 0.40810  0.90410  0.68870  Biso   1.000  C
  C122     1.0000 0.43850  0.79730  0.73880  Biso   1.000  C
  C123     1.0000 0.37740  0.97460  0.66860  Biso   1.000  C
  C124     1.0000 0.31910  0.98600  0.73430  Biso   1.000  C
  C125     1.0000 0.29680  0.05470  0.70730  Biso   1.000  C
  C126     1.0000 0.33240  0.11020  0.61430  Biso   1.000  C
  C127     1.0000 0.38840  0.09370  0.55460  Biso   1.000  C
  C128     1.0000 0.44370  0.72040  0.80050  Biso   1.000  C
  C129     1.0000 0.51310  0.69690  0.76950  Biso   1.000  C
  C130     1.0000 0.52440  0.63100  0.82810  Biso   1.000  C
  C131     1.0000 0.39780  0.60460  0.94450  Biso   1.000  C
  C132     1.0000 0.38260  0.66930  0.89040  Biso   1.000  C
  C133     1.0000 0.50400  0.40720  0.90410  Biso   1.000  C
  C134     1.0000 0.64120  0.46390  0.79730  Biso   1.000  C
  C135     1.0000 0.40280  0.35680  0.97460  Biso   1.000  C
  C136     1.0000 0.33310  0.27970  0.98600  Biso   1.000  C
  C137     1.0000 0.24210  0.23800  0.05470  Biso   1.000  C
  C138     1.0000 0.22220  0.27550  0.11020  Biso   1.000  C
  C139     1.0000 0.29470  0.35170  0.09370  Biso   1.000  C
  C140     1.0000 0.72330  0.47910  0.72040  Biso   1.000  C
  C141     1.0000 0.81620  0.53360  0.69690  Biso   1.000  C
  C142     1.0000 0.89340  0.54090  0.63100  Biso   1.000  C
  C143     1.0000 0.79320  0.45090  0.60460  Biso   1.000  C
  C144     1.0000 0.71330  0.44030  0.66930  Biso   1.000  C
  N31      1.0000 0.91560  0.38300  0.52200  Biso   1.000  N
  N32      1.0000 0.86180  0.34900  0.48710  Biso   1.000  N
  N33      1.0000 0.84540  0.23300  0.60390  Biso   1.000  N
  N34      1.0000 0.00760  0.41990  0.60750  Biso   1.000  N
  N35      1.0000 0.61490  0.08360  0.50010  Biso   1.000  N
  N36      1.0000 0.53260  0.09500  0.38300  Biso   1.000  N
  N37      1.0000 0.51280  0.16390  0.34900  Biso   1.000  N
  N38      1.0000 0.61240  0.16310  0.23300  Biso   1.000  N
  N39      1.0000 0.58770  0.97260  0.41990  Biso   1.000  N
  N40      1.0000 0.53130  0.41630  0.08360  Biso   1.000  N
  N41      1.0000 0.43760  0.52200  0.09500  Biso   1.000  N
  N42      1.0000 0.34890  0.48710  0.16390  Biso   1.000  N
  N43      1.0000 0.44930  0.60390  0.16310  Biso   1.000  N
  N44      1.0000 0.61510  0.60750  0.97260  Biso   1.000  N
  N45      1.0000 0.11500  0.50010  0.41630  Biso   1.000  N
  N46      1.0000 0.08440  0.61700  0.47800  Biso   1.000  N
  N47      1.0000 0.13820  0.65100  0.51290  Biso   1.000  N
  N48      1.0000 0.15460  0.76700  0.39610  Biso   1.000  N
  N49      1.0000 0.99240  0.58010  0.39250  Biso   1.000  N
  N50      1.0000 0.38510  0.91640  0.49990  Biso   1.000  N
  N51      1.0000 0.46740  0.90500  0.61700  Biso   1.000  N
  N52      1.0000 0.48720  0.83610  0.65100  Biso   1.000  N
  N53      1.0000 0.38760  0.83690  0.76700  Biso   1.000  N
  N54      1.0000 0.41230  0.02740  0.58010  Biso   1.000  N
  N55      1.0000 0.46870  0.58370  0.91640  Biso   1.000  N
  N56      1.0000 0.56240  0.47800  0.90500  Biso   1.000  N
  N57      1.0000 0.65110  0.51290  0.83610  Biso   1.000  N
  N58      1.0000 0.55070  0.39610  0.83690  Biso   1.000  N
  N59      1.0000 0.38490  0.39250  0.02740  Biso   1.000  N
  N60      1.0000 0.88500  0.49990  0.58370  Biso   1.000  N
