data_image0
_cell_length_a       12.3982
_cell_length_b       18.8929
_cell_length_c       18.8929
_cell_angle_alpha    64.645
_cell_angle_beta     77.3646
_cell_angle_gamma    102.635

_symmetry_space_group_name_H-M    P 1
_symmetry_int_tables_number       1

loop_
  _symmetry_equiv_pos_as_xyz
  'x, y, z'

loop_
  _atom_site_label
  _atom_site_occupancy
  _atom_site_fract_x
  _atom_site_fract_y
  _atom_site_fract_z
  _atom_site_thermal_displace_type
  _atom_site_B_iso_or_equiv
  _atom_site_type_symbol
  Fe1      1.0000 0.00000  0.00000  0.50000  Biso   1.000  Fe
  Fe2      1.0000 0.50000  0.50000  0.50000  Biso   1.000  Fe
  Fe3      1.0000 0.00000  0.50000  0.00000  Biso   1.000  Fe
  H1       1.0000 0.32100  0.07240  0.25010  Biso   1.000  H
  H2       1.0000 0.40330  0.97360  0.31150  Biso   1.000  H
  H3       1.0000 0.31930  0.88080  0.45480  Biso   1.000  H
  H4       1.0000 0.16110  0.89050  0.53290  Biso   1.000  H
  H5       1.0000 0.19690  0.29510  0.10290  Biso   1.000  H
  H6       1.0000 0.17100  0.40850  0.00900  Biso   1.000  H
  H7       1.0000 0.87780  0.36500  0.17640  Biso   1.000  H
  H8       1.0000 0.89920  0.25140  0.27430  Biso   1.000  H
  H9       1.0000 0.57110  0.25010  0.67750  Biso   1.000  H
  H10      1.0000 0.71480  0.31150  0.71490  Biso   1.000  H
  H11      1.0000 0.77410  0.45480  0.66440  Biso   1.000  H
  H12      1.0000 0.69400  0.53290  0.57660  Biso   1.000  H
  H13      1.0000 0.29980  0.10290  0.60200  Biso   1.000  H
  H14      1.0000 0.18000  0.00900  0.58250  Biso   1.000  H
  H15      1.0000 0.05420  0.17640  0.45860  Biso   1.000  H
  H16      1.0000 0.17350  0.27430  0.47430  Biso   1.000  H
  H17      1.0000 0.24860  0.67750  0.07240  Biso   1.000  H
  H18      1.0000 0.42970  0.71490  0.97360  Biso   1.000  H
  H19      1.0000 0.43850  0.66440  0.88080  Biso   1.000  H
  H20      1.0000 0.27060  0.57660  0.89050  Biso   1.000  H
  H21      1.0000 0.90180  0.60200  0.29510  Biso   1.000  H
  H22      1.0000 0.76250  0.58250  0.40850  Biso   1.000  H
  H23      1.0000 0.51280  0.45860  0.36500  Biso   1.000  H
  H24      1.0000 0.64780  0.47430  0.25140  Biso   1.000  H
  H25      1.0000 0.67900  0.92760  0.74990  Biso   1.000  H
  H26      1.0000 0.59670  0.02640  0.68850  Biso   1.000  H
  H27      1.0000 0.68070  0.11920  0.54520  Biso   1.000  H
  H28      1.0000 0.83890  0.10950  0.46710  Biso   1.000  H
  H29      1.0000 0.80310  0.70490  0.89710  Biso   1.000  H
  H30      1.0000 0.82900  0.59150  0.99100  Biso   1.000  H
  H31      1.0000 0.12220  0.63500  0.82360  Biso   1.000  H
  H32      1.0000 0.10080  0.74860  0.72570  Biso   1.000  H
  H33      1.0000 0.42890  0.74990  0.32250  Biso   1.000  H
  H34      1.0000 0.28520  0.68850  0.28510  Biso   1.000  H
  H35      1.0000 0.22590  0.54520  0.33560  Biso   1.000  H
  H36      1.0000 0.30600  0.46710  0.42340  Biso   1.000  H
  H37      1.0000 0.70020  0.89710  0.39800  Biso   1.000  H
  H38      1.0000 0.82000  0.99100  0.41750  Biso   1.000  H
  H39      1.0000 0.94580  0.82360  0.54140  Biso   1.000  H
  H40      1.0000 0.82650  0.72570  0.52570  Biso   1.000  H
  H41      1.0000 0.75140  0.32250  0.92760  Biso   1.000  H
  H42      1.0000 0.57030  0.28510  0.02640  Biso   1.000  H
  H43      1.0000 0.56150  0.33560  0.11920  Biso   1.000  H
  H44      1.0000 0.72940  0.42340  0.10950  Biso   1.000  H
  H45      1.0000 0.09820  0.39800  0.70490  Biso   1.000  H
  H46      1.0000 0.23750  0.41750  0.59150  Biso   1.000  H
  H47      1.0000 0.48720  0.54140  0.63500  Biso   1.000  H
  H48      1.0000 0.35220  0.52570  0.74860  Biso   1.000  H
  C1       1.0000 0.13049  0.09511  0.32804  Biso   1.000  C
  C2       1.0000 0.06792  0.18833  0.26427  Biso   1.000  C
  C3       1.0000 0.19184  0.03805  0.35723  Biso   1.000  C
  C4       1.0000 0.28897  0.03500  0.30759  Biso   1.000  C
  C5       1.0000 0.33781  0.97632  0.34389  Biso   1.000  C
  C6       1.0000 0.28825  0.92137  0.42922  Biso   1.000  C
  C7       1.0000 0.19306  0.92760  0.47532  Biso   1.000  C
  C8       1.0000 0.05363  0.26053  0.19994  Biso   1.000  C
  C9       1.0000 0.13168  0.30868  0.11954  Biso   1.000  C
  C10      1.0000 0.11530  0.37655  0.06315  Biso   1.000  C
  C11      1.0000 0.94336  0.35116  0.16148  Biso   1.000  C
  C12      1.0000 0.95567  0.28300  0.22049  Biso   1.000  C
  C13      1.0000 0.45853  0.32804  0.57685  Biso   1.000  C
  C14      1.0000 0.33219  0.26427  0.54740  Biso   1.000  C
  C15      1.0000 0.54907  0.35723  0.60472  Biso   1.000  C
  C16      1.0000 0.59656  0.30759  0.65741  Biso   1.000  C
  C17      1.0000 0.68170  0.34389  0.67979  Biso   1.000  C
  C18      1.0000 0.71747  0.42922  0.64941  Biso   1.000  C
  C19      1.0000 0.66838  0.47532  0.59708  Biso   1.000  C
  C20      1.0000 0.25357  0.19994  0.53953  Biso   1.000  C
  C21      1.0000 0.25122  0.11954  0.57178  Biso   1.000  C
  C22      1.0000 0.17845  0.06315  0.56030  Biso   1.000  C
  C23      1.0000 0.10484  0.16148  0.48736  Biso   1.000  C
  C24      1.0000 0.17616  0.22049  0.49651  Biso   1.000  C
  C25      1.0000 0.03538  0.57685  0.09511  Biso   1.000  C
  C26      1.0000 0.87959  0.54740  0.18833  Biso   1.000  C
  C27      1.0000 0.15379  0.60472  0.03805  Biso   1.000  C
  C28      1.0000 0.25397  0.65741  0.03500  Biso   1.000  C
  C29      1.0000 0.36149  0.67979  0.97632  Biso   1.000  C
  C30      1.0000 0.36688  0.64941  0.92137  Biso   1.000  C
  C31      1.0000 0.26546  0.59708  0.92760  Biso   1.000  C
  C32      1.0000 0.79310  0.53953  0.26053  Biso   1.000  C
  C33      1.0000 0.82300  0.57178  0.30868  Biso   1.000  C
  C34      1.0000 0.73875  0.56030  0.37655  Biso   1.000  C
  C35      1.0000 0.59220  0.48736  0.35116  Biso   1.000  C
  C36      1.0000 0.67267  0.49651  0.28300  Biso   1.000  C
  C37      1.0000 0.86951  0.90489  0.67196  Biso   1.000  C
  C38      1.0000 0.93208  0.81167  0.73573  Biso   1.000  C
  C39      1.0000 0.80816  0.96195  0.64277  Biso   1.000  C
  C40      1.0000 0.71103  0.96500  0.69241  Biso   1.000  C
  C41      1.0000 0.66219  0.02368  0.65611  Biso   1.000  C
  C42      1.0000 0.71175  0.07863  0.57078  Biso   1.000  C
  C43      1.0000 0.80694  0.07240  0.52468  Biso   1.000  C
  C44      1.0000 0.94637  0.73947  0.80006  Biso   1.000  C
  C45      1.0000 0.86832  0.69132  0.88046  Biso   1.000  C
  C46      1.0000 0.88470  0.62345  0.93685  Biso   1.000  C
  C47      1.0000 0.05664  0.64884  0.83852  Biso   1.000  C
  C48      1.0000 0.04433  0.71700  0.77951  Biso   1.000  C
  C49      1.0000 0.54147  0.67196  0.42315  Biso   1.000  C
  C50      1.0000 0.66781  0.73573  0.45260  Biso   1.000  C
  C51      1.0000 0.45093  0.64277  0.39528  Biso   1.000  C
  C52      1.0000 0.40344  0.69241  0.34259  Biso   1.000  C
  C53      1.0000 0.31830  0.65611  0.32021  Biso   1.000  C
  C54      1.0000 0.28253  0.57078  0.35059  Biso   1.000  C
  C55      1.0000 0.33162  0.52468  0.40292  Biso   1.000  C
  C56      1.0000 0.74643  0.80006  0.46047  Biso   1.000  C
  C57      1.0000 0.74878  0.88046  0.42822  Biso   1.000  C
  C58      1.0000 0.82155  0.93685  0.43970  Biso   1.000  C
  C59      1.0000 0.89516  0.83852  0.51264  Biso   1.000  C
  C60      1.0000 0.82384  0.77951  0.50349  Biso   1.000  C
  C61      1.0000 0.96462  0.42315  0.90489  Biso   1.000  C
  C62      1.0000 0.12041  0.45260  0.81167  Biso   1.000  C
  C63      1.0000 0.84621  0.39528  0.96195  Biso   1.000  C
  C64      1.0000 0.74603  0.34259  0.96500  Biso   1.000  C
  C65      1.0000 0.63851  0.32021  0.02368  Biso   1.000  C
  C66      1.0000 0.63312  0.35059  0.07863  Biso   1.000  C
  C67      1.0000 0.73454  0.40292  0.07240  Biso   1.000  C
  C68      1.0000 0.20690  0.46047  0.73947  Biso   1.000  C
  C69      1.0000 0.17700  0.42822  0.69132  Biso   1.000  C
  C70      1.0000 0.26125  0.43970  0.62345  Biso   1.000  C
  C71      1.0000 0.40780  0.51264  0.64884  Biso   1.000  C
  C72      1.0000 0.32733  0.50349  0.71700  Biso   1.000  C
  N1       1.0000 0.03636  0.08737  0.38489  Biso   1.000  N
  N2       1.0000 0.99393  0.14699  0.34440  Biso   1.000  N
  N3       1.0000 0.15445  0.15856  0.25001  Biso   1.000  N
  N4       1.0000 0.14222  0.98507  0.44183  Biso   1.000  N
  N5       1.0000 0.02218  0.39977  0.08193  Biso   1.000  N
  N6       1.0000 0.42125  0.38489  0.52774  Biso   1.000  N
  N7       1.0000 0.33833  0.34440  0.50861  Biso   1.000  N
  N8       1.0000 0.40446  0.25001  0.59143  Biso   1.000  N
  N9       1.0000 0.58405  0.44183  0.57310  Biso   1.000  N
  N10      1.0000 0.10411  0.08193  0.51830  Biso   1.000  N
  N11      1.0000 0.94899  0.52774  0.08737  Biso   1.000  N
  N12      1.0000 0.84694  0.50861  0.14699  Biso   1.000  N
  N13      1.0000 0.99589  0.59143  0.15856  Biso   1.000  N
  N14      1.0000 0.15715  0.57310  0.98507  Biso   1.000  N
  N15      1.0000 0.62241  0.51830  0.39977  Biso   1.000  N
  N16      1.0000 0.96364  0.91263  0.61511  Biso   1.000  N
  N17      1.0000 0.00607  0.85301  0.65560  Biso   1.000  N
  N18      1.0000 0.84555  0.84144  0.74999  Biso   1.000  N
  N19      1.0000 0.85778  0.01493  0.55817  Biso   1.000  N
  N20      1.0000 0.97782  0.60023  0.91807  Biso   1.000  N
  N21      1.0000 0.57875  0.61511  0.47226  Biso   1.000  N
  N22      1.0000 0.66167  0.65560  0.49139  Biso   1.000  N
  N23      1.0000 0.59554  0.74999  0.40857  Biso   1.000  N
  N24      1.0000 0.41595  0.55817  0.42690  Biso   1.000  N
  N25      1.0000 0.89589  0.91807  0.48170  Biso   1.000  N
  N26      1.0000 0.05101  0.47226  0.91263  Biso   1.000  N
  N27      1.0000 0.15306  0.49139  0.85301  Biso   1.000  N
  N28      1.0000 0.00411  0.40857  0.84144  Biso   1.000  N
  N29      1.0000 0.84285  0.42690  0.01493  Biso   1.000  N
  N30      1.0000 0.37759  0.48170  0.60023  Biso   1.000  N
