data_image0
_cell_length_a       11.8998
_cell_length_b       18.9792
_cell_length_c       18.9792
_cell_angle_alpha    64.2478
_cell_angle_beta     77.9364
_cell_angle_gamma    102.064

_symmetry_space_group_name_H-M    P 1
_symmetry_int_tables_number       1

loop_
  _symmetry_equiv_pos_as_xyz
  'x, y, z'

loop_
  _atom_site_label
  _atom_site_occupancy
  _atom_site_fract_x
  _atom_site_fract_y
  _atom_site_fract_z
  _atom_site_thermal_displace_type
  _atom_site_B_iso_or_equiv
  _atom_site_type_symbol
  Fe1      1.0000 0.50000  0.00000  0.50000  Biso   1.000  Fe
  Fe2      1.0000 0.00000  0.50000  0.50000  Biso   1.000  Fe
  Fe3      1.0000 0.50000  0.50000  0.00000  Biso   1.000  Fe
  H1       1.0000 0.23800  0.06410  0.68410  Biso   1.000  H
  H2       1.0000 0.05040  0.96250  0.72230  Biso   1.000  H
  H3       1.0000 0.04660  0.87470  0.66450  Biso   1.000  H
  H4       1.0000 0.22140  0.88930  0.57350  Biso   1.000  H
  H5       1.0000 0.85440  0.25330  0.47220  Biso   1.000  H
  H6       1.0000 0.99300  0.36770  0.45610  Biso   1.000  H
  H7       1.0000 0.73080  0.40900  0.58320  Biso   1.000  H
  H8       1.0000 0.58520  0.29470  0.60210  Biso   1.000  H
  H9       1.0000 0.92210  0.68410  0.25180  Biso   1.000  H
  H10      1.0000 0.77270  0.72230  0.31520  Biso   1.000  H
  H11      1.0000 0.71110  0.66450  0.46080  Biso   1.000  H
  H12      1.0000 0.79490  0.57350  0.53720  Biso   1.000  H
  H13      1.0000 0.32660  0.47220  0.27450  Biso   1.000  H
  H14      1.0000 0.44910  0.45610  0.17620  Biso   1.000  H
  H15      1.0000 0.31400  0.58320  0.00780  Biso   1.000  H
  H16      1.0000 0.18730  0.60210  0.10320  Biso   1.000  H
  H17      1.0000 0.17390  0.25180  0.06410  Biso   1.000  H
  H18      1.0000 0.08790  0.31520  0.96250  Biso   1.000  H
  H19      1.0000 0.17190  0.46080  0.87470  Biso   1.000  H
  H20      1.0000 0.33210  0.53720  0.88930  Biso   1.000  H
  H21      1.0000 0.60110  0.27450  0.25330  Biso   1.000  H
  H22      1.0000 0.62530  0.17620  0.36770  Biso   1.000  H
  H23      1.0000 0.32180  0.00780  0.40900  Biso   1.000  H
  H24      1.0000 0.29050  0.10320  0.29470  Biso   1.000  H
  H25      1.0000 0.76200  0.93590  0.31590  Biso   1.000  H
  H26      1.0000 0.94960  0.03750  0.27770  Biso   1.000  H
  H27      1.0000 0.95340  0.12530  0.33550  Biso   1.000  H
  H28      1.0000 0.77860  0.11070  0.42650  Biso   1.000  H
  H29      1.0000 0.14560  0.74670  0.52780  Biso   1.000  H
  H30      1.0000 0.00700  0.63230  0.54390  Biso   1.000  H
  H31      1.0000 0.26920  0.59100  0.41680  Biso   1.000  H
  H32      1.0000 0.41480  0.70530  0.39790  Biso   1.000  H
  H33      1.0000 0.07790  0.31590  0.74820  Biso   1.000  H
  H34      1.0000 0.22730  0.27770  0.68480  Biso   1.000  H
  H35      1.0000 0.28890  0.33550  0.53920  Biso   1.000  H
  H36      1.0000 0.20510  0.42650  0.46280  Biso   1.000  H
  H37      1.0000 0.67340  0.52780  0.72550  Biso   1.000  H
  H38      1.0000 0.55090  0.54390  0.82380  Biso   1.000  H
  H39      1.0000 0.68600  0.41680  0.99220  Biso   1.000  H
  H40      1.0000 0.81270  0.39790  0.89680  Biso   1.000  H
  H41      1.0000 0.82610  0.74820  0.93590  Biso   1.000  H
  H42      1.0000 0.91210  0.68480  0.03750  Biso   1.000  H
  H43      1.0000 0.82810  0.53920  0.12530  Biso   1.000  H
  H44      1.0000 0.66790  0.46280  0.11070  Biso   1.000  H
  H45      1.0000 0.39890  0.72550  0.74670  Biso   1.000  H
  H46      1.0000 0.37470  0.82380  0.63230  Biso   1.000  H
  H47      1.0000 0.67820  0.99220  0.59100  Biso   1.000  H
  H48      1.0000 0.70950  0.89680  0.70530  Biso   1.000  H
  C1       1.0000 0.45770  0.09290  0.57880  Biso   1.000  C
  C2       1.0000 0.61639  0.18784  0.54807  Biso   1.000  C
  C3       1.0000 0.33503  0.03308  0.60769  Biso   1.000  C
  C4       1.0000 0.23291  0.02752  0.66219  Biso   1.000  C
  C5       1.0000 0.12271  0.96806  0.68463  Biso   1.000  C
  C6       1.0000 0.12105  0.91636  0.65021  Biso   1.000  C
  C7       1.0000 0.22550  0.92525  0.59625  Biso   1.000  C
  C8       1.0000 0.70391  0.25998  0.53915  Biso   1.000  C
  C9       1.0000 0.82688  0.28443  0.49559  Biso   1.000  C
  C10      1.0000 0.90917  0.35281  0.48600  Biso   1.000  C
  C11      1.0000 0.75606  0.37694  0.56026  Biso   1.000  C
  C12      1.0000 0.66858  0.30869  0.57205  Biso   1.000  C
  C13      1.0000 0.03650  0.57880  0.32830  Biso   1.000  C
  C14      1.0000 0.16446  0.54807  0.26409  Biso   1.000  C
  C15      1.0000 0.94272  0.60769  0.35923  Biso   1.000  C
  C16      1.0000 0.89510  0.66219  0.31029  Biso   1.000  C
  C17      1.0000 0.80734  0.68463  0.34731  Biso   1.000  C
  C18      1.0000 0.77126  0.65021  0.43343  Biso   1.000  C
  C19      1.0000 0.82175  0.59625  0.47850  Biso   1.000  C
  C20      1.0000 0.24306  0.53915  0.20087  Biso   1.000  C
  C21      1.0000 0.32247  0.49559  0.21998  Biso   1.000  C
  C22      1.0000 0.39517  0.48600  0.16119  Biso   1.000  C
  C23      1.0000 0.31632  0.56026  0.06280  Biso   1.000  C
  C24      1.0000 0.24063  0.57205  0.11926  Biso   1.000  C
  C25      1.0000 0.36480  0.32830  0.09290  Biso   1.000  C
  C26      1.0000 0.42855  0.26409  0.18784  Biso   1.000  C
  C27      1.0000 0.30195  0.35923  0.03308  Biso   1.000  C
  C28      1.0000 0.20539  0.31029  0.02752  Biso   1.000  C
  C29      1.0000 0.15465  0.34731  0.96806  Biso   1.000  C
  C30      1.0000 0.20469  0.43343  0.91636  Biso   1.000  C
  C31      1.0000 0.30025  0.47850  0.92525  Biso   1.000  C
  C32      1.0000 0.44393  0.20087  0.25998  Biso   1.000  C
  C33      1.0000 0.54245  0.21998  0.28443  Biso   1.000  C
  C34      1.0000 0.55636  0.16119  0.35281  Biso   1.000  C
  C35      1.0000 0.37912  0.06280  0.37694  Biso   1.000  C
  C36      1.0000 0.35989  0.11926  0.30869  Biso   1.000  C
  C37      1.0000 0.54230  0.90710  0.42120  Biso   1.000  C
  C38      1.0000 0.38361  0.81216  0.45193  Biso   1.000  C
  C39      1.0000 0.66497  0.96692  0.39231  Biso   1.000  C
  C40      1.0000 0.76709  0.97248  0.33781  Biso   1.000  C
  C41      1.0000 0.87729  0.03194  0.31537  Biso   1.000  C
  C42      1.0000 0.87895  0.08364  0.34979  Biso   1.000  C
  C43      1.0000 0.77450  0.07475  0.40375  Biso   1.000  C
  C44      1.0000 0.29609  0.74002  0.46085  Biso   1.000  C
  C45      1.0000 0.17312  0.71557  0.50441  Biso   1.000  C
  C46      1.0000 0.09083  0.64719  0.51400  Biso   1.000  C
  C47      1.0000 0.24394  0.62306  0.43974  Biso   1.000  C
  C48      1.0000 0.33142  0.69131  0.42795  Biso   1.000  C
  C49      1.0000 0.96350  0.42120  0.67170  Biso   1.000  C
  C50      1.0000 0.83554  0.45193  0.73591  Biso   1.000  C
  C51      1.0000 0.05728  0.39231  0.64077  Biso   1.000  C
  C52      1.0000 0.10490  0.33781  0.68971  Biso   1.000  C
  C53      1.0000 0.19266  0.31537  0.65269  Biso   1.000  C
  C54      1.0000 0.22874  0.34979  0.56657  Biso   1.000  C
  C55      1.0000 0.17825  0.40375  0.52150  Biso   1.000  C
  C56      1.0000 0.75694  0.46085  0.79913  Biso   1.000  C
  C57      1.0000 0.67753  0.50441  0.78002  Biso   1.000  C
  C58      1.0000 0.60483  0.51400  0.83881  Biso   1.000  C
  C59      1.0000 0.68368  0.43974  0.93720  Biso   1.000  C
  C60      1.0000 0.75937  0.42795  0.88074  Biso   1.000  C
  C61      1.0000 0.63520  0.67170  0.90710  Biso   1.000  C
  C62      1.0000 0.57145  0.73591  0.81216  Biso   1.000  C
  C63      1.0000 0.69805  0.64077  0.96692  Biso   1.000  C
  C64      1.0000 0.79461  0.68971  0.97248  Biso   1.000  C
  C65      1.0000 0.84535  0.65269  0.03194  Biso   1.000  C
  C66      1.0000 0.79531  0.56657  0.08364  Biso   1.000  C
  C67      1.0000 0.69975  0.52150  0.07475  Biso   1.000  C
  C68      1.0000 0.55607  0.79913  0.74002  Biso   1.000  C
  C69      1.0000 0.45755  0.78002  0.71557  Biso   1.000  C
  C70      1.0000 0.44364  0.83881  0.64719  Biso   1.000  C
  C71      1.0000 0.62088  0.93720  0.62306  Biso   1.000  C
  C72      1.0000 0.64011  0.88074  0.69131  Biso   1.000  C
  N1       1.0000 0.54759  0.08629  0.52932  Biso   1.000  N
  N2       1.0000 0.65239  0.14805  0.50828  Biso   1.000  N
  N3       1.0000 0.49505  0.15538  0.59313  Biso   1.000  N
  N4       1.0000 0.33481  0.98253  0.57340  Biso   1.000  N
  N5       1.0000 0.87598  0.40067  0.51763  Biso   1.000  N
  N6       1.0000 0.07691  0.52932  0.38439  Biso   1.000  N
  N7       1.0000 0.16067  0.50828  0.34367  Biso   1.000  N
  N8       1.0000 0.08818  0.59313  0.25149  Biso   1.000  N
  N9       1.0000 0.90821  0.57340  0.44407  Biso   1.000  N
  N10      1.0000 0.39361  0.51763  0.08170  Biso   1.000  N
  N11      1.0000 0.46130  0.38439  0.08629  Biso   1.000  N
  N12      1.0000 0.50434  0.34367  0.14805  Biso   1.000  N
  N13      1.0000 0.33967  0.25149  0.15538  Biso   1.000  N
  N14      1.0000 0.35228  0.44407  0.98253  Biso   1.000  N
  N15      1.0000 0.47531  0.08170  0.40067  Biso   1.000  N
  N16      1.0000 0.45241  0.91371  0.47068  Biso   1.000  N
  N17      1.0000 0.34761  0.85195  0.49172  Biso   1.000  N
  N18      1.0000 0.50495  0.84462  0.40687  Biso   1.000  N
  N19      1.0000 0.66519  0.01747  0.42660  Biso   1.000  N
  N20      1.0000 0.12402  0.59933  0.48237  Biso   1.000  N
  N21      1.0000 0.92309  0.47068  0.61561  Biso   1.000  N
  N22      1.0000 0.83933  0.49172  0.65633  Biso   1.000  N
  N23      1.0000 0.91182  0.40687  0.74851  Biso   1.000  N
  N24      1.0000 0.09179  0.42660  0.55593  Biso   1.000  N
  N25      1.0000 0.60639  0.48237  0.91830  Biso   1.000  N
  N26      1.0000 0.53870  0.61561  0.91371  Biso   1.000  N
  N27      1.0000 0.49566  0.65633  0.85195  Biso   1.000  N
  N28      1.0000 0.66033  0.74851  0.84462  Biso   1.000  N
  N29      1.0000 0.64772  0.55593  0.01747  Biso   1.000  N
  N30      1.0000 0.52469  0.91830  0.59933  Biso   1.000  N
