data_image0
_cell_length_a       17.755
_cell_length_b       19.838
_cell_length_c       13.311
_cell_angle_alpha    90
_cell_angle_beta     131.834
_cell_angle_gamma    90

_symmetry_space_group_name_H-M    "P 1"
_symmetry_int_tables_number       1

loop_
  _symmetry_equiv_pos_as_xyz
  'x, y, z'

loop_
  _atom_site_label
  _atom_site_occupancy
  _atom_site_fract_x
  _atom_site_fract_y
  _atom_site_fract_z
  _atom_site_thermal_displace_type
  _atom_site_B_iso_or_equiv
  _atom_site_type_symbol
  La1      1.0000 0.89195  0.26696  0.28394  Biso   1.000  La
  La2      1.0000 0.60805  0.51695  0.21615  Biso   1.000  La
  O1       1.0000 0.72420  0.55170  0.47210  Biso   1.000  O
  H1       1.0000 0.73290  0.59300  0.46630  Biso   1.000  H
  H2       1.0000 0.75500  0.54120  0.55260  Biso   1.000  H
  O2       1.0000 0.58400  0.38880  0.14430  Biso   1.000  O
  H3       1.0000 0.55780  0.38610  0.18030  Biso   1.000  H
  H4       1.0000 0.61030  0.35000  0.14690  Biso   1.000  H
  O3       1.0000 0.73220  0.60960  0.26690  Biso   1.000  O
  H5       1.0000 0.72360  0.63900  0.21620  Biso   1.000  H
  H6       1.0000 0.78750  0.61300  0.34470  Biso   1.000  H
  O4       1.0000 0.41710  0.49180  0.03200  Biso   1.000  O
  H7       1.0000 0.37270  0.51200  0.96060  Biso   1.000  H
  H8       1.0000 0.39520  0.45410  0.03200  Biso   1.000  H
  O5       1.0000 0.96510  0.35860  0.23320  Biso   1.000  O
  H9       1.0000 0.96960  0.39730  0.26080  Biso   1.000  H
  H10      1.0000 0.94350  0.36010  0.15500  Biso   1.000  H
  O6       1.0000 0.75150  0.30210  0.02700  Biso   1.000  O
  H11      1.0000 0.76620  0.33210  0.99760  Biso   1.000  H
  H12      1.0000 0.71330  0.27330  0.96730  Biso   1.000  H
  O7       1.0000 0.93890  0.13880  0.35430  Biso   1.000  O
  H13      1.0000 0.89440  0.11870  0.28100  Biso   1.000  H
  H14      1.0000 0.96260  0.11150  0.41830  Biso   1.000  H
  O8       1.0000 0.88490  0.24150  0.46810  Biso   1.000  O
  H15      1.0000 0.92580  0.25560  0.54750  Biso   1.000  H
  H16      1.0000 0.86480  0.20310  0.46550  Biso   1.000  H
  O9       1.0000 0.43880  0.71250  0.16530  Biso   1.000  O
  O10      1.0000 0.52760  0.61620  0.24000  Biso   1.000  O
  O11      1.0000 0.55620  0.54250  0.82500  Biso   1.000  O
  O12      1.0000 0.60040  0.50535  0.01740  Biso   1.000  O
  O13      1.0000 0.78850  0.36660  0.26030  Biso   1.000  O
  O14      1.0000 0.77280  0.46240  0.33450  Biso   1.000  O
  O15      1.0000 0.08370  0.25510  0.48280  Biso   1.000  O
  O16      1.0000 0.23160  0.29210  0.67510  Biso   1.000  O
  N1       1.0000 0.51420  0.61120  0.02780  Biso   1.000  N
  N2       1.0000 0.98560  0.36110  0.47130  Biso   1.000  N
  C1       1.0000 0.47940  0.66380  0.15650  Biso   1.000  C
  C2       1.0000 0.46950  0.66300  0.03470  Biso   1.000  C
  C3       1.0000 0.41670  0.71300  0.93540  Biso   1.000  C
  H17      1.0000 0.38390  0.74750  0.94040  Biso   1.000  H
  C4       1.0000 0.41450  0.70960  0.82940  Biso   1.000  C
  H18      1.0000 0.38090  0.74250  0.76250  Biso   1.000  H
  C5       1.0000 0.46280  0.65690  0.82390  Biso   1.000  C
  H19      1.0000 0.46380  0.65440  0.75510  Biso   1.000  H
  C6       1.0000 0.50960  0.60780  0.92350  Biso   1.000  C
  C7       1.0000 0.55960  0.54680  0.92160  Biso   1.000  C
  C8       1.0000 0.82320  0.41400  0.34370  Biso   1.000  C
  C9       1.0000 0.93480  0.41290  0.46560  Biso   1.000  C
  C10      1.0000 0.98120  0.46310  0.56390  Biso   1.000  C
  H20      1.0000 0.94320  0.49760  0.55860  Biso   1.000  H
  C11      1.0000 0.08470  0.46060  0.66940  Biso   1.000  C
  H21      1.0000 0.11780  0.49400  0.73510  Biso   1.000  H
  C12      1.0000 0.13900  0.40700  0.67580  Biso   1.000  C
  H22      1.0000 0.20880  0.40430  0.74530  Biso   1.000  H
  C13      1.0000 0.08630  0.35790  0.57600  Biso   1.000  C
  C14      1.0000 0.13780  0.29680  0.57800  Biso   1.000  C
  La3      1.0000 0.39195  0.76696  0.28394  Biso   1.000  La
  La4      1.0000 0.10805  0.01695  0.21615  Biso   1.000  La
  O17      1.0000 0.22420  0.05170  0.47210  Biso   1.000  O
  H23      1.0000 0.23290  0.09300  0.46630  Biso   1.000  H
  H24      1.0000 0.25500  0.04120  0.55260  Biso   1.000  H
  O18      1.0000 0.08400  0.88880  0.14430  Biso   1.000  O
  H25      1.0000 0.05780  0.88610  0.18030  Biso   1.000  H
  H26      1.0000 0.11030  0.85000  0.14690  Biso   1.000  H
  O19      1.0000 0.23220  0.10960  0.26690  Biso   1.000  O
  H27      1.0000 0.22360  0.13900  0.21620  Biso   1.000  H
  H28      1.0000 0.28750  0.11300  0.34470  Biso   1.000  H
  O20      1.0000 0.91710  0.99180  0.03200  Biso   1.000  O
  H29      1.0000 0.87270  0.01200  0.96060  Biso   1.000  H
  H30      1.0000 0.89520  0.95410  0.03200  Biso   1.000  H
  O21      1.0000 0.46510  0.85860  0.23320  Biso   1.000  O
  H31      1.0000 0.46960  0.89730  0.26080  Biso   1.000  H
  H32      1.0000 0.44350  0.86010  0.15500  Biso   1.000  H
  O22      1.0000 0.25150  0.80210  0.02700  Biso   1.000  O
  H33      1.0000 0.26620  0.83210  0.99760  Biso   1.000  H
  H34      1.0000 0.21330  0.77330  0.96730  Biso   1.000  H
  O23      1.0000 0.43890  0.63880  0.35430  Biso   1.000  O
  H35      1.0000 0.39440  0.61870  0.28100  Biso   1.000  H
  H36      1.0000 0.46260  0.61150  0.41830  Biso   1.000  H
  O24      1.0000 0.38490  0.74150  0.46810  Biso   1.000  O
  H37      1.0000 0.42580  0.75560  0.54750  Biso   1.000  H
  H38      1.0000 0.36480  0.70310  0.46550  Biso   1.000  H
  O25      1.0000 0.93880  0.21250  0.16530  Biso   1.000  O
  O26      1.0000 0.02760  0.11620  0.24000  Biso   1.000  O
  O27      1.0000 0.05620  0.04250  0.82500  Biso   1.000  O
  O28      1.0000 0.10040  0.00535  0.01740  Biso   1.000  O
  O29      1.0000 0.28850  0.86660  0.26030  Biso   1.000  O
  O30      1.0000 0.27280  0.96240  0.33450  Biso   1.000  O
  O31      1.0000 0.58370  0.75510  0.48280  Biso   1.000  O
  O32      1.0000 0.73160  0.79210  0.67510  Biso   1.000  O
  N3       1.0000 0.01420  0.11120  0.02780  Biso   1.000  N
  N4       1.0000 0.48560  0.86110  0.47130  Biso   1.000  N
  C15      1.0000 0.97940  0.16380  0.15650  Biso   1.000  C
  C16      1.0000 0.96950  0.16300  0.03470  Biso   1.000  C
  C17      1.0000 0.91670  0.21300  0.93540  Biso   1.000  C
  H39      1.0000 0.88390  0.24750  0.94040  Biso   1.000  H
  C18      1.0000 0.91450  0.20960  0.82940  Biso   1.000  C
  H40      1.0000 0.88090  0.24250  0.76250  Biso   1.000  H
  C19      1.0000 0.96280  0.15690  0.82390  Biso   1.000  C
  H41      1.0000 0.96380  0.15440  0.75510  Biso   1.000  H
  C20      1.0000 0.00960  0.10780  0.92350  Biso   1.000  C
  C21      1.0000 0.05960  0.04680  0.92160  Biso   1.000  C
  C22      1.0000 0.32320  0.91400  0.34370  Biso   1.000  C
  C23      1.0000 0.43480  0.91290  0.46560  Biso   1.000  C
  C24      1.0000 0.48120  0.96310  0.56390  Biso   1.000  C
  H42      1.0000 0.44320  0.99760  0.55860  Biso   1.000  H
  C25      1.0000 0.58470  0.96060  0.66940  Biso   1.000  C
  H43      1.0000 0.61780  0.99400  0.73510  Biso   1.000  H
  C26      1.0000 0.63900  0.90700  0.67580  Biso   1.000  C
  H44      1.0000 0.70880  0.90430  0.74530  Biso   1.000  H
  C27      1.0000 0.58630  0.85790  0.57600  Biso   1.000  C
  C28      1.0000 0.63780  0.79680  0.57800  Biso   1.000  C
  La5      1.0000 0.89195  0.73304  0.78394  Biso   1.000  La
  La6      1.0000 0.60805  0.48305  0.71615  Biso   1.000  La
  O33      1.0000 0.72420  0.44830  0.97210  Biso   1.000  O
  H45      1.0000 0.73290  0.40700  0.96630  Biso   1.000  H
  H46      1.0000 0.75500  0.45880  0.05260  Biso   1.000  H
  O34      1.0000 0.58400  0.61120  0.64430  Biso   1.000  O
  H47      1.0000 0.55780  0.61390  0.68030  Biso   1.000  H
  H48      1.0000 0.61030  0.65000  0.64690  Biso   1.000  H
  O35      1.0000 0.73220  0.39040  0.76690  Biso   1.000  O
  H49      1.0000 0.72360  0.36100  0.71620  Biso   1.000  H
  H50      1.0000 0.78750  0.38700  0.84470  Biso   1.000  H
  O36      1.0000 0.41710  0.50820  0.53200  Biso   1.000  O
  H51      1.0000 0.37270  0.48800  0.46060  Biso   1.000  H
  H52      1.0000 0.39520  0.54590  0.53200  Biso   1.000  H
  O37      1.0000 0.96510  0.64140  0.73320  Biso   1.000  O
  H53      1.0000 0.96960  0.60270  0.76080  Biso   1.000  H
  H54      1.0000 0.94350  0.63990  0.65500  Biso   1.000  H
  O38      1.0000 0.75150  0.69790  0.52700  Biso   1.000  O
  H55      1.0000 0.76620  0.66790  0.49760  Biso   1.000  H
  H56      1.0000 0.71330  0.72670  0.46730  Biso   1.000  H
  O39      1.0000 0.93890  0.86120  0.85430  Biso   1.000  O
  H57      1.0000 0.89440  0.88130  0.78100  Biso   1.000  H
  H58      1.0000 0.96260  0.88850  0.91830  Biso   1.000  H
  O40      1.0000 0.88490  0.75850  0.96810  Biso   1.000  O
  H59      1.0000 0.92580  0.74440  0.04750  Biso   1.000  H
  H60      1.0000 0.86480  0.79690  0.96550  Biso   1.000  H
  O41      1.0000 0.43880  0.28750  0.66530  Biso   1.000  O
  O42      1.0000 0.52760  0.38380  0.74000  Biso   1.000  O
  O43      1.0000 0.55620  0.45750  0.32500  Biso   1.000  O
  O44      1.0000 0.60040  0.49465  0.51740  Biso   1.000  O
  O45      1.0000 0.78850  0.63340  0.76030  Biso   1.000  O
  O46      1.0000 0.77280  0.53760  0.83450  Biso   1.000  O
  O47      1.0000 0.08370  0.74490  0.98280  Biso   1.000  O
  O48      1.0000 0.23160  0.70790  0.17510  Biso   1.000  O
  N5       1.0000 0.51420  0.38880  0.52780  Biso   1.000  N
  N6       1.0000 0.98560  0.63890  0.97130  Biso   1.000  N
  C29      1.0000 0.47940  0.33620  0.65650  Biso   1.000  C
  C30      1.0000 0.46950  0.33700  0.53470  Biso   1.000  C
  C31      1.0000 0.41670  0.28700  0.43540  Biso   1.000  C
  H61      1.0000 0.38390  0.25250  0.44040  Biso   1.000  H
  C32      1.0000 0.41450  0.29040  0.32940  Biso   1.000  C
  H62      1.0000 0.38090  0.25750  0.26250  Biso   1.000  H
  C33      1.0000 0.46280  0.34310  0.32390  Biso   1.000  C
  H63      1.0000 0.46380  0.34560  0.25510  Biso   1.000  H
  C34      1.0000 0.50960  0.39220  0.42350  Biso   1.000  C
  C35      1.0000 0.55960  0.45320  0.42160  Biso   1.000  C
  C36      1.0000 0.82320  0.58600  0.84370  Biso   1.000  C
  C37      1.0000 0.93480  0.58710  0.96560  Biso   1.000  C
  C38      1.0000 0.98120  0.53690  0.06390  Biso   1.000  C
  H64      1.0000 0.94320  0.50240  0.05860  Biso   1.000  H
  C39      1.0000 0.08470  0.53940  0.16940  Biso   1.000  C
  H65      1.0000 0.11780  0.50600  0.23510  Biso   1.000  H
  C40      1.0000 0.13900  0.59300  0.17580  Biso   1.000  C
  H66      1.0000 0.20880  0.59570  0.24530  Biso   1.000  H
  C41      1.0000 0.08630  0.64210  0.07600  Biso   1.000  C
  C42      1.0000 0.13780  0.70320  0.07800  Biso   1.000  C
  La7      1.0000 0.39195  0.23304  0.78394  Biso   1.000  La
  La8      1.0000 0.10805  0.98305  0.71615  Biso   1.000  La
  O49      1.0000 0.22420  0.94830  0.97210  Biso   1.000  O
  H67      1.0000 0.23290  0.90700  0.96630  Biso   1.000  H
  H68      1.0000 0.25500  0.95880  0.05260  Biso   1.000  H
  O50      1.0000 0.08400  0.11120  0.64430  Biso   1.000  O
  H69      1.0000 0.05780  0.11390  0.68030  Biso   1.000  H
  H70      1.0000 0.11030  0.15000  0.64690  Biso   1.000  H
  O51      1.0000 0.23220  0.89040  0.76690  Biso   1.000  O
  H71      1.0000 0.22360  0.86100  0.71620  Biso   1.000  H
  H72      1.0000 0.28750  0.88700  0.84470  Biso   1.000  H
  O52      1.0000 0.91710  0.00820  0.53200  Biso   1.000  O
  H73      1.0000 0.87270  0.98800  0.46060  Biso   1.000  H
  H74      1.0000 0.89520  0.04590  0.53200  Biso   1.000  H
  O53      1.0000 0.46510  0.14140  0.73320  Biso   1.000  O
  H75      1.0000 0.46960  0.10270  0.76080  Biso   1.000  H
  H76      1.0000 0.44350  0.13990  0.65500  Biso   1.000  H
  O54      1.0000 0.25150  0.19790  0.52700  Biso   1.000  O
  H77      1.0000 0.26620  0.16790  0.49760  Biso   1.000  H
  H78      1.0000 0.21330  0.22670  0.46730  Biso   1.000  H
  O55      1.0000 0.43890  0.36120  0.85430  Biso   1.000  O
  H79      1.0000 0.39440  0.38130  0.78100  Biso   1.000  H
  H80      1.0000 0.46260  0.38850  0.91830  Biso   1.000  H
  O56      1.0000 0.38490  0.25850  0.96810  Biso   1.000  O
  H81      1.0000 0.42580  0.24440  0.04750  Biso   1.000  H
  H82      1.0000 0.36480  0.29690  0.96550  Biso   1.000  H
  O57      1.0000 0.93880  0.78750  0.66530  Biso   1.000  O
  O58      1.0000 0.02760  0.88380  0.74000  Biso   1.000  O
  O59      1.0000 0.05620  0.95750  0.32500  Biso   1.000  O
  O60      1.0000 0.10040  0.99465  0.51740  Biso   1.000  O
  O61      1.0000 0.28850  0.13340  0.76030  Biso   1.000  O
  O62      1.0000 0.27280  0.03760  0.83450  Biso   1.000  O
  O63      1.0000 0.58370  0.24490  0.98280  Biso   1.000  O
  O64      1.0000 0.73160  0.20790  0.17510  Biso   1.000  O
  N7       1.0000 0.01420  0.88880  0.52780  Biso   1.000  N
  N8       1.0000 0.48560  0.13890  0.97130  Biso   1.000  N
  C43      1.0000 0.97940  0.83620  0.65650  Biso   1.000  C
  C44      1.0000 0.96950  0.83700  0.53470  Biso   1.000  C
  C45      1.0000 0.91670  0.78700  0.43540  Biso   1.000  C
  H83      1.0000 0.88390  0.75250  0.44040  Biso   1.000  H
  C46      1.0000 0.91450  0.79040  0.32940  Biso   1.000  C
  H84      1.0000 0.88090  0.75750  0.26250  Biso   1.000  H
  C47      1.0000 0.96280  0.84310  0.32390  Biso   1.000  C
  H85      1.0000 0.96380  0.84560  0.25510  Biso   1.000  H
  C48      1.0000 0.00960  0.89220  0.42350  Biso   1.000  C
  C49      1.0000 0.05960  0.95320  0.42160  Biso   1.000  C
  C50      1.0000 0.32320  0.08600  0.84370  Biso   1.000  C
  C51      1.0000 0.43480  0.08710  0.96560  Biso   1.000  C
  C52      1.0000 0.48120  0.03690  0.06390  Biso   1.000  C
  H86      1.0000 0.44320  0.00240  0.05860  Biso   1.000  H
  C53      1.0000 0.58470  0.03940  0.16940  Biso   1.000  C
  H87      1.0000 0.61780  0.00600  0.23510  Biso   1.000  H
  C54      1.0000 0.63900  0.09300  0.17580  Biso   1.000  C
  H88      1.0000 0.70880  0.09570  0.24530  Biso   1.000  H
  C55      1.0000 0.58630  0.14210  0.07600  Biso   1.000  C
  C56      1.0000 0.63780  0.20320  0.07800  Biso   1.000  C
