data_image0
_cell_length_a       17.629
_cell_length_b       19.797
_cell_length_c       13.2566
_cell_angle_alpha    90
_cell_angle_beta     131.7
_cell_angle_gamma    90

_symmetry_space_group_name_H-M    "P 1"
_symmetry_int_tables_number       1

loop_
  _symmetry_equiv_pos_as_xyz
  'x, y, z'

loop_
  _atom_site_label
  _atom_site_occupancy
  _atom_site_fract_x
  _atom_site_fract_y
  _atom_site_fract_z
  _atom_site_thermal_displace_type
  _atom_site_B_iso_or_equiv
  _atom_site_type_symbol
  Ce1      1.0000 0.39237  0.01738  0.28468  Biso   1.000  Ce
  Ce2      1.0000 0.10752  0.76738  0.21520  Biso   1.000  Ce
  O1       1.0000 0.47184  0.11577  0.25930  Biso   1.000  O
  O2       1.0000 0.56070  0.21254  0.33240  Biso   1.000  O
  O3       1.0000 0.39790  0.00464  0.48080  Biso   1.000  O
  O4       1.0000 0.44270  0.04140  0.67450  Biso   1.000  O
  O5       1.0000 0.21291  0.86543  0.24100  Biso   1.000  O
  O6       1.0000 0.22850  0.96230  0.16740  Biso   1.000  O
  O7       1.0000 0.91712  0.75488  0.01870  Biso   1.000  O
  O8       1.0000 0.76789  0.79146  0.82510  Biso   1.000  O
  N1       1.0000 0.48530  0.11131  0.47120  Biso   1.000  N
  N2       1.0000 0.01390  0.86069  0.02820  Biso   1.000  N
  C1       1.0000 0.53060  0.16279  0.46490  Biso   1.000  C
  C2       1.0000 0.58310  0.21266  0.56380  Biso   1.000  C
  H1       1.0000 0.61640  0.24710  0.55900  Biso   1.000  H
  C3       1.0000 0.58480  0.20990  0.66970  Biso   1.000  C
  H2       1.0000 0.61790  0.24320  0.73600  Biso   1.000  H
  C4       1.0000 0.53620  0.15661  0.67550  Biso   1.000  C
  H3       1.0000 0.53550  0.15390  0.74490  Biso   1.000  H
  C5       1.0000 0.48910  0.10782  0.57570  Biso   1.000  C
  C6       1.0000 0.51990  0.16391  0.34180  Biso   1.000  C
  C7       1.0000 0.43930  0.04646  0.57730  Biso   1.000  C
  C8       1.0000 0.06610  0.91237  0.03520  Biso   1.000  C
  C9       1.0000 0.01940  0.96290  0.93610  Biso   1.000  C
  H4       1.0000 0.05740  0.99770  0.94120  Biso   1.000  H
  C10      1.0000 0.91550  0.95960  0.83050  Biso   1.000  C
  H5       1.0000 0.88230  0.99270  0.76380  Biso   1.000  H
  C11      1.0000 0.86110  0.90679  0.82450  Biso   1.000  C
  H6       1.0000 0.79090  0.90430  0.75530  Biso   1.000  H
  C12      1.0000 0.91370  0.85776  0.92390  Biso   1.000  C
  C13      1.0000 0.17850  0.91354  0.15780  Biso   1.000  C
  C14      1.0000 0.86240  0.79608  0.92280  Biso   1.000  C
  O9       1.0000 0.26830  0.10846  0.23510  Biso   1.000  O
  H7       1.0000 0.27230  0.11950  0.29860  Biso   1.000  H
  H8       1.0000 0.21000  0.11350  0.16080  Biso   1.000  H
  O10      1.0000 0.27520  0.05305  0.02990  Biso   1.000  O
  H9       1.0000 0.22540  0.03870  0.01710  Biso   1.000  H
  H10      1.0000 0.28120  0.03500  0.97930  Biso   1.000  H
  O11      1.0000 0.41730  0.88951  0.35440  Biso   1.000  O
  H11      1.0000 0.38620  0.85910  0.35660  Biso   1.000  H
  H12      1.0000 0.47730  0.89180  0.42640  Biso   1.000  H
  O12      1.0000 0.58250  0.99273  0.46600  Biso   1.000  O
  H13      1.0000 0.63300  0.01370  0.53150  Biso   1.000  H
  H14      1.0000 0.59900  0.95380  0.46310  Biso   1.000  H
  O13      1.0000 0.24460  0.80273  0.47000  Biso   1.000  O
  H15      1.0000 0.30220  0.79670  0.49730  Biso   1.000  H
  H16      1.0000 0.24680  0.81330  0.53240  Biso   1.000  H
  O14      1.0000 0.03370  0.85875  0.26540  Biso   1.000  O
  H17      1.0000 0.97630  0.87010  0.19530  Biso   1.000  H
  H18      1.0000 0.03870  0.85890  0.33180  Biso   1.000  H
  O15      1.0000 0.06240  0.63946  0.14510  Biso   1.000  O
  H19      1.0000 0.07970  0.60090  0.14250  Biso   1.000  H
  H20      1.0000 0.04170  0.63890  0.18630  Biso   1.000  H
  O16      1.0000 0.11540  0.74248  0.03270  Biso   1.000  O
  H21      1.0000 0.08230  0.76600  0.95760  Biso   1.000  H
  H22      1.0000 0.14910  0.70760  0.05270  Biso   1.000  H
  Ce3      1.0000 0.89237  0.51738  0.28468  Biso   1.000  Ce
  Ce4      1.0000 0.60752  0.26738  0.21520  Biso   1.000  Ce
  O17      1.0000 0.97184  0.61577  0.25930  Biso   1.000  O
  O18      1.0000 0.06070  0.71254  0.33240  Biso   1.000  O
  O19      1.0000 0.89790  0.50464  0.48080  Biso   1.000  O
  O20      1.0000 0.94270  0.54140  0.67450  Biso   1.000  O
  O21      1.0000 0.71291  0.36543  0.24100  Biso   1.000  O
  O22      1.0000 0.72850  0.46230  0.16740  Biso   1.000  O
  O23      1.0000 0.41712  0.25488  0.01870  Biso   1.000  O
  O24      1.0000 0.26789  0.29146  0.82510  Biso   1.000  O
  N3       1.0000 0.98530  0.61131  0.47120  Biso   1.000  N
  N4       1.0000 0.51390  0.36069  0.02820  Biso   1.000  N
  C15      1.0000 0.03060  0.66279  0.46490  Biso   1.000  C
  C16      1.0000 0.08310  0.71266  0.56380  Biso   1.000  C
  H23      1.0000 0.11640  0.74710  0.55900  Biso   1.000  H
  C17      1.0000 0.08480  0.70990  0.66970  Biso   1.000  C
  H24      1.0000 0.11790  0.74320  0.73600  Biso   1.000  H
  C18      1.0000 0.03620  0.65661  0.67550  Biso   1.000  C
  H25      1.0000 0.03550  0.65390  0.74490  Biso   1.000  H
  C19      1.0000 0.98910  0.60782  0.57570  Biso   1.000  C
  C20      1.0000 0.01990  0.66391  0.34180  Biso   1.000  C
  C21      1.0000 0.93930  0.54646  0.57730  Biso   1.000  C
  C22      1.0000 0.56610  0.41237  0.03520  Biso   1.000  C
  C23      1.0000 0.51940  0.46290  0.93610  Biso   1.000  C
  H26      1.0000 0.55740  0.49770  0.94120  Biso   1.000  H
  C24      1.0000 0.41550  0.45960  0.83050  Biso   1.000  C
  H27      1.0000 0.38230  0.49270  0.76380  Biso   1.000  H
  C25      1.0000 0.36110  0.40679  0.82450  Biso   1.000  C
  H28      1.0000 0.29090  0.40430  0.75530  Biso   1.000  H
  C26      1.0000 0.41370  0.35776  0.92390  Biso   1.000  C
  C27      1.0000 0.67850  0.41354  0.15780  Biso   1.000  C
  C28      1.0000 0.36240  0.29608  0.92280  Biso   1.000  C
  O25      1.0000 0.76830  0.60846  0.23510  Biso   1.000  O
  H29      1.0000 0.77230  0.61950  0.29860  Biso   1.000  H
  H30      1.0000 0.71000  0.61350  0.16080  Biso   1.000  H
  O26      1.0000 0.77520  0.55305  0.02990  Biso   1.000  O
  H31      1.0000 0.72540  0.53870  0.01710  Biso   1.000  H
  H32      1.0000 0.78120  0.53500  0.97930  Biso   1.000  H
  O27      1.0000 0.91730  0.38951  0.35440  Biso   1.000  O
  H33      1.0000 0.88620  0.35910  0.35660  Biso   1.000  H
  H34      1.0000 0.97730  0.39180  0.42640  Biso   1.000  H
  O28      1.0000 0.08250  0.49273  0.46600  Biso   1.000  O
  H35      1.0000 0.13300  0.51370  0.53150  Biso   1.000  H
  H36      1.0000 0.09900  0.45380  0.46310  Biso   1.000  H
  O29      1.0000 0.74460  0.30273  0.47000  Biso   1.000  O
  H37      1.0000 0.80220  0.29670  0.49730  Biso   1.000  H
  H38      1.0000 0.74680  0.31330  0.53240  Biso   1.000  H
  O30      1.0000 0.53370  0.35875  0.26540  Biso   1.000  O
  H39      1.0000 0.47630  0.37010  0.19530  Biso   1.000  H
  H40      1.0000 0.53870  0.35890  0.33180  Biso   1.000  H
  O31      1.0000 0.56240  0.13946  0.14510  Biso   1.000  O
  H41      1.0000 0.57970  0.10090  0.14250  Biso   1.000  H
  H42      1.0000 0.54170  0.13890  0.18630  Biso   1.000  H
  O32      1.0000 0.61540  0.24248  0.03270  Biso   1.000  O
  H43      1.0000 0.58230  0.26600  0.95760  Biso   1.000  H
  H44      1.0000 0.64910  0.20760  0.05270  Biso   1.000  H
  Ce5      1.0000 0.39237  0.98262  0.78468  Biso   1.000  Ce
  Ce6      1.0000 0.10752  0.23262  0.71520  Biso   1.000  Ce
  O33      1.0000 0.47184  0.88423  0.75930  Biso   1.000  O
  O34      1.0000 0.56070  0.78746  0.83240  Biso   1.000  O
  O35      1.0000 0.39790  0.99536  0.98080  Biso   1.000  O
  O36      1.0000 0.44270  0.95860  0.17450  Biso   1.000  O
  O37      1.0000 0.21291  0.13457  0.74100  Biso   1.000  O
  O38      1.0000 0.22850  0.03770  0.66740  Biso   1.000  O
  O39      1.0000 0.91712  0.24512  0.51870  Biso   1.000  O
  O40      1.0000 0.76789  0.20854  0.32510  Biso   1.000  O
  N5       1.0000 0.48530  0.88869  0.97120  Biso   1.000  N
  N6       1.0000 0.01390  0.13931  0.52820  Biso   1.000  N
  C29      1.0000 0.53060  0.83721  0.96490  Biso   1.000  C
  C30      1.0000 0.58310  0.78734  0.06380  Biso   1.000  C
  H45      1.0000 0.61640  0.75290  0.05900  Biso   1.000  H
  C31      1.0000 0.58480  0.79010  0.16970  Biso   1.000  C
  H46      1.0000 0.61790  0.75680  0.23600  Biso   1.000  H
  C32      1.0000 0.53620  0.84339  0.17550  Biso   1.000  C
  H47      1.0000 0.53550  0.84610  0.24490  Biso   1.000  H
  C33      1.0000 0.48910  0.89218  0.07570  Biso   1.000  C
  C34      1.0000 0.51990  0.83609  0.84180  Biso   1.000  C
  C35      1.0000 0.43930  0.95354  0.07730  Biso   1.000  C
  C36      1.0000 0.06610  0.08763  0.53520  Biso   1.000  C
  C37      1.0000 0.01940  0.03710  0.43610  Biso   1.000  C
  H48      1.0000 0.05740  0.00230  0.44120  Biso   1.000  H
  C38      1.0000 0.91550  0.04040  0.33050  Biso   1.000  C
  H49      1.0000 0.88230  0.00730  0.26380  Biso   1.000  H
  C39      1.0000 0.86110  0.09321  0.32450  Biso   1.000  C
  H50      1.0000 0.79090  0.09570  0.25530  Biso   1.000  H
  C40      1.0000 0.91370  0.14224  0.42390  Biso   1.000  C
  C41      1.0000 0.17850  0.08646  0.65780  Biso   1.000  C
  C42      1.0000 0.86240  0.20392  0.42280  Biso   1.000  C
  O41      1.0000 0.26830  0.89154  0.73510  Biso   1.000  O
  H51      1.0000 0.27230  0.88050  0.79860  Biso   1.000  H
  H52      1.0000 0.21000  0.88650  0.66080  Biso   1.000  H
  O42      1.0000 0.27520  0.94695  0.52990  Biso   1.000  O
  H53      1.0000 0.22540  0.96130  0.51710  Biso   1.000  H
  H54      1.0000 0.28120  0.96500  0.47930  Biso   1.000  H
  O43      1.0000 0.41730  0.11049  0.85440  Biso   1.000  O
  H55      1.0000 0.38620  0.14090  0.85660  Biso   1.000  H
  H56      1.0000 0.47730  0.10820  0.92640  Biso   1.000  H
  O44      1.0000 0.58250  0.00727  0.96600  Biso   1.000  O
  H57      1.0000 0.63300  0.98630  0.03150  Biso   1.000  H
  H58      1.0000 0.59900  0.04620  0.96310  Biso   1.000  H
  O45      1.0000 0.24460  0.19727  0.97000  Biso   1.000  O
  H59      1.0000 0.30220  0.20330  0.99730  Biso   1.000  H
  H60      1.0000 0.24680  0.18670  0.03240  Biso   1.000  H
  O46      1.0000 0.03370  0.14125  0.76540  Biso   1.000  O
  H61      1.0000 0.97630  0.12990  0.69530  Biso   1.000  H
  H62      1.0000 0.03870  0.14110  0.83180  Biso   1.000  H
  O47      1.0000 0.06240  0.36054  0.64510  Biso   1.000  O
  H63      1.0000 0.07970  0.39910  0.64250  Biso   1.000  H
  H64      1.0000 0.04170  0.36110  0.68630  Biso   1.000  H
  O48      1.0000 0.11540  0.25752  0.53270  Biso   1.000  O
  H65      1.0000 0.08230  0.23400  0.45760  Biso   1.000  H
  H66      1.0000 0.14910  0.29240  0.55270  Biso   1.000  H
  Ce7      1.0000 0.89237  0.48262  0.78468  Biso   1.000  Ce
  Ce8      1.0000 0.60752  0.73262  0.71520  Biso   1.000  Ce
  O49      1.0000 0.97184  0.38423  0.75930  Biso   1.000  O
  O50      1.0000 0.06070  0.28746  0.83240  Biso   1.000  O
  O51      1.0000 0.89790  0.49536  0.98080  Biso   1.000  O
  O52      1.0000 0.94270  0.45860  0.17450  Biso   1.000  O
  O53      1.0000 0.71291  0.63457  0.74100  Biso   1.000  O
  O54      1.0000 0.72850  0.53770  0.66740  Biso   1.000  O
  O55      1.0000 0.41712  0.74512  0.51870  Biso   1.000  O
  O56      1.0000 0.26789  0.70854  0.32510  Biso   1.000  O
  N7       1.0000 0.98530  0.38869  0.97120  Biso   1.000  N
  N8       1.0000 0.51390  0.63931  0.52820  Biso   1.000  N
  C43      1.0000 0.03060  0.33721  0.96490  Biso   1.000  C
  C44      1.0000 0.08310  0.28734  0.06380  Biso   1.000  C
  H67      1.0000 0.11640  0.25290  0.05900  Biso   1.000  H
  C45      1.0000 0.08480  0.29010  0.16970  Biso   1.000  C
  H68      1.0000 0.11790  0.25680  0.23600  Biso   1.000  H
  C46      1.0000 0.03620  0.34339  0.17550  Biso   1.000  C
  H69      1.0000 0.03550  0.34610  0.24490  Biso   1.000  H
  C47      1.0000 0.98910  0.39218  0.07570  Biso   1.000  C
  C48      1.0000 0.01990  0.33609  0.84180  Biso   1.000  C
  C49      1.0000 0.93930  0.45354  0.07730  Biso   1.000  C
  C50      1.0000 0.56610  0.58763  0.53520  Biso   1.000  C
  C51      1.0000 0.51940  0.53710  0.43610  Biso   1.000  C
  H70      1.0000 0.55740  0.50230  0.44120  Biso   1.000  H
  C52      1.0000 0.41550  0.54040  0.33050  Biso   1.000  C
  H71      1.0000 0.38230  0.50730  0.26380  Biso   1.000  H
  C53      1.0000 0.36110  0.59321  0.32450  Biso   1.000  C
  H72      1.0000 0.29090  0.59570  0.25530  Biso   1.000  H
  C54      1.0000 0.41370  0.64224  0.42390  Biso   1.000  C
  C55      1.0000 0.67850  0.58646  0.65780  Biso   1.000  C
  C56      1.0000 0.36240  0.70392  0.42280  Biso   1.000  C
  O57      1.0000 0.76830  0.39154  0.73510  Biso   1.000  O
  H73      1.0000 0.77230  0.38050  0.79860  Biso   1.000  H
  H74      1.0000 0.71000  0.38650  0.66080  Biso   1.000  H
  O58      1.0000 0.77520  0.44695  0.52990  Biso   1.000  O
  H75      1.0000 0.72540  0.46130  0.51710  Biso   1.000  H
  H76      1.0000 0.78120  0.46500  0.47930  Biso   1.000  H
  O59      1.0000 0.91730  0.61049  0.85440  Biso   1.000  O
  H77      1.0000 0.88620  0.64090  0.85660  Biso   1.000  H
  H78      1.0000 0.97730  0.60820  0.92640  Biso   1.000  H
  O60      1.0000 0.08250  0.50727  0.96600  Biso   1.000  O
  H79      1.0000 0.13300  0.48630  0.03150  Biso   1.000  H
  H80      1.0000 0.09900  0.54620  0.96310  Biso   1.000  H
  O61      1.0000 0.74460  0.69727  0.97000  Biso   1.000  O
  H81      1.0000 0.80220  0.70330  0.99730  Biso   1.000  H
  H82      1.0000 0.74680  0.68670  0.03240  Biso   1.000  H
  O62      1.0000 0.53370  0.64125  0.76540  Biso   1.000  O
  H83      1.0000 0.47630  0.62990  0.69530  Biso   1.000  H
  H84      1.0000 0.53870  0.64110  0.83180  Biso   1.000  H
  O63      1.0000 0.56240  0.86054  0.64510  Biso   1.000  O
  H85      1.0000 0.57970  0.89910  0.64250  Biso   1.000  H
  H86      1.0000 0.54170  0.86110  0.68630  Biso   1.000  H
  O64      1.0000 0.61540  0.75752  0.53270  Biso   1.000  O
  H87      1.0000 0.58230  0.73400  0.45760  Biso   1.000  H
  H88      1.0000 0.64910  0.79240  0.55270  Biso   1.000  H
