data_image0
_cell_length_a       7.2973
_cell_length_b       7.948
_cell_length_c       13.8224
_cell_angle_alpha    90
_cell_angle_beta     90
_cell_angle_gamma    90

_symmetry_space_group_name_H-M    "P 1"
_symmetry_int_tables_number       1

loop_
  _symmetry_equiv_pos_as_xyz
  'x, y, z'

loop_
  _atom_site_label
  _atom_site_occupancy
  _atom_site_fract_x
  _atom_site_fract_y
  _atom_site_fract_z
  _atom_site_thermal_displace_type
  _atom_site_B_iso_or_equiv
  _atom_site_type_symbol
  Zn1      1.0000 0.75924  0.71943  0.66453  Biso   1.000  Zn
  O1       1.0000 0.58650  0.92540  0.66291  Biso   1.000  O
  O2       1.0000 0.90375  0.80618  0.78854  Biso   1.000  O
  O3       1.0000 0.60870  0.60502  0.77203  Biso   1.000  O
  O4       1.0000 0.61923  0.61081  0.54686  Biso   1.000  O
  O5       1.0000 0.91920  0.86982  0.57341  Biso   1.000  O
  O6       1.0000 0.92287  0.50424  0.64373  Biso   1.000  O
  C1       1.0000 0.50866  0.69260  0.49474  Biso   1.000  C
  H1       1.0000 0.49250  0.80890  0.50820  Biso   1.000  H
  C2       1.0000 0.50097  0.98458  0.73352  Biso   1.000  C
  H2       1.0000 0.52050  0.93500  0.79520  Biso   1.000  H
  C3       1.0000 0.99169  0.94291  0.78645  Biso   1.000  C
  H3       1.0000 0.99290  0.00370  0.72730  Biso   1.000  H
  Zn2      1.0000 0.74076  0.28057  0.16453  Biso   1.000  Zn
  O7       1.0000 0.91350  0.07460  0.16291  Biso   1.000  O
  O8       1.0000 0.59625  0.19382  0.28854  Biso   1.000  O
  O9       1.0000 0.89130  0.39498  0.27203  Biso   1.000  O
  O10      1.0000 0.88077  0.38919  0.04686  Biso   1.000  O
  O11      1.0000 0.58080  0.13018  0.07341  Biso   1.000  O
  O12      1.0000 0.57713  0.49576  0.14373  Biso   1.000  O
  C4       1.0000 0.99134  0.30740  0.99474  Biso   1.000  C
  H4       1.0000 0.00750  0.19110  0.00820  Biso   1.000  H
  C5       1.0000 0.99903  0.01542  0.23352  Biso   1.000  C
  H5       1.0000 0.97950  0.06500  0.29520  Biso   1.000  H
  C6       1.0000 0.50831  0.05709  0.28645  Biso   1.000  C
  H6       1.0000 0.50710  0.99630  0.22730  Biso   1.000  H
  Zn3      1.0000 0.24076  0.21943  0.83547  Biso   1.000  Zn
  O13      1.0000 0.41350  0.42540  0.83709  Biso   1.000  O
  O14      1.0000 0.09625  0.30618  0.71146  Biso   1.000  O
  O15      1.0000 0.39130  0.10502  0.72797  Biso   1.000  O
  O16      1.0000 0.38077  0.11081  0.95314  Biso   1.000  O
  O17      1.0000 0.08080  0.36982  0.92659  Biso   1.000  O
  O18      1.0000 0.07713  0.00424  0.85627  Biso   1.000  O
  C7       1.0000 0.49134  0.19260  0.00526  Biso   1.000  C
  H7       1.0000 0.50750  0.30890  0.99180  Biso   1.000  H
  C8       1.0000 0.49903  0.48458  0.76648  Biso   1.000  C
  H8       1.0000 0.47950  0.43500  0.70480  Biso   1.000  H
  C9       1.0000 0.00831  0.44291  0.71355  Biso   1.000  C
  H9       1.0000 0.00710  0.50370  0.77270  Biso   1.000  H
  Zn4      1.0000 0.25924  0.78057  0.33547  Biso   1.000  Zn
  O19      1.0000 0.08650  0.57460  0.33709  Biso   1.000  O
  O20      1.0000 0.40375  0.69382  0.21146  Biso   1.000  O
  O21      1.0000 0.10870  0.89498  0.22797  Biso   1.000  O
  O22      1.0000 0.11923  0.88919  0.45314  Biso   1.000  O
  O23      1.0000 0.41920  0.63018  0.42659  Biso   1.000  O
  O24      1.0000 0.42287  0.99576  0.35627  Biso   1.000  O
  C10      1.0000 0.00866  0.80740  0.50526  Biso   1.000  C
  H10      1.0000 0.99250  0.69110  0.49180  Biso   1.000  H
  C11      1.0000 0.00097  0.51542  0.26648  Biso   1.000  C
  H11      1.0000 0.02050  0.56500  0.20480  Biso   1.000  H
  C12      1.0000 0.49169  0.55709  0.21355  Biso   1.000  C
  H12      1.0000 0.49290  0.49630  0.27270  Biso   1.000  H
