data_image0
_cell_length_a       18.67
_cell_length_b       24.31
_cell_length_c       14.01
_cell_angle_alpha    89.258
_cell_angle_beta     135.719
_cell_angle_gamma    90.789

_symmetry_space_group_name_H-M    "P 1"
_symmetry_int_tables_number       1

loop_
  _symmetry_equiv_pos_as_xyz
  'x, y, z'

loop_
  _atom_site_label
  _atom_site_occupancy
  _atom_site_fract_x
  _atom_site_fract_y
  _atom_site_fract_z
  _atom_site_thermal_displace_type
  _atom_site_B_iso_or_equiv
  _atom_site_type_symbol
  C1       1.0000 0.75060  0.37490  0.78810  Biso   1.000  C
  C2       1.0000 0.77040  0.37720  0.63660  Biso   1.000  C
  C3       1.0000 0.94700  0.57310  0.91030  Biso   1.000  C
  C4       1.0000 0.57280  0.57620  0.52760  Biso   1.000  C
  C5       1.0000 0.76000  0.67690  0.72040  Biso   1.000  C
  C6       1.0000 0.76030  0.40740  0.71300  Biso   1.000  C
  C7       1.0000 0.75990  0.47140  0.71480  Biso   1.000  C
  C8       1.0000 0.85820  0.59120  0.51010  Biso   1.000  C
  C9       1.0000 0.85490  0.59080  0.40650  Biso   1.000  C
  C10      1.0000 0.76450  0.57560  0.27340  Biso   1.000  C
  C11      1.0000 0.68030  0.56020  0.24880  Biso   1.000  C
  C12      1.0000 0.68760  0.56010  0.35540  Biso   1.000  C
  C13      1.0000 0.67010  0.59710  0.93150  Biso   1.000  C
  C14      1.0000 0.67470  0.59890  0.03610  Biso   1.000  C
  C15      1.0000 0.75800  0.57450  0.16380  Biso   1.000  C
  C16      1.0000 0.83370  0.54780  0.18180  Biso   1.000  C
  C17      1.0000 0.82500  0.54590  0.07390  Biso   1.000  C
  C18      1.0000 0.75890  0.74080  0.72680  Biso   1.000  C
  C19      1.0000 0.76940  0.77770  0.65720  Biso   1.000  C
  C20      1.0000 0.76760  0.83680  0.66680  Biso   1.000  C
  C21      1.0000 0.75520  0.86030  0.74650  Biso   1.000  C
  C22      1.0000 0.74480  0.82400  0.81510  Biso   1.000  C
  C23      1.0000 0.74660  0.76610  0.80540  Biso   1.000  C
  C24      1.0000 0.75340  0.91940  0.75610  Biso   1.000  C
  C25      1.0000 0.76390  0.95630  0.68650  Biso   1.000  C
  C26      1.0000 0.77610  0.93100  0.60790  Biso   1.000  C
  C27      1.0000 0.77800  0.87310  0.59820  Biso   1.000  C
  C28      1.0000 0.13570  0.12360  0.01260  Biso   1.000  C
  C29      1.0000 0.24300  0.12250  0.13620  Biso   1.000  C
  C30      1.0000 0.27700  0.11990  0.26450  Biso   1.000  C
  C31      1.0000 0.20260  0.11800  0.26650  Biso   1.000  C
  C32      1.0000 0.09710  0.11890  0.14470  Biso   1.000  C
  C33      1.0000 0.38430  0.11900  0.38810  Biso   1.000  C
  C34      1.0000 0.45940  0.12050  0.38590  Biso   1.000  C
  C35      1.0000 0.42280  0.12280  0.25590  Biso   1.000  C
  C36      1.0000 0.31730  0.12390  0.13410  Biso   1.000  C
  C37      1.0000 0.13340  0.58230  0.02560  Biso   1.000  C
  C38      1.0000 0.24070  0.58110  0.14910  Biso   1.000  C
  C39      1.0000 0.27470  0.57490  0.27710  Biso   1.000  C
  C40      1.0000 0.20040  0.57040  0.27880  Biso   1.000  C
  C41      1.0000 0.09490  0.57190  0.15700  Biso   1.000  C
  C42      1.0000 0.38200  0.57340  0.40060  Biso   1.000  C
  C43      1.0000 0.45720  0.57810  0.39880  Biso   1.000  C
  C44      1.0000 0.42050  0.58480  0.26940  Biso   1.000  C
  C45      1.0000 0.31500  0.58610  0.14760  Biso   1.000  C
  C46      1.0000 0.76260  0.01640  0.70460  Biso   1.000  C
  C47      1.0000 0.75100  0.31610  0.78680  Biso   1.000  C
  C48      1.0000 0.77090  0.31840  0.63530  Biso   1.000  C
  C49      1.0000 0.57500  0.11990  0.51470  Biso   1.000  C
  C50      1.0000 0.94930  0.11750  0.89760  Biso   1.000  C
  C51      1.0000 0.76120  0.28590  0.71040  Biso   1.000  C
  C52      1.0000 0.76170  0.22190  0.70890  Biso   1.000  C
  C53      1.0000 0.85550  0.09910  0.49600  Biso   1.000  C
  C54      1.0000 0.85140  0.09750  0.39180  Biso   1.000  C
  C55      1.0000 0.76510  0.11880  0.26140  Biso   1.000  C
  C56      1.0000 0.68610  0.14250  0.24030  Biso   1.000  C
  C57      1.0000 0.69440  0.14440  0.34790  Biso   1.000  C
  C58      1.0000 0.66720  0.09800  0.91760  Biso   1.000  C
  C59      1.0000 0.67090  0.09830  0.02160  Biso   1.000  C
  C60      1.0000 0.75850  0.11770  0.15180  Biso   1.000  C
  C61      1.0000 0.83960  0.13730  0.17310  Biso   1.000  C
  C62      1.0000 0.83170  0.13750  0.06600  Biso   1.000  C
  C63      1.0000 0.05830  0.57770  0.02740  Biso   1.000  C
  C64      1.0000 0.06050  0.12190  0.01470  Biso   1.000  C
  H1       1.0000 0.74210  0.39560  0.85260  Biso   1.000  H
  H2       1.0000 0.77860  0.39980  0.57300  Biso   1.000  H
  H3       1.0000 0.93120  0.60440  0.61750  Biso   1.000  H
  H4       1.0000 0.92550  0.60260  0.43050  Biso   1.000  H
  H5       1.0000 0.60580  0.54790  0.14180  Biso   1.000  H
  H6       1.0000 0.61900  0.54620  0.33450  Biso   1.000  H
  H7       1.0000 0.60320  0.61790  0.82880  Biso   1.000  H
  H8       1.0000 0.61080  0.62010  0.01730  Biso   1.000  H
  H9       1.0000 0.90220  0.52750  0.28430  Biso   1.000  H
  H10      1.0000 0.88610  0.52320  0.08890  Biso   1.000  H
  H11      1.0000 0.77940  0.75920  0.59260  Biso   1.000  H
  H12      1.0000 0.73460  0.84090  0.88080  Biso   1.000  H
  H13      1.0000 0.73800  0.73800  0.86230  Biso   1.000  H
  H14      1.0000 0.74320  0.93630  0.82180  Biso   1.000  H
  H15      1.0000 0.78510  0.95730  0.54910  Biso   1.000  H
  H16      1.0000 0.78800  0.85460  0.53360  Biso   1.000  H
  H17      1.0000 0.10880  0.12590  0.90950  Biso   1.000  H
  H18      1.0000 0.22730  0.11580  0.36820  Biso   1.000  H
  H19      1.0000 0.03840  0.11710  0.14910  Biso   1.000  H
  H20      1.0000 0.40900  0.11700  0.48980  Biso   1.000  H
  H21      1.0000 0.47920  0.12390  0.24730  Biso   1.000  H
  H22      1.0000 0.29070  0.12590  0.03110  Biso   1.000  H
  H23      1.0000 0.10650  0.58700  0.92270  Biso   1.000  H
  H24      1.0000 0.22500  0.56540  0.38010  Biso   1.000  H
  H25      1.0000 0.03610  0.56840  0.16110  Biso   1.000  H
  H26      1.0000 0.40670  0.56820  0.50200  Biso   1.000  H
  H27      1.0000 0.47690  0.58940  0.26120  Biso   1.000  H
  H28      1.0000 0.28830  0.59140  0.04500  Biso   1.000  H
  H29      1.0000 0.74270  0.29350  0.85020  Biso   1.000  H
  H30      1.0000 0.77940  0.29770  0.57090  Biso   1.000  H
  H31      1.0000 0.92480  0.08080  0.60090  Biso   1.000  H
  H32      1.0000 0.91800  0.07900  0.41310  Biso   1.000  H
  H33      1.0000 0.61510  0.16010  0.13560  Biso   1.000  H
  H34      1.0000 0.63050  0.16480  0.33030  Biso   1.000  H
  H35      1.0000 0.59670  0.08150  0.81270  Biso   1.000  H
  H36      1.0000 0.60290  0.08290  0.00020  Biso   1.000  H
  H37      1.0000 0.91170  0.15320  0.27780  Biso   1.000  H
  H38      1.0000 0.89730  0.15480  0.08390  Biso   1.000  H
  N1       1.0000 0.74480  0.57090  0.95200  Biso   1.000  N
  N2       1.0000 0.77490  0.57610  0.48300  Biso   1.000  N
  N3       1.0000 0.74720  0.11740  0.94140  Biso   1.000  N
  N4       1.0000 0.77740  0.12230  0.47240  Biso   1.000  N
  O1       1.0000 0.88590  0.57200  0.92340  Biso   1.000  O
  O2       1.0000 0.60980  0.57350  0.64730  Biso   1.000  O
  O3       1.0000 0.74990  0.64750  0.78700  Biso   1.000  O
  O4       1.0000 0.75000  0.49710  0.78480  Biso   1.000  O
  O5       1.0000 0.63410  0.57740  0.51470  Biso   1.000  O
  O6       1.0000 0.90990  0.57490  0.79030  Biso   1.000  O
  O7       1.0000 0.76960  0.49980  0.64670  Biso   1.000  O
  O8       1.0000 0.77070  0.65210  0.65000  Biso   1.000  O
  O9       1.0000 0.77270  0.04570  0.63780  Biso   1.000  O
  O10      1.0000 0.75180  0.04120  0.77470  Biso   1.000  O
  O11      1.0000 0.61210  0.11830  0.63470  Biso   1.000  O
  O12      1.0000 0.88790  0.11630  0.91040  Biso   1.000  O
  O13      1.0000 0.75210  0.19350  0.77710  Biso   1.000  O
  O14      1.0000 0.91230  0.11990  0.77780  Biso   1.000  O
  O15      1.0000 0.63620  0.12090  0.50160  Biso   1.000  O
  O16      1.0000 0.77170  0.19620  0.63900  Biso   1.000  O
  O17      1.0000 0.41990  0.54180  0.55770  Biso   1.000  O
  Zn1      1.0000 0.74690  0.57200  0.81710  Biso   1.000  Zn
  Zn2      1.0000 0.77310  0.57620  0.61870  Biso   1.000  Zn
  Zn3      1.0000 0.74900  0.11720  0.80580  Biso   1.000  Zn
  Zn4      1.0000 0.77530  0.12120  0.60750  Biso   1.000  Zn
