data_image0
_cell_length_a       8.7022
_cell_length_b       8.952
_cell_length_c       12.6698
_cell_angle_alpha    106.807
_cell_angle_beta     90.983
_cell_angle_gamma    110.054

_symmetry_space_group_name_H-M    "P 1"
_symmetry_int_tables_number       1

loop_
  _symmetry_equiv_pos_as_xyz
  'x, y, z'

loop_
  _atom_site_label
  _atom_site_occupancy
  _atom_site_fract_x
  _atom_site_fract_y
  _atom_site_fract_z
  _atom_site_thermal_displace_type
  _atom_site_B_iso_or_equiv
  _atom_site_type_symbol
  Cu1      1.0000 0.01194  0.04353  0.33241  Biso   1.000  Cu
  Cu2      1.0000 0.66065  0.05522  0.34359  Biso   1.000  Cu
  O1       1.0000 0.77750  0.25110  0.30030  Biso   1.000  O
  O2       1.0000 0.03700  0.26360  0.32070  Biso   1.000  O
  O3       1.0000 0.01670  0.23120  0.07410  Biso   1.000  O
  O4       1.0000 0.28970  0.36070  0.10860  Biso   1.000  O
  O5       1.0000 0.37420  0.82470  0.20880  Biso   1.000  O
  O6       1.0000 0.50210  0.85540  0.36950  Biso   1.000  O
  O7       1.0000 0.78850  0.93640  0.25930  Biso   1.000  O
  O8       1.0000 0.01890  0.82470  0.33327  Biso   1.000  O
  O9       1.0000 0.16420  0.89750  0.49817  Biso   1.000  O
  C1       1.0000 0.98870  0.48410  0.27660  Biso   1.000  C
  H1       1.0000 0.89760  0.51500  0.25590  Biso   1.000  H
  C2       1.0000 0.93030  0.31940  0.29990  Biso   1.000  C
  C3       1.0000 0.12360  0.50670  0.19830  Biso   1.000  C
  H2       1.0000 0.10900  0.57630  0.15480  Biso   1.000  H
  C4       1.0000 0.14650  0.35500  0.12220  Biso   1.000  C
  C5       1.0000 0.25740  0.61620  0.29800  Biso   1.000  C
  H3       1.0000 0.31350  0.54840  0.31820  Biso   1.000  H
  C6       1.0000 0.38390  0.77570  0.28900  Biso   1.000  C
  C7       1.0000 0.11660  0.62640  0.37360  Biso   1.000  C
  H4       1.0000 0.12750  0.59070  0.43860  Biso   1.000  H
  C8       1.0000 0.09680  0.79430  0.40440  Biso   1.000  C
  O10      1.0000 0.54870  0.19670  0.43450  Biso   1.000  O
  O11      1.0000 0.21680  0.16060  0.43670  Biso   1.000  O
  O12      1.0000 0.14510  0.99680  0.17120  Biso   1.000  O
  O13      1.0000 0.21960  0.06860  0.95100  Biso   1.000  O
  H5       1.0000 0.21000  0.06700  0.87640  Biso   1.000  H
  H6       1.0000 0.27800  0.18200  0.99100  Biso   1.000  H
  H7       1.0000 0.12900  0.88100  0.14800  Biso   1.000  H
  H8       1.0000 0.24400  0.09000  0.20000  Biso   1.000  H
  H9       1.0000 0.19800  0.09700  0.48600  Biso   1.000  H
  H10      1.0000 0.24900  0.27100  0.48500  Biso   1.000  H
  H11      1.0000 0.53630  0.16150  0.50200  Biso   1.000  H
  H12      1.0000 0.45120  0.20600  0.41300  Biso   1.000  H
  H13      1.0000 0.74200  0.83620  0.24800  Biso   1.000  H
  Cu3      1.0000 0.98806  0.95647  0.66759  Biso   1.000  Cu
  Cu4      1.0000 0.33935  0.94478  0.65641  Biso   1.000  Cu
  O14      1.0000 0.22250  0.74890  0.69970  Biso   1.000  O
  O15      1.0000 0.96300  0.73640  0.67930  Biso   1.000  O
  O16      1.0000 0.98330  0.76880  0.92590  Biso   1.000  O
  O17      1.0000 0.71030  0.63930  0.89140  Biso   1.000  O
  O18      1.0000 0.62580  0.17530  0.79120  Biso   1.000  O
  O19      1.0000 0.49790  0.14460  0.63050  Biso   1.000  O
  O20      1.0000 0.21150  0.06360  0.74070  Biso   1.000  O
  O21      1.0000 0.98110  0.17530  0.66673  Biso   1.000  O
  O22      1.0000 0.83580  0.10250  0.50183  Biso   1.000  O
  C9       1.0000 0.01130  0.51590  0.72340  Biso   1.000  C
  H14      1.0000 0.10240  0.48500  0.74410  Biso   1.000  H
  C10      1.0000 0.06970  0.68060  0.70010  Biso   1.000  C
  C11      1.0000 0.87640  0.49330  0.80170  Biso   1.000  C
  H15      1.0000 0.89100  0.42370  0.84520  Biso   1.000  H
  C12      1.0000 0.85350  0.64500  0.87780  Biso   1.000  C
  C13      1.0000 0.74260  0.38380  0.70200  Biso   1.000  C
  H16      1.0000 0.68650  0.45160  0.68180  Biso   1.000  H
  C14      1.0000 0.61610  0.22430  0.71100  Biso   1.000  C
  C15      1.0000 0.88340  0.37360  0.62640  Biso   1.000  C
  H17      1.0000 0.87250  0.40930  0.56140  Biso   1.000  H
  C16      1.0000 0.90320  0.20570  0.59560  Biso   1.000  C
  O23      1.0000 0.45130  0.80330  0.56550  Biso   1.000  O
  O24      1.0000 0.78320  0.83940  0.56330  Biso   1.000  O
  O25      1.0000 0.85490  0.00320  0.82880  Biso   1.000  O
  O26      1.0000 0.78040  0.93140  0.04900  Biso   1.000  O
  H18      1.0000 0.79000  0.93300  0.12360  Biso   1.000  H
  H19      1.0000 0.72200  0.81800  0.00900  Biso   1.000  H
  H20      1.0000 0.87100  0.11900  0.85200  Biso   1.000  H
  H21      1.0000 0.75600  0.91000  0.80000  Biso   1.000  H
  H22      1.0000 0.80200  0.90300  0.51400  Biso   1.000  H
  H23      1.0000 0.75100  0.72900  0.51500  Biso   1.000  H
  H24      1.0000 0.46370  0.83850  0.49800  Biso   1.000  H
  H25      1.0000 0.54880  0.79400  0.58700  Biso   1.000  H
  H26      1.0000 0.25800  0.16380  0.75200  Biso   1.000  H
  Cu5      1.0000 0.00000  0.00000  0.00000  Biso   1.000  Cu
