data_image0
_cell_length_a       8.697
_cell_length_b       25.05
_cell_length_c       11.638
_cell_angle_alpha    90
_cell_angle_beta     104.01
_cell_angle_gamma    90

_symmetry_space_group_name_H-M    "P 1"
_symmetry_int_tables_number       1

loop_
  _symmetry_equiv_pos_as_xyz
  'x, y, z'

loop_
  _atom_site_label
  _atom_site_occupancy
  _atom_site_fract_x
  _atom_site_fract_y
  _atom_site_fract_z
  _atom_site_thermal_displace_type
  _atom_site_B_iso_or_equiv
  _atom_site_type_symbol
  Cu1      1.0000 0.58793  0.03319  0.60365  Biso   1.000  Cu
  Cu2      1.0000 0.27507  0.08485  0.40521  Biso   1.000  Cu
  Cl1      1.0000 0.75889  0.10140  0.60414  Biso   1.000  Cl
  O1       1.0000 0.35670  0.05262  0.66777  Biso   1.000  O
  O2       1.0000 0.18480  0.03370  0.49698  Biso   1.000  O
  O3       1.0000 0.34070  0.97848  0.22751  Biso   1.000  O
  O4       1.0000 0.18080  0.04856  0.22133  Biso   1.000  O
  O5       1.0000 0.57550  0.37437  0.87524  Biso   1.000  O
  O6       1.0000 0.66640  0.33427  0.04910  Biso   1.000  O
  O7       1.0000 0.36240  0.14424  0.33200  Biso   1.000  O
  O8       1.0000 0.56500  0.10552  0.27630  Biso   1.000  O
  O9       1.0000 0.47420  0.04340  0.43822  Biso   1.000  O
  H1       1.0000 0.54550  0.05670  0.39120  Biso   1.000  H
  N1       1.0000 0.15880  0.01098  0.79894  Biso   1.000  N
  N2       1.0000 0.42830  0.26219  0.00930  Biso   1.000  N
  C1       1.0000 0.09710  0.05014  0.85180  Biso   1.000  C
  H2       1.0000 0.03210  0.07560  0.80590  Biso   1.000  H
  C2       1.0000 0.12900  0.05315  0.97360  Biso   1.000  C
  H3       1.0000 0.08640  0.08070  0.00980  Biso   1.000  H
  C3       1.0000 0.22470  0.01499  0.04160  Biso   1.000  C
  C4       1.0000 0.29090  0.97591  0.98460  Biso   1.000  C
  H4       1.0000 0.35890  0.95060  0.02830  Biso   1.000  H
  C5       1.0000 0.25580  0.97468  0.86260  Biso   1.000  C
  H5       1.0000 0.30000  0.94830  0.82430  Biso   1.000  H
  C6       1.0000 0.11430  0.00653  0.66780  Biso   1.000  C
  H6       1.0000 0.01010  0.02210  0.63800  Biso   1.000  H
  H7       1.0000 0.10760  0.96910  0.64600  Biso   1.000  H
  C7       1.0000 0.23150  0.03409  0.60900  Biso   1.000  C
  C8       1.0000 0.25060  0.01485  0.17610  Biso   1.000  C
  C9       1.0000 0.32420  0.26132  0.07750  Biso   1.000  C
  H8       1.0000 0.24440  0.28690  0.06680  Biso   1.000  H
  C10      1.0000 0.33480  0.22277  0.16330  Biso   1.000  C
  H9       1.0000 0.26330  0.22260  0.21120  Biso   1.000  H
  C11      1.0000 0.45200  0.18431  0.17820  Biso   1.000  C
  C12      1.0000 0.55750  0.18577  0.10590  Biso   1.000  C
  H10      1.0000 0.63710  0.16030  0.11400  Biso   1.000  H
  C13      1.0000 0.54260  0.22544  0.02210  Biso   1.000  C
  H11      1.0000 0.61330  0.22670  0.97370  Biso   1.000  H
  C14      1.0000 0.42140  0.30504  0.92130  Biso   1.000  C
  H12      1.0000 0.32740  0.32660  0.91680  Biso   1.000  H
  H13      1.0000 0.41410  0.28940  0.84390  Biso   1.000  H
  C15      1.0000 0.56880  0.34056  0.95490  Biso   1.000  C
  C16      1.0000 0.46320  0.14025  0.27000  Biso   1.000  C
  Cu3      1.0000 0.91207  0.53319  0.89635  Biso   1.000  Cu
  Cu4      1.0000 0.22493  0.58485  0.09479  Biso   1.000  Cu
  Cl2      1.0000 0.74111  0.60140  0.89586  Biso   1.000  Cl
  O10      1.0000 0.14330  0.55262  0.83223  Biso   1.000  O
  O11      1.0000 0.31520  0.53370  0.00302  Biso   1.000  O
  O12      1.0000 0.15930  0.47848  0.27249  Biso   1.000  O
  O13      1.0000 0.31920  0.54856  0.27867  Biso   1.000  O
  O14      1.0000 0.92450  0.87437  0.62476  Biso   1.000  O
  O15      1.0000 0.83360  0.83427  0.45090  Biso   1.000  O
  O16      1.0000 0.13760  0.64424  0.16800  Biso   1.000  O
  O17      1.0000 0.93500  0.60552  0.22370  Biso   1.000  O
  O18      1.0000 0.02580  0.54340  0.06178  Biso   1.000  O
  H14      1.0000 0.95450  0.55670  0.10880  Biso   1.000  H
  N3       1.0000 0.34120  0.51098  0.70106  Biso   1.000  N
  N4       1.0000 0.07170  0.76219  0.49070  Biso   1.000  N
  C17      1.0000 0.40290  0.55014  0.64820  Biso   1.000  C
  H15      1.0000 0.46790  0.57560  0.69410  Biso   1.000  H
  C18      1.0000 0.37100  0.55315  0.52640  Biso   1.000  C
  H16      1.0000 0.41360  0.58070  0.49020  Biso   1.000  H
  C19      1.0000 0.27530  0.51499  0.45840  Biso   1.000  C
  C20      1.0000 0.20910  0.47591  0.51540  Biso   1.000  C
  H17      1.0000 0.14110  0.45060  0.47170  Biso   1.000  H
  C21      1.0000 0.24420  0.47468  0.63740  Biso   1.000  C
  H18      1.0000 0.20000  0.44830  0.67570  Biso   1.000  H
  C22      1.0000 0.38570  0.50653  0.83220  Biso   1.000  C
  H19      1.0000 0.48990  0.52210  0.86200  Biso   1.000  H
  H20      1.0000 0.39240  0.46910  0.85400  Biso   1.000  H
  C23      1.0000 0.26850  0.53409  0.89100  Biso   1.000  C
  C24      1.0000 0.24940  0.51485  0.32390  Biso   1.000  C
  C25      1.0000 0.17580  0.76132  0.42250  Biso   1.000  C
  H21      1.0000 0.25560  0.78690  0.43320  Biso   1.000  H
  C26      1.0000 0.16520  0.72277  0.33670  Biso   1.000  C
  H22      1.0000 0.23670  0.72260  0.28880  Biso   1.000  H
  C27      1.0000 0.04800  0.68431  0.32180  Biso   1.000  C
  C28      1.0000 0.94250  0.68577  0.39410  Biso   1.000  C
  H23      1.0000 0.86290  0.66030  0.38600  Biso   1.000  H
  C29      1.0000 0.95740  0.72544  0.47790  Biso   1.000  C
  H24      1.0000 0.88670  0.72670  0.52630  Biso   1.000  H
  C30      1.0000 0.07860  0.80504  0.57870  Biso   1.000  C
  H25      1.0000 0.17260  0.82660  0.58320  Biso   1.000  H
  H26      1.0000 0.08590  0.78940  0.65610  Biso   1.000  H
  C31      1.0000 0.93120  0.84056  0.54510  Biso   1.000  C
  C32      1.0000 0.03680  0.64025  0.23000  Biso   1.000  C
  Cu5      1.0000 0.41207  0.96681  0.39635  Biso   1.000  Cu
  Cu6      1.0000 0.72493  0.91515  0.59479  Biso   1.000  Cu
  Cl3      1.0000 0.24111  0.89860  0.39586  Biso   1.000  Cl
  O19      1.0000 0.64330  0.94738  0.33223  Biso   1.000  O
  O20      1.0000 0.81520  0.96630  0.50302  Biso   1.000  O
  O21      1.0000 0.65930  0.02152  0.77249  Biso   1.000  O
  O22      1.0000 0.81920  0.95144  0.77867  Biso   1.000  O
  O23      1.0000 0.42450  0.62563  0.12476  Biso   1.000  O
  O24      1.0000 0.33360  0.66573  0.95090  Biso   1.000  O
  O25      1.0000 0.63760  0.85576  0.66800  Biso   1.000  O
  O26      1.0000 0.43500  0.89448  0.72370  Biso   1.000  O
  O27      1.0000 0.52580  0.95660  0.56178  Biso   1.000  O
  H27      1.0000 0.45450  0.94330  0.60880  Biso   1.000  H
  N5       1.0000 0.84120  0.98902  0.20106  Biso   1.000  N
  N6       1.0000 0.57170  0.73781  0.99070  Biso   1.000  N
  C33      1.0000 0.90290  0.94986  0.14820  Biso   1.000  C
  H28      1.0000 0.96790  0.92440  0.19410  Biso   1.000  H
  C34      1.0000 0.87100  0.94685  0.02640  Biso   1.000  C
  H29      1.0000 0.91360  0.91930  0.99020  Biso   1.000  H
  C35      1.0000 0.77530  0.98501  0.95840  Biso   1.000  C
  C36      1.0000 0.70910  0.02409  0.01540  Biso   1.000  C
  H30      1.0000 0.64110  0.04940  0.97170  Biso   1.000  H
  C37      1.0000 0.74420  0.02532  0.13740  Biso   1.000  C
  H31      1.0000 0.70000  0.05170  0.17570  Biso   1.000  H
  C38      1.0000 0.88570  0.99347  0.33220  Biso   1.000  C
  H32      1.0000 0.98990  0.97790  0.36200  Biso   1.000  H
  H33      1.0000 0.89240  0.03090  0.35400  Biso   1.000  H
  C39      1.0000 0.76850  0.96591  0.39100  Biso   1.000  C
  C40      1.0000 0.74940  0.98515  0.82390  Biso   1.000  C
  C41      1.0000 0.67580  0.73868  0.92250  Biso   1.000  C
  H34      1.0000 0.75560  0.71310  0.93320  Biso   1.000  H
  C42      1.0000 0.66520  0.77723  0.83670  Biso   1.000  C
  H35      1.0000 0.73670  0.77740  0.78880  Biso   1.000  H
  C43      1.0000 0.54800  0.81569  0.82180  Biso   1.000  C
  C44      1.0000 0.44250  0.81423  0.89410  Biso   1.000  C
  H36      1.0000 0.36290  0.83970  0.88600  Biso   1.000  H
  C45      1.0000 0.45740  0.77456  0.97790  Biso   1.000  C
  H37      1.0000 0.38670  0.77330  0.02630  Biso   1.000  H
  C46      1.0000 0.57860  0.69496  0.07870  Biso   1.000  C
  H38      1.0000 0.67260  0.67340  0.08320  Biso   1.000  H
  H39      1.0000 0.58590  0.71060  0.15610  Biso   1.000  H
  C47      1.0000 0.43120  0.65944  0.04510  Biso   1.000  C
  C48      1.0000 0.53680  0.85975  0.73000  Biso   1.000  C
  Cu7      1.0000 0.08793  0.46681  0.10365  Biso   1.000  Cu
  Cu8      1.0000 0.77507  0.41515  0.90521  Biso   1.000  Cu
  Cl4      1.0000 0.25889  0.39860  0.10414  Biso   1.000  Cl
  O28      1.0000 0.85670  0.44738  0.16777  Biso   1.000  O
  O29      1.0000 0.68480  0.46630  0.99698  Biso   1.000  O
  O30      1.0000 0.84070  0.52152  0.72751  Biso   1.000  O
  O31      1.0000 0.68080  0.45144  0.72133  Biso   1.000  O
  O32      1.0000 0.07550  0.12563  0.37524  Biso   1.000  O
  O33      1.0000 0.16640  0.16573  0.54910  Biso   1.000  O
  O34      1.0000 0.86240  0.35576  0.83200  Biso   1.000  O
  O35      1.0000 0.06500  0.39448  0.77630  Biso   1.000  O
  O36      1.0000 0.97420  0.45660  0.93822  Biso   1.000  O
  H40      1.0000 0.04550  0.44330  0.89120  Biso   1.000  H
  N7       1.0000 0.65880  0.48902  0.29894  Biso   1.000  N
  N8       1.0000 0.92830  0.23781  0.50930  Biso   1.000  N
  C49      1.0000 0.59710  0.44986  0.35180  Biso   1.000  C
  H41      1.0000 0.53210  0.42440  0.30590  Biso   1.000  H
  C50      1.0000 0.62900  0.44685  0.47360  Biso   1.000  C
  H42      1.0000 0.58640  0.41930  0.50980  Biso   1.000  H
  C51      1.0000 0.72470  0.48501  0.54160  Biso   1.000  C
  C52      1.0000 0.79090  0.52409  0.48460  Biso   1.000  C
  H43      1.0000 0.85890  0.54940  0.52830  Biso   1.000  H
  C53      1.0000 0.75580  0.52532  0.36260  Biso   1.000  C
  H44      1.0000 0.80000  0.55170  0.32430  Biso   1.000  H
  C54      1.0000 0.61430  0.49347  0.16780  Biso   1.000  C
  H45      1.0000 0.51010  0.47790  0.13800  Biso   1.000  H
  H46      1.0000 0.60760  0.53090  0.14600  Biso   1.000  H
  C55      1.0000 0.73150  0.46591  0.10900  Biso   1.000  C
  C56      1.0000 0.75060  0.48515  0.67610  Biso   1.000  C
  C57      1.0000 0.82420  0.23868  0.57750  Biso   1.000  C
  H47      1.0000 0.74440  0.21310  0.56680  Biso   1.000  H
  C58      1.0000 0.83480  0.27723  0.66330  Biso   1.000  C
  H48      1.0000 0.76330  0.27740  0.71120  Biso   1.000  H
  C59      1.0000 0.95200  0.31569  0.67820  Biso   1.000  C
  C60      1.0000 0.05750  0.31423  0.60590  Biso   1.000  C
  H49      1.0000 0.13710  0.33970  0.61400  Biso   1.000  H
  C61      1.0000 0.04260  0.27456  0.52210  Biso   1.000  C
  H50      1.0000 0.11330  0.27330  0.47370  Biso   1.000  H
  C62      1.0000 0.92140  0.19496  0.42130  Biso   1.000  C
  H51      1.0000 0.82740  0.17340  0.41680  Biso   1.000  H
  H52      1.0000 0.91410  0.21060  0.34390  Biso   1.000  H
  C63      1.0000 0.06880  0.15944  0.45490  Biso   1.000  C
  C64      1.0000 0.96320  0.35975  0.77000  Biso   1.000  C
