data_image0
_cell_length_a       16.5478
_cell_length_b       16.5478
_cell_length_c       12.4353
_cell_angle_alpha    90
_cell_angle_beta     90
_cell_angle_gamma    120

_symmetry_space_group_name_H-M    "P 1"
_symmetry_int_tables_number       1

loop_
  _symmetry_equiv_pos_as_xyz
  'x, y, z'

loop_
  _atom_site_label
  _atom_site_occupancy
  _atom_site_fract_x
  _atom_site_fract_y
  _atom_site_fract_z
  _atom_site_thermal_displace_type
  _atom_site_B_iso_or_equiv
  _atom_site_type_symbol
  O1       1.0000 0.18800  0.59710  0.30560  Biso   1.000  O
  O2       1.0000 0.24180  0.51320  0.38620  Biso   1.000  O
  O3       1.0000 0.06970  0.18170  0.36630  Biso   1.000  O
  C1       1.0000 0.08390  0.43460  0.34100  Biso   1.000  C
  C2       1.0000 0.08320  0.35180  0.34370  Biso   1.000  C
  H1       1.0000 0.13970  0.35070  0.35250  Biso   1.000  H
  C3       1.0000 0.17880  0.52390  0.34510  Biso   1.000  C
  C4       1.0000 0.33380  0.38470  0.47550  Biso   1.000  C
  H2       1.0000 0.32870  0.38760  0.55380  Biso   1.000  H
  H3       1.0000 0.30230  0.31930  0.45250  Biso   1.000  H
  H4       1.0000 0.30450  0.41670  0.44080  Biso   1.000  H
  C5       1.0000 0.43750  0.28430  0.47110  Biso   1.000  C
  H5       1.0000 0.40630  0.24610  0.40780  Biso   1.000  H
  H6       1.0000 0.39130  0.27130  0.52770  Biso   1.000  H
  H7       1.0000 0.48430  0.26940  0.49740  Biso   1.000  H
  C6       1.0000 0.48200  0.38090  0.44270  Biso   1.000  C
  C7       1.0000 0.43420  0.43110  0.44450  Biso   1.000  C
  O4       1.0000 0.40290  0.59090  0.63893  Biso   1.000  O
  O5       1.0000 0.48680  0.72860  0.71953  Biso   1.000  O
  O6       1.0000 0.81830  0.88800  0.69963  Biso   1.000  O
  C8       1.0000 0.56540  0.64930  0.67433  Biso   1.000  C
  C9       1.0000 0.64820  0.73140  0.67703  Biso   1.000  C
  H8       1.0000 0.64930  0.78900  0.68583  Biso   1.000  H
  C10      1.0000 0.47610  0.65490  0.67843  Biso   1.000  C
  C11      1.0000 0.61530  0.94910  0.80883  Biso   1.000  C
  H9       1.0000 0.61240  0.94110  0.88713  Biso   1.000  H
  H10      1.0000 0.68070  0.98300  0.78583  Biso   1.000  H
  H11      1.0000 0.58330  0.88780  0.77413  Biso   1.000  H
  C12      1.0000 0.71570  0.15320  0.80443  Biso   1.000  C
  H12      1.0000 0.75390  0.16020  0.74113  Biso   1.000  H
  H13      1.0000 0.72870  0.12000  0.86103  Biso   1.000  H
  H14      1.0000 0.73060  0.21490  0.83073  Biso   1.000  H
  C13      1.0000 0.61910  0.10110  0.77603  Biso   1.000  C
  C14      1.0000 0.56890  0.00310  0.77783  Biso   1.000  C
  O7       1.0000 0.40910  0.81200  0.97227  Biso   1.000  O
  O8       1.0000 0.27140  0.75820  0.05287  Biso   1.000  O
  O9       1.0000 0.11200  0.93030  0.03297  Biso   1.000  O
  C15      1.0000 0.35070  0.91610  0.00767  Biso   1.000  C
  C16      1.0000 0.26860  0.91680  0.01037  Biso   1.000  C
  H15      1.0000 0.21100  0.86030  0.01917  Biso   1.000  H
  C17      1.0000 0.34510  0.82120  0.01177  Biso   1.000  C
  C18      1.0000 0.05090  0.66620  0.14217  Biso   1.000  C
  H16      1.0000 0.05890  0.67130  0.22047  Biso   1.000  H
  H17      1.0000 0.01700  0.69770  0.11917  Biso   1.000  H
  H18      1.0000 0.11220  0.69550  0.10747  Biso   1.000  H
  C19      1.0000 0.84680  0.56250  0.13777  Biso   1.000  C
  H19      1.0000 0.83980  0.59370  0.07447  Biso   1.000  H
  H20      1.0000 0.88000  0.60870  0.19437  Biso   1.000  H
  H21      1.0000 0.78510  0.51570  0.16407  Biso   1.000  H
  C20      1.0000 0.89890  0.51800  0.10937  Biso   1.000  C
  C21      1.0000 0.99690  0.56580  0.11117  Biso   1.000  C
  O10      1.0000 0.81200  0.40290  0.80560  Biso   1.000  O
  O11      1.0000 0.75820  0.48680  0.88620  Biso   1.000  O
  O12      1.0000 0.93030  0.81830  0.86630  Biso   1.000  O
  C22      1.0000 0.91610  0.56540  0.84100  Biso   1.000  C
  C23      1.0000 0.91680  0.64820  0.84370  Biso   1.000  C
  H22      1.0000 0.86030  0.64930  0.85250  Biso   1.000  H
  C24      1.0000 0.82120  0.47610  0.84510  Biso   1.000  C
  C25      1.0000 0.66620  0.61530  0.97550  Biso   1.000  C
  H23      1.0000 0.67130  0.61240  0.05380  Biso   1.000  H
  H24      1.0000 0.69770  0.68070  0.95250  Biso   1.000  H
  H25      1.0000 0.69550  0.58330  0.94080  Biso   1.000  H
  C26      1.0000 0.56250  0.71570  0.97110  Biso   1.000  C
  H26      1.0000 0.59370  0.75390  0.90780  Biso   1.000  H
  H27      1.0000 0.60870  0.72870  0.02770  Biso   1.000  H
  H28      1.0000 0.51570  0.73060  0.99740  Biso   1.000  H
  C27      1.0000 0.51800  0.61910  0.94270  Biso   1.000  C
  C28      1.0000 0.56580  0.56890  0.94450  Biso   1.000  C
  O13      1.0000 0.59710  0.40910  0.13893  Biso   1.000  O
  O14      1.0000 0.51320  0.27140  0.21953  Biso   1.000  O
  O15      1.0000 0.18170  0.11200  0.19963  Biso   1.000  O
  C29      1.0000 0.43460  0.35070  0.17433  Biso   1.000  C
  C30      1.0000 0.35180  0.26860  0.17703  Biso   1.000  C
  H29      1.0000 0.35070  0.21100  0.18583  Biso   1.000  H
  C31      1.0000 0.52390  0.34510  0.17843  Biso   1.000  C
  C32      1.0000 0.38470  0.05090  0.30883  Biso   1.000  C
  H30      1.0000 0.38760  0.05890  0.38713  Biso   1.000  H
  H31      1.0000 0.31930  0.01700  0.28583  Biso   1.000  H
  H32      1.0000 0.41670  0.11220  0.27413  Biso   1.000  H
  C33      1.0000 0.28430  0.84680  0.30443  Biso   1.000  C
  H33      1.0000 0.24610  0.83980  0.24113  Biso   1.000  H
  H34      1.0000 0.27130  0.88000  0.36103  Biso   1.000  H
  H35      1.0000 0.26940  0.78510  0.33073  Biso   1.000  H
  C34      1.0000 0.38090  0.89890  0.27603  Biso   1.000  C
  C35      1.0000 0.43110  0.99690  0.27783  Biso   1.000  C
  O16      1.0000 0.59090  0.18800  0.47227  Biso   1.000  O
  O17      1.0000 0.72860  0.24180  0.55287  Biso   1.000  O
  O18      1.0000 0.88800  0.06970  0.53297  Biso   1.000  O
  C36      1.0000 0.64930  0.08390  0.50767  Biso   1.000  C
  C37      1.0000 0.73140  0.08320  0.51037  Biso   1.000  C
  H36      1.0000 0.78900  0.13970  0.51917  Biso   1.000  H
  C38      1.0000 0.65490  0.17880  0.51177  Biso   1.000  C
  C39      1.0000 0.94910  0.33380  0.64217  Biso   1.000  C
  H37      1.0000 0.94110  0.32870  0.72047  Biso   1.000  H
  H38      1.0000 0.98300  0.30230  0.61917  Biso   1.000  H
  H39      1.0000 0.88780  0.30450  0.60747  Biso   1.000  H
  C40      1.0000 0.15320  0.43750  0.63777  Biso   1.000  C
  H40      1.0000 0.16020  0.40630  0.57447  Biso   1.000  H
  H41      1.0000 0.12000  0.39130  0.69437  Biso   1.000  H
  H42      1.0000 0.21490  0.48430  0.66407  Biso   1.000  H
  C41      1.0000 0.10110  0.48200  0.60937  Biso   1.000  C
  C42      1.0000 0.00310  0.43420  0.61117  Biso   1.000  C
  O19      1.0000 0.59710  0.18800  0.02773  Biso   1.000  O
  O20      1.0000 0.51320  0.24180  0.94713  Biso   1.000  O
  O21      1.0000 0.18170  0.06970  0.96703  Biso   1.000  O
  C43      1.0000 0.43460  0.08390  0.99233  Biso   1.000  C
  C44      1.0000 0.35180  0.08320  0.98963  Biso   1.000  C
  H43      1.0000 0.35070  0.13970  0.98083  Biso   1.000  H
  C45      1.0000 0.52390  0.17880  0.98823  Biso   1.000  C
  C46      1.0000 0.38470  0.33380  0.85783  Biso   1.000  C
  H44      1.0000 0.38760  0.32870  0.77953  Biso   1.000  H
  H45      1.0000 0.31930  0.30230  0.88083  Biso   1.000  H
  H46      1.0000 0.41670  0.30450  0.89253  Biso   1.000  H
  C47      1.0000 0.28430  0.43750  0.86223  Biso   1.000  C
  H47      1.0000 0.24610  0.40630  0.92553  Biso   1.000  H
  H48      1.0000 0.27130  0.39130  0.80563  Biso   1.000  H
  H49      1.0000 0.26940  0.48430  0.83593  Biso   1.000  H
  C48      1.0000 0.38090  0.48200  0.89063  Biso   1.000  C
  C49      1.0000 0.43110  0.43420  0.88883  Biso   1.000  C
  O22      1.0000 0.59090  0.40290  0.69440  Biso   1.000  O
  O23      1.0000 0.72860  0.48680  0.61380  Biso   1.000  O
  O24      1.0000 0.88800  0.81830  0.63370  Biso   1.000  O
  C50      1.0000 0.64930  0.56540  0.65900  Biso   1.000  C
  C51      1.0000 0.73140  0.64820  0.65630  Biso   1.000  C
  H50      1.0000 0.78900  0.64930  0.64750  Biso   1.000  H
  C52      1.0000 0.65490  0.47610  0.65490  Biso   1.000  C
  C53      1.0000 0.94910  0.61530  0.52450  Biso   1.000  C
  H51      1.0000 0.94110  0.61240  0.44620  Biso   1.000  H
  H52      1.0000 0.98300  0.68070  0.54750  Biso   1.000  H
  H53      1.0000 0.88780  0.58330  0.55920  Biso   1.000  H
  C54      1.0000 0.15320  0.71570  0.52890  Biso   1.000  C
  H54      1.0000 0.16020  0.75390  0.59220  Biso   1.000  H
  H55      1.0000 0.12000  0.72870  0.47230  Biso   1.000  H
  H56      1.0000 0.21490  0.73060  0.50260  Biso   1.000  H
  C55      1.0000 0.10110  0.61910  0.55730  Biso   1.000  C
  C56      1.0000 0.00310  0.56890  0.55550  Biso   1.000  C
  O25      1.0000 0.81200  0.40910  0.36107  Biso   1.000  O
  O26      1.0000 0.75820  0.27140  0.28047  Biso   1.000  O
  O27      1.0000 0.93030  0.11200  0.30037  Biso   1.000  O
  C57      1.0000 0.91610  0.35070  0.32567  Biso   1.000  C
  C58      1.0000 0.91680  0.26860  0.32297  Biso   1.000  C
  H57      1.0000 0.86030  0.21100  0.31417  Biso   1.000  H
  C59      1.0000 0.82120  0.34510  0.32157  Biso   1.000  C
  C60      1.0000 0.66620  0.05090  0.19117  Biso   1.000  C
  H58      1.0000 0.67130  0.05890  0.11287  Biso   1.000  H
  H59      1.0000 0.69770  0.01700  0.21417  Biso   1.000  H
  H60      1.0000 0.69550  0.11220  0.22587  Biso   1.000  H
  C61      1.0000 0.56250  0.84680  0.19557  Biso   1.000  C
  H61      1.0000 0.59370  0.83980  0.25887  Biso   1.000  H
  H62      1.0000 0.60870  0.88000  0.13897  Biso   1.000  H
  H63      1.0000 0.51570  0.78510  0.16927  Biso   1.000  H
  C62      1.0000 0.51800  0.89890  0.22397  Biso   1.000  C
  C63      1.0000 0.56580  0.99690  0.22217  Biso   1.000  C
  O28      1.0000 0.40290  0.81200  0.52773  Biso   1.000  O
  O29      1.0000 0.48680  0.75820  0.44713  Biso   1.000  O
  O30      1.0000 0.81830  0.93030  0.46703  Biso   1.000  O
  C64      1.0000 0.56540  0.91610  0.49233  Biso   1.000  C
  C65      1.0000 0.64820  0.91680  0.48963  Biso   1.000  C
  H64      1.0000 0.64930  0.86030  0.48083  Biso   1.000  H
  C66      1.0000 0.47610  0.82120  0.48823  Biso   1.000  C
  C67      1.0000 0.61530  0.66620  0.35783  Biso   1.000  C
  H65      1.0000 0.61240  0.67130  0.27953  Biso   1.000  H
  H66      1.0000 0.68070  0.69770  0.38083  Biso   1.000  H
  H67      1.0000 0.58330  0.69550  0.39253  Biso   1.000  H
  C68      1.0000 0.71570  0.56250  0.36223  Biso   1.000  C
  H68      1.0000 0.75390  0.59370  0.42553  Biso   1.000  H
  H69      1.0000 0.72870  0.60870  0.30563  Biso   1.000  H
  H70      1.0000 0.73060  0.51570  0.33593  Biso   1.000  H
  C69      1.0000 0.61910  0.51800  0.39063  Biso   1.000  C
  C70      1.0000 0.56890  0.56580  0.38883  Biso   1.000  C
  O31      1.0000 0.40910  0.59710  0.19440  Biso   1.000  O
  O32      1.0000 0.27140  0.51320  0.11380  Biso   1.000  O
  O33      1.0000 0.11200  0.18170  0.13370  Biso   1.000  O
  C71      1.0000 0.35070  0.43460  0.15900  Biso   1.000  C
  C72      1.0000 0.26860  0.35180  0.15630  Biso   1.000  C
  H71      1.0000 0.21100  0.35070  0.14750  Biso   1.000  H
  C73      1.0000 0.34510  0.52390  0.15490  Biso   1.000  C
  C74      1.0000 0.05090  0.38470  0.02450  Biso   1.000  C
  H72      1.0000 0.05890  0.38760  0.94620  Biso   1.000  H
  H73      1.0000 0.01700  0.31930  0.04750  Biso   1.000  H
  H74      1.0000 0.11220  0.41670  0.05920  Biso   1.000  H
  C75      1.0000 0.84680  0.28430  0.02890  Biso   1.000  C
  H75      1.0000 0.83980  0.24610  0.09220  Biso   1.000  H
  H76      1.0000 0.88000  0.27130  0.97230  Biso   1.000  H
  H77      1.0000 0.78510  0.26940  0.00260  Biso   1.000  H
  C76      1.0000 0.89890  0.38090  0.05730  Biso   1.000  C
  C77      1.0000 0.99690  0.43110  0.05550  Biso   1.000  C
  O34      1.0000 0.18800  0.59090  0.86107  Biso   1.000  O
  O35      1.0000 0.24180  0.72860  0.78047  Biso   1.000  O
  O36      1.0000 0.06970  0.88800  0.80037  Biso   1.000  O
  C78      1.0000 0.08390  0.64930  0.82567  Biso   1.000  C
  C79      1.0000 0.08320  0.73140  0.82297  Biso   1.000  C
  H78      1.0000 0.13970  0.78900  0.81417  Biso   1.000  H
  C80      1.0000 0.17880  0.65490  0.82157  Biso   1.000  C
  C81      1.0000 0.33380  0.94910  0.69117  Biso   1.000  C
  H79      1.0000 0.32870  0.94110  0.61287  Biso   1.000  H
  H80      1.0000 0.30230  0.98300  0.71417  Biso   1.000  H
  H81      1.0000 0.30450  0.88780  0.72587  Biso   1.000  H
  C82      1.0000 0.43750  0.15320  0.69557  Biso   1.000  C
  H82      1.0000 0.40630  0.16020  0.75887  Biso   1.000  H
  H83      1.0000 0.39130  0.12000  0.63897  Biso   1.000  H
  H84      1.0000 0.48430  0.21490  0.66927  Biso   1.000  H
  C83      1.0000 0.48200  0.10110  0.72397  Biso   1.000  C
  C84      1.0000 0.43420  0.00310  0.72217  Biso   1.000  C
  Ag1      1.0000 0.65222  0.34778  0.41667  Biso   1.000  Ag
  Ag2      1.0000 0.39649  0.60351  0.41667  Biso   1.000  Ag
  N1       1.0000 0.57400  0.42600  0.41667  Biso   1.000  N
  N2       1.0000 0.47840  0.52160  0.41667  Biso   1.000  N
  Ag3      1.0000 0.65222  0.30444  0.75000  Biso   1.000  Ag
  Ag4      1.0000 0.39649  0.79298  0.75000  Biso   1.000  Ag
  N3       1.0000 0.57400  0.14800  0.75000  Biso   1.000  N
  N4       1.0000 0.47840  0.95680  0.75000  Biso   1.000  N
  Ag5      1.0000 0.69556  0.34778  0.08333  Biso   1.000  Ag
  Ag6      1.0000 0.20702  0.60351  0.08333  Biso   1.000  Ag
  N5       1.0000 0.85200  0.42600  0.08333  Biso   1.000  N
  N6       1.0000 0.04320  0.52160  0.08333  Biso   1.000  N
  Ag7      1.0000 0.34778  0.65222  0.91667  Biso   1.000  Ag
  Ag8      1.0000 0.60351  0.39649  0.91667  Biso   1.000  Ag
  N7       1.0000 0.42600  0.57400  0.91667  Biso   1.000  N
  N8       1.0000 0.52160  0.47840  0.91667  Biso   1.000  N
  Ag9      1.0000 0.34778  0.69556  0.25000  Biso   1.000  Ag
  Ag10     1.0000 0.60351  0.20702  0.25000  Biso   1.000  Ag
  N9       1.0000 0.42600  0.85200  0.25000  Biso   1.000  N
  N10      1.0000 0.52160  0.04320  0.25000  Biso   1.000  N
  Ag11     1.0000 0.30444  0.65222  0.58333  Biso   1.000  Ag
  Ag12     1.0000 0.79298  0.39649  0.58333  Biso   1.000  Ag
  N11      1.0000 0.14800  0.57400  0.58333  Biso   1.000  N
  N12      1.0000 0.95680  0.47840  0.58333  Biso   1.000  N
  N13      1.0000 0.00000  0.18210  0.33333  Biso   1.000  N
  C85      1.0000 0.00000  0.43500  0.33333  Biso   1.000  C
  H85      1.0000 0.00000  0.49240  0.33333  Biso   1.000  H
  C86      1.0000 0.00000  0.27040  0.33333  Biso   1.000  C
  N14      1.0000 0.81790  0.81790  0.66667  Biso   1.000  N
  C87      1.0000 0.56500  0.56500  0.66667  Biso   1.000  C
  H86      1.0000 0.50760  0.50760  0.66667  Biso   1.000  H
  C88      1.0000 0.72960  0.72960  0.66667  Biso   1.000  C
  N15      1.0000 0.18210  0.00000  0.00000  Biso   1.000  N
  C89      1.0000 0.43500  0.00000  0.00000  Biso   1.000  C
  H87      1.0000 0.49240  0.00000  0.00000  Biso   1.000  H
  C90      1.0000 0.27040  0.00000  0.00000  Biso   1.000  C
  N16      1.0000 0.00000  0.81790  0.83333  Biso   1.000  N
  C91      1.0000 0.00000  0.56500  0.83333  Biso   1.000  C
  H88      1.0000 0.00000  0.50760  0.83333  Biso   1.000  H
  C92      1.0000 0.00000  0.72960  0.83333  Biso   1.000  C
  N17      1.0000 0.18210  0.18210  0.16667  Biso   1.000  N
  C93      1.0000 0.43500  0.43500  0.16667  Biso   1.000  C
  H89      1.0000 0.49240  0.49240  0.16667  Biso   1.000  H
  C94      1.0000 0.27040  0.27040  0.16667  Biso   1.000  C
  N18      1.0000 0.81790  0.00000  0.50000  Biso   1.000  N
  C95      1.0000 0.56500  0.00000  0.50000  Biso   1.000  C
  H90      1.0000 0.50760  0.00000  0.50000  Biso   1.000  H
  C96      1.0000 0.72960  0.00000  0.50000  Biso   1.000  C
