data_image0
_cell_length_a       19.7623
_cell_length_b       21.3747
_cell_length_c       8.369
_cell_angle_alpha    90
_cell_angle_beta     112.171
_cell_angle_gamma    90

_symmetry_space_group_name_H-M    "P 1"
_symmetry_int_tables_number       1

loop_
  _symmetry_equiv_pos_as_xyz
  'x, y, z'

loop_
  _atom_site_label
  _atom_site_occupancy
  _atom_site_fract_x
  _atom_site_fract_y
  _atom_site_fract_z
  _atom_site_thermal_displace_type
  _atom_site_B_iso_or_equiv
  _atom_site_type_symbol
  Zn1      1.0000 0.25861  0.00732  0.40768  Biso   1.000  Zn
  C1       1.0000 0.36920  0.04510  0.69020  Biso   1.000  C
  C2       1.0000 0.43720  0.04460  0.85280  Biso   1.000  C
  C3       1.0000 0.46920  0.98840  0.92750  Biso   1.000  C
  H1       1.0000 0.44830  0.95070  0.87780  Biso   1.000  H
  C4       1.0000 0.46860  0.09970  0.92830  Biso   1.000  C
  H2       1.0000 0.44680  0.13750  0.88130  Biso   1.000  H
  C5       1.0000 0.11690  0.02150  0.37880  Biso   1.000  C
  C6       1.0000 0.05780  0.02490  0.44170  Biso   1.000  C
  C7       1.0000 0.07090  0.02490  0.61240  Biso   1.000  C
  H3       1.0000 0.11910  0.02450  0.69090  Biso   1.000  H
  C8       1.0000 0.98360  0.02530  0.32700  Biso   1.000  C
  H4       1.0000 0.97230  0.02580  0.20860  Biso   1.000  H
  C9       1.0000 0.19700  0.89170  0.19340  Biso   1.000  C
  H5       1.0000 0.16110  0.91370  0.10660  Biso   1.000  H
  C10      1.0000 0.26300  0.81530  0.33690  Biso   1.000  C
  H6       1.0000 0.28240  0.77560  0.37180  Biso   1.000  H
  C11      1.0000 0.28600  0.86880  0.41750  Biso   1.000  C
  H7       1.0000 0.32540  0.87300  0.52190  Biso   1.000  H
  C12      1.0000 0.16120  0.78690  0.06170  Biso   1.000  C
  C13      1.0000 0.09350  0.80420  0.95310  Biso   1.000  C
  H8       1.0000 0.07420  0.84290  0.96390  Biso   1.000  H
  C14      1.0000 0.05250  0.76100  0.82090  Biso   1.000  C
  C15      1.0000 0.96020  0.83940  0.64770  Biso   1.000  C
  H9       1.0000 0.98770  0.87550  0.68580  Biso   1.000  H
  C16      1.0000 0.89320  0.83650  0.53230  Biso   1.000  C
  H10      1.0000 0.86610  0.87070  0.47360  Biso   1.000  H
  C17      1.0000 0.92690  0.74230  0.61740  Biso   1.000  C
  H11      1.0000 0.92850  0.69910  0.63040  Biso   1.000  H
  C18      1.0000 0.08290  0.70650  0.79680  Biso   1.000  C
  H12      1.0000 0.05830  0.68050  0.70400  Biso   1.000  H
  C19      1.0000 0.15200  0.69090  0.91490  Biso   1.000  C
  C20      1.0000 0.18640  0.61230  0.74070  Biso   1.000  C
  H13      1.0000 0.16500  0.63200  0.63440  Biso   1.000  H
  C21      1.0000 0.24580  0.54620  0.94440  Biso   1.000  C
  H14      1.0000 0.27220  0.51130  0.00030  Biso   1.000  H
  C22      1.0000 0.22290  0.59320  0.02150  Biso   1.000  C
  H15      1.0000 0.23160  0.59710  0.13830  Biso   1.000  H
  C23      1.0000 0.19160  0.73010  0.04480  Biso   1.000  C
  H16      1.0000 0.23810  0.71890  0.12070  Biso   1.000  H
  N1       1.0000 0.24380  0.91750  0.32550  Biso   1.000  N
  N2       1.0000 0.20470  0.83050  0.19160  Biso   1.000  N
  N3       1.0000 0.86810  0.77350  0.51000  Biso   1.000  N
  N4       1.0000 0.98220  0.77950  0.70210  Biso   1.000  N
  N5       1.0000 0.22390  0.55830  0.77230  Biso   1.000  N
  N6       1.0000 0.18560  0.63260  0.89550  Biso   1.000  N
  O1       1.0000 0.34450  0.99410  0.62030  Biso   1.000  O
  O2       1.0000 0.34060  0.09590  0.63640  Biso   1.000  O
  O3       1.0000 0.18144  0.02890  0.48820  Biso   1.000  O
  O4       1.0000 0.10525  0.01050  0.22400  Biso   1.000  O
  Zn2      1.0000 0.75861  0.50732  0.40768  Biso   1.000  Zn
  C24      1.0000 0.86920  0.54510  0.69020  Biso   1.000  C
  C25      1.0000 0.93720  0.54460  0.85280  Biso   1.000  C
  C26      1.0000 0.96920  0.48840  0.92750  Biso   1.000  C
  H17      1.0000 0.94830  0.45070  0.87780  Biso   1.000  H
  C27      1.0000 0.96860  0.59970  0.92830  Biso   1.000  C
  H18      1.0000 0.94680  0.63750  0.88130  Biso   1.000  H
  C28      1.0000 0.61690  0.52150  0.37880  Biso   1.000  C
  C29      1.0000 0.55780  0.52490  0.44170  Biso   1.000  C
  C30      1.0000 0.57090  0.52490  0.61240  Biso   1.000  C
  H19      1.0000 0.61910  0.52450  0.69090  Biso   1.000  H
  C31      1.0000 0.48360  0.52530  0.32700  Biso   1.000  C
  H20      1.0000 0.47230  0.52580  0.20860  Biso   1.000  H
  C32      1.0000 0.69700  0.39170  0.19340  Biso   1.000  C
  H21      1.0000 0.66110  0.41370  0.10660  Biso   1.000  H
  C33      1.0000 0.76300  0.31530  0.33690  Biso   1.000  C
  H22      1.0000 0.78240  0.27560  0.37180  Biso   1.000  H
  C34      1.0000 0.78600  0.36880  0.41750  Biso   1.000  C
  H23      1.0000 0.82540  0.37300  0.52190  Biso   1.000  H
  C35      1.0000 0.66120  0.28690  0.06170  Biso   1.000  C
  C36      1.0000 0.59350  0.30420  0.95310  Biso   1.000  C
  H24      1.0000 0.57420  0.34290  0.96390  Biso   1.000  H
  C37      1.0000 0.55250  0.26100  0.82090  Biso   1.000  C
  C38      1.0000 0.46020  0.33940  0.64770  Biso   1.000  C
  H25      1.0000 0.48770  0.37550  0.68580  Biso   1.000  H
  C39      1.0000 0.39320  0.33650  0.53230  Biso   1.000  C
  H26      1.0000 0.36610  0.37070  0.47360  Biso   1.000  H
  C40      1.0000 0.42690  0.24230  0.61740  Biso   1.000  C
  H27      1.0000 0.42850  0.19910  0.63040  Biso   1.000  H
  C41      1.0000 0.58290  0.20650  0.79680  Biso   1.000  C
  H28      1.0000 0.55830  0.18050  0.70400  Biso   1.000  H
  C42      1.0000 0.65200  0.19090  0.91490  Biso   1.000  C
  C43      1.0000 0.68640  0.11230  0.74070  Biso   1.000  C
  H29      1.0000 0.66500  0.13200  0.63440  Biso   1.000  H
  C44      1.0000 0.74580  0.04620  0.94440  Biso   1.000  C
  H30      1.0000 0.77220  0.01130  0.00030  Biso   1.000  H
  C45      1.0000 0.72290  0.09320  0.02150  Biso   1.000  C
  H31      1.0000 0.73160  0.09710  0.13830  Biso   1.000  H
  C46      1.0000 0.69160  0.23010  0.04480  Biso   1.000  C
  H32      1.0000 0.73810  0.21890  0.12070  Biso   1.000  H
  N7       1.0000 0.74380  0.41750  0.32550  Biso   1.000  N
  N8       1.0000 0.70470  0.33050  0.19160  Biso   1.000  N
  N9       1.0000 0.36810  0.27350  0.51000  Biso   1.000  N
  N10      1.0000 0.48220  0.27950  0.70210  Biso   1.000  N
  N11      1.0000 0.72390  0.05830  0.77230  Biso   1.000  N
  N12      1.0000 0.68560  0.13260  0.89550  Biso   1.000  N
  O5       1.0000 0.84450  0.49410  0.62030  Biso   1.000  O
  O6       1.0000 0.84060  0.59590  0.63640  Biso   1.000  O
  O7       1.0000 0.68144  0.52890  0.48820  Biso   1.000  O
  O8       1.0000 0.60525  0.51050  0.22400  Biso   1.000  O
  Zn3      1.0000 0.74139  0.00732  0.59232  Biso   1.000  Zn
  C47      1.0000 0.63080  0.04510  0.30980  Biso   1.000  C
  C48      1.0000 0.56280  0.04460  0.14720  Biso   1.000  C
  C49      1.0000 0.53080  0.98840  0.07250  Biso   1.000  C
  H33      1.0000 0.55170  0.95070  0.12220  Biso   1.000  H
  C50      1.0000 0.53140  0.09970  0.07170  Biso   1.000  C
  H34      1.0000 0.55320  0.13750  0.11870  Biso   1.000  H
  C51      1.0000 0.88310  0.02150  0.62120  Biso   1.000  C
  C52      1.0000 0.94220  0.02490  0.55830  Biso   1.000  C
  C53      1.0000 0.92910  0.02490  0.38760  Biso   1.000  C
  H35      1.0000 0.88090  0.02450  0.30910  Biso   1.000  H
  C54      1.0000 0.01640  0.02530  0.67300  Biso   1.000  C
  H36      1.0000 0.02770  0.02580  0.79140  Biso   1.000  H
  C55      1.0000 0.80300  0.89170  0.80660  Biso   1.000  C
  H37      1.0000 0.83890  0.91370  0.89340  Biso   1.000  H
  C56      1.0000 0.73700  0.81530  0.66310  Biso   1.000  C
  H38      1.0000 0.71760  0.77560  0.62820  Biso   1.000  H
  C57      1.0000 0.71400  0.86880  0.58250  Biso   1.000  C
  H39      1.0000 0.67460  0.87300  0.47810  Biso   1.000  H
  C58      1.0000 0.83880  0.78690  0.93830  Biso   1.000  C
  C59      1.0000 0.90650  0.80420  0.04690  Biso   1.000  C
  H40      1.0000 0.92580  0.84290  0.03610  Biso   1.000  H
  C60      1.0000 0.94750  0.76100  0.17910  Biso   1.000  C
  C61      1.0000 0.03980  0.83940  0.35230  Biso   1.000  C
  H41      1.0000 0.01230  0.87550  0.31420  Biso   1.000  H
  C62      1.0000 0.10680  0.83650  0.46770  Biso   1.000  C
  H42      1.0000 0.13390  0.87070  0.52640  Biso   1.000  H
  C63      1.0000 0.07310  0.74230  0.38260  Biso   1.000  C
  H43      1.0000 0.07150  0.69910  0.36960  Biso   1.000  H
  C64      1.0000 0.91710  0.70650  0.20320  Biso   1.000  C
  H44      1.0000 0.94170  0.68050  0.29600  Biso   1.000  H
  C65      1.0000 0.84800  0.69090  0.08510  Biso   1.000  C
  C66      1.0000 0.81360  0.61230  0.25930  Biso   1.000  C
  H45      1.0000 0.83500  0.63200  0.36560  Biso   1.000  H
  C67      1.0000 0.75420  0.54620  0.05560  Biso   1.000  C
  H46      1.0000 0.72780  0.51130  0.99970  Biso   1.000  H
  C68      1.0000 0.77710  0.59320  0.97850  Biso   1.000  C
  H47      1.0000 0.76840  0.59710  0.86170  Biso   1.000  H
  C69      1.0000 0.80840  0.73010  0.95520  Biso   1.000  C
  H48      1.0000 0.76190  0.71890  0.87930  Biso   1.000  H
  N13      1.0000 0.75620  0.91750  0.67450  Biso   1.000  N
  N14      1.0000 0.79530  0.83050  0.80840  Biso   1.000  N
  N15      1.0000 0.13190  0.77350  0.49000  Biso   1.000  N
  N16      1.0000 0.01780  0.77950  0.29790  Biso   1.000  N
  N17      1.0000 0.77610  0.55830  0.22770  Biso   1.000  N
  N18      1.0000 0.81440  0.63260  0.10450  Biso   1.000  N
  O9       1.0000 0.65550  0.99410  0.37970  Biso   1.000  O
  O10      1.0000 0.65940  0.09590  0.36360  Biso   1.000  O
  O11      1.0000 0.81856  0.02890  0.51180  Biso   1.000  O
  O12      1.0000 0.89475  0.01050  0.77600  Biso   1.000  O
  Zn4      1.0000 0.24139  0.50732  0.59232  Biso   1.000  Zn
  C70      1.0000 0.13080  0.54510  0.30980  Biso   1.000  C
  C71      1.0000 0.06280  0.54460  0.14720  Biso   1.000  C
  C72      1.0000 0.03080  0.48840  0.07250  Biso   1.000  C
  H49      1.0000 0.05170  0.45070  0.12220  Biso   1.000  H
  C73      1.0000 0.03140  0.59970  0.07170  Biso   1.000  C
  H50      1.0000 0.05320  0.63750  0.11870  Biso   1.000  H
  C74      1.0000 0.38310  0.52150  0.62120  Biso   1.000  C
  C75      1.0000 0.44220  0.52490  0.55830  Biso   1.000  C
  C76      1.0000 0.42910  0.52490  0.38760  Biso   1.000  C
  H51      1.0000 0.38090  0.52450  0.30910  Biso   1.000  H
  C77      1.0000 0.51640  0.52530  0.67300  Biso   1.000  C
  H52      1.0000 0.52770  0.52580  0.79140  Biso   1.000  H
  C78      1.0000 0.30300  0.39170  0.80660  Biso   1.000  C
  H53      1.0000 0.33890  0.41370  0.89340  Biso   1.000  H
  C79      1.0000 0.23700  0.31530  0.66310  Biso   1.000  C
  H54      1.0000 0.21760  0.27560  0.62820  Biso   1.000  H
  C80      1.0000 0.21400  0.36880  0.58250  Biso   1.000  C
  H55      1.0000 0.17460  0.37300  0.47810  Biso   1.000  H
  C81      1.0000 0.33880  0.28690  0.93830  Biso   1.000  C
  C82      1.0000 0.40650  0.30420  0.04690  Biso   1.000  C
  H56      1.0000 0.42580  0.34290  0.03610  Biso   1.000  H
  C83      1.0000 0.44750  0.26100  0.17910  Biso   1.000  C
  C84      1.0000 0.53980  0.33940  0.35230  Biso   1.000  C
  H57      1.0000 0.51230  0.37550  0.31420  Biso   1.000  H
  C85      1.0000 0.60680  0.33650  0.46770  Biso   1.000  C
  H58      1.0000 0.63390  0.37070  0.52640  Biso   1.000  H
  C86      1.0000 0.57310  0.24230  0.38260  Biso   1.000  C
  H59      1.0000 0.57150  0.19910  0.36960  Biso   1.000  H
  C87      1.0000 0.41710  0.20650  0.20320  Biso   1.000  C
  H60      1.0000 0.44170  0.18050  0.29600  Biso   1.000  H
  C88      1.0000 0.34800  0.19090  0.08510  Biso   1.000  C
  C89      1.0000 0.31360  0.11230  0.25930  Biso   1.000  C
  H61      1.0000 0.33500  0.13200  0.36560  Biso   1.000  H
  C90      1.0000 0.25420  0.04620  0.05560  Biso   1.000  C
  H62      1.0000 0.22780  0.01130  0.99970  Biso   1.000  H
  C91      1.0000 0.27710  0.09320  0.97850  Biso   1.000  C
  H63      1.0000 0.26840  0.09710  0.86170  Biso   1.000  H
  C92      1.0000 0.30840  0.23010  0.95520  Biso   1.000  C
  H64      1.0000 0.26190  0.21890  0.87930  Biso   1.000  H
  N19      1.0000 0.25620  0.41750  0.67450  Biso   1.000  N
  N20      1.0000 0.29530  0.33050  0.80840  Biso   1.000  N
  N21      1.0000 0.63190  0.27350  0.49000  Biso   1.000  N
  N22      1.0000 0.51780  0.27950  0.29790  Biso   1.000  N
  N23      1.0000 0.27610  0.05830  0.22770  Biso   1.000  N
  N24      1.0000 0.31440  0.13260  0.10450  Biso   1.000  N
  O13      1.0000 0.15550  0.49410  0.37970  Biso   1.000  O
  O14      1.0000 0.15940  0.59590  0.36360  Biso   1.000  O
  O15      1.0000 0.31856  0.52890  0.51180  Biso   1.000  O
  O16      1.0000 0.39475  0.51050  0.77600  Biso   1.000  O
