data_image0
_cell_length_a       17.679
_cell_length_b       27.134
_cell_length_c       6.9113
_cell_angle_alpha    90
_cell_angle_beta     94.222
_cell_angle_gamma    90

_symmetry_space_group_name_H-M    "P 1"
_symmetry_int_tables_number       1

loop_
  _symmetry_equiv_pos_as_xyz
  'x, y, z'

loop_
  _atom_site_label
  _atom_site_occupancy
  _atom_site_fract_x
  _atom_site_fract_y
  _atom_site_fract_z
  _atom_site_thermal_displace_type
  _atom_site_B_iso_or_equiv
  _atom_site_type_symbol
  H1       1.0000 0.29230  0.02860  0.79770  Biso   1.000  H
  N1       1.0000 0.43714  0.08373  0.27790  Biso   1.000  N
  N2       1.0000 0.55225  0.19391  0.19470  Biso   1.000  N
  H2       1.0000 0.54190  0.22490  0.18820  Biso   1.000  H
  C1       1.0000 0.49290  0.16262  0.24330  Biso   1.000  C
  C2       1.0000 0.49540  0.11184  0.23090  Biso   1.000  C
  H3       1.0000 0.53860  0.09680  0.18900  Biso   1.000  H
  C3       1.0000 0.37510  0.10561  0.33990  Biso   1.000  C
  H4       1.0000 0.33560  0.08590  0.37700  Biso   1.000  H
  C4       1.0000 0.36760  0.15575  0.35060  Biso   1.000  C
  H5       1.0000 0.32320  0.16980  0.38950  Biso   1.000  H
  C5       1.0000 0.42710  0.18514  0.30280  Biso   1.000  C
  H6       1.0000 0.42370  0.21930  0.30990  Biso   1.000  H
  O1       1.0000 0.64696  0.13832  0.15940  Biso   1.000  O
  C6       1.0000 0.62380  0.18092  0.15680  Biso   1.000  C
  C7       1.0000 0.67600  0.22358  0.12110  Biso   1.000  C
  H7       1.0000 0.64700  0.25100  0.06410  Biso   1.000  H
  H8       1.0000 0.71310  0.21370  0.03180  Biso   1.000  H
  C8       1.0000 0.71620  0.23921  0.31450  Biso   1.000  C
  C9       1.0000 0.68240  0.27224  0.43560  Biso   1.000  C
  H9       1.0000 0.63670  0.28700  0.39350  Biso   1.000  H
  C10      1.0000 0.78410  0.21652  0.38130  Biso   1.000  C
  H10      1.0000 0.80700  0.19390  0.30320  Biso   1.000  H
  H11      1.0000 0.79230  0.52860  0.79770  Biso   1.000  H
  N3       1.0000 0.93714  0.58373  0.27790  Biso   1.000  N
  N4       1.0000 0.05225  0.69391  0.19470  Biso   1.000  N
  H12      1.0000 0.04190  0.72490  0.18820  Biso   1.000  H
  C11      1.0000 0.99290  0.66262  0.24330  Biso   1.000  C
  C12      1.0000 0.99540  0.61184  0.23090  Biso   1.000  C
  H13      1.0000 0.03860  0.59680  0.18900  Biso   1.000  H
  C13      1.0000 0.87510  0.60561  0.33990  Biso   1.000  C
  H14      1.0000 0.83560  0.58590  0.37700  Biso   1.000  H
  C14      1.0000 0.86760  0.65575  0.35060  Biso   1.000  C
  H15      1.0000 0.82320  0.66980  0.38950  Biso   1.000  H
  C15      1.0000 0.92710  0.68514  0.30280  Biso   1.000  C
  H16      1.0000 0.92370  0.71930  0.30990  Biso   1.000  H
  O2       1.0000 0.14696  0.63832  0.15940  Biso   1.000  O
  C16      1.0000 0.12380  0.68092  0.15680  Biso   1.000  C
  C17      1.0000 0.17600  0.72358  0.12110  Biso   1.000  C
  H17      1.0000 0.14700  0.75100  0.06410  Biso   1.000  H
  H18      1.0000 0.21310  0.71370  0.03180  Biso   1.000  H
  C18      1.0000 0.21620  0.73921  0.31450  Biso   1.000  C
  C19      1.0000 0.18240  0.77224  0.43560  Biso   1.000  C
  H19      1.0000 0.13670  0.78700  0.39350  Biso   1.000  H
  C20      1.0000 0.28410  0.71652  0.38130  Biso   1.000  C
  H20      1.0000 0.30700  0.69390  0.30320  Biso   1.000  H
  H21      1.0000 0.70770  0.02860  0.20230  Biso   1.000  H
  N5       1.0000 0.56286  0.08373  0.72210  Biso   1.000  N
  N6       1.0000 0.44775  0.19391  0.80530  Biso   1.000  N
  H22      1.0000 0.45810  0.22490  0.81180  Biso   1.000  H
  C21      1.0000 0.50710  0.16262  0.75670  Biso   1.000  C
  C22      1.0000 0.50460  0.11184  0.76910  Biso   1.000  C
  H23      1.0000 0.46140  0.09680  0.81100  Biso   1.000  H
  C23      1.0000 0.62490  0.10561  0.66010  Biso   1.000  C
  H24      1.0000 0.66440  0.08590  0.62300  Biso   1.000  H
  C24      1.0000 0.63240  0.15575  0.64940  Biso   1.000  C
  H25      1.0000 0.67680  0.16980  0.61050  Biso   1.000  H
  C25      1.0000 0.57290  0.18514  0.69720  Biso   1.000  C
  H26      1.0000 0.57630  0.21930  0.69010  Biso   1.000  H
  O3       1.0000 0.35304  0.13832  0.84060  Biso   1.000  O
  C26      1.0000 0.37620  0.18092  0.84320  Biso   1.000  C
  C27      1.0000 0.32400  0.22358  0.87890  Biso   1.000  C
  H27      1.0000 0.35300  0.25100  0.93590  Biso   1.000  H
  H28      1.0000 0.28690  0.21370  0.96820  Biso   1.000  H
  C28      1.0000 0.28380  0.23921  0.68550  Biso   1.000  C
  C29      1.0000 0.31760  0.27224  0.56440  Biso   1.000  C
  H29      1.0000 0.36330  0.28700  0.60650  Biso   1.000  H
  C30      1.0000 0.21590  0.21652  0.61870  Biso   1.000  C
  H30      1.0000 0.19300  0.19390  0.69680  Biso   1.000  H
  H31      1.0000 0.20770  0.52860  0.20230  Biso   1.000  H
  N7       1.0000 0.06286  0.58373  0.72210  Biso   1.000  N
  N8       1.0000 0.94775  0.69391  0.80530  Biso   1.000  N
  H32      1.0000 0.95810  0.72490  0.81180  Biso   1.000  H
  C31      1.0000 0.00710  0.66262  0.75670  Biso   1.000  C
  C32      1.0000 0.00460  0.61184  0.76910  Biso   1.000  C
  H33      1.0000 0.96140  0.59680  0.81100  Biso   1.000  H
  C33      1.0000 0.12490  0.60561  0.66010  Biso   1.000  C
  H34      1.0000 0.16440  0.58590  0.62300  Biso   1.000  H
  C34      1.0000 0.13240  0.65575  0.64940  Biso   1.000  C
  H35      1.0000 0.17680  0.66980  0.61050  Biso   1.000  H
  C35      1.0000 0.07290  0.68514  0.69720  Biso   1.000  C
  H36      1.0000 0.07630  0.71930  0.69010  Biso   1.000  H
  O4       1.0000 0.85304  0.63832  0.84060  Biso   1.000  O
  C36      1.0000 0.87620  0.68092  0.84320  Biso   1.000  C
  C37      1.0000 0.82400  0.72358  0.87890  Biso   1.000  C
  H37      1.0000 0.85300  0.75100  0.93590  Biso   1.000  H
  H38      1.0000 0.78690  0.71370  0.96820  Biso   1.000  H
  C38      1.0000 0.78380  0.73921  0.68550  Biso   1.000  C
  C39      1.0000 0.81760  0.77224  0.56440  Biso   1.000  C
  H39      1.0000 0.86330  0.78700  0.60650  Biso   1.000  H
  C40      1.0000 0.71590  0.71652  0.61870  Biso   1.000  C
  H40      1.0000 0.69300  0.69390  0.69680  Biso   1.000  H
  H41      1.0000 0.70770  0.97140  0.20230  Biso   1.000  H
  N9       1.0000 0.56286  0.91627  0.72210  Biso   1.000  N
  N10      1.0000 0.44775  0.80609  0.80530  Biso   1.000  N
  H42      1.0000 0.45810  0.77510  0.81180  Biso   1.000  H
  C41      1.0000 0.50710  0.83738  0.75670  Biso   1.000  C
  C42      1.0000 0.50460  0.88816  0.76910  Biso   1.000  C
  H43      1.0000 0.46140  0.90320  0.81100  Biso   1.000  H
  C43      1.0000 0.62490  0.89439  0.66010  Biso   1.000  C
  H44      1.0000 0.66440  0.91410  0.62300  Biso   1.000  H
  C44      1.0000 0.63240  0.84425  0.64940  Biso   1.000  C
  H45      1.0000 0.67680  0.83020  0.61050  Biso   1.000  H
  C45      1.0000 0.57290  0.81486  0.69720  Biso   1.000  C
  H46      1.0000 0.57630  0.78070  0.69010  Biso   1.000  H
  O5       1.0000 0.35304  0.86168  0.84060  Biso   1.000  O
  C46      1.0000 0.37620  0.81908  0.84320  Biso   1.000  C
  C47      1.0000 0.32400  0.77642  0.87890  Biso   1.000  C
  H47      1.0000 0.35300  0.74900  0.93590  Biso   1.000  H
  H48      1.0000 0.28690  0.78630  0.96820  Biso   1.000  H
  C48      1.0000 0.28380  0.76079  0.68550  Biso   1.000  C
  C49      1.0000 0.31760  0.72776  0.56440  Biso   1.000  C
  H49      1.0000 0.36330  0.71300  0.60650  Biso   1.000  H
  C50      1.0000 0.21590  0.78348  0.61870  Biso   1.000  C
  H50      1.0000 0.19300  0.80610  0.69680  Biso   1.000  H
  H51      1.0000 0.20770  0.47140  0.20230  Biso   1.000  H
  N11      1.0000 0.06286  0.41627  0.72210  Biso   1.000  N
  N12      1.0000 0.94775  0.30609  0.80530  Biso   1.000  N
  H52      1.0000 0.95810  0.27510  0.81180  Biso   1.000  H
  C51      1.0000 0.00710  0.33738  0.75670  Biso   1.000  C
  C52      1.0000 0.00460  0.38816  0.76910  Biso   1.000  C
  H53      1.0000 0.96140  0.40320  0.81100  Biso   1.000  H
  C53      1.0000 0.12490  0.39439  0.66010  Biso   1.000  C
  H54      1.0000 0.16440  0.41410  0.62300  Biso   1.000  H
  C54      1.0000 0.13240  0.34425  0.64940  Biso   1.000  C
  H55      1.0000 0.17680  0.33020  0.61050  Biso   1.000  H
  C55      1.0000 0.07290  0.31486  0.69720  Biso   1.000  C
  H56      1.0000 0.07630  0.28070  0.69010  Biso   1.000  H
  O6       1.0000 0.85304  0.36168  0.84060  Biso   1.000  O
  C56      1.0000 0.87620  0.31908  0.84320  Biso   1.000  C
  C57      1.0000 0.82400  0.27642  0.87890  Biso   1.000  C
  H57      1.0000 0.85300  0.24900  0.93590  Biso   1.000  H
  H58      1.0000 0.78690  0.28630  0.96820  Biso   1.000  H
  C58      1.0000 0.78380  0.26079  0.68550  Biso   1.000  C
  C59      1.0000 0.81760  0.22776  0.56440  Biso   1.000  C
  H59      1.0000 0.86330  0.21300  0.60650  Biso   1.000  H
  C60      1.0000 0.71590  0.28348  0.61870  Biso   1.000  C
  H60      1.0000 0.69300  0.30610  0.69680  Biso   1.000  H
  H61      1.0000 0.29230  0.97140  0.79770  Biso   1.000  H
  N13      1.0000 0.43714  0.91627  0.27790  Biso   1.000  N
  N14      1.0000 0.55225  0.80609  0.19470  Biso   1.000  N
  H62      1.0000 0.54190  0.77510  0.18820  Biso   1.000  H
  C61      1.0000 0.49290  0.83738  0.24330  Biso   1.000  C
  C62      1.0000 0.49540  0.88816  0.23090  Biso   1.000  C
  H63      1.0000 0.53860  0.90320  0.18900  Biso   1.000  H
  C63      1.0000 0.37510  0.89439  0.33990  Biso   1.000  C
  H64      1.0000 0.33560  0.91410  0.37700  Biso   1.000  H
  C64      1.0000 0.36760  0.84425  0.35060  Biso   1.000  C
  H65      1.0000 0.32320  0.83020  0.38950  Biso   1.000  H
  C65      1.0000 0.42710  0.81486  0.30280  Biso   1.000  C
  H66      1.0000 0.42370  0.78070  0.30990  Biso   1.000  H
  O7       1.0000 0.64696  0.86168  0.15940  Biso   1.000  O
  C66      1.0000 0.62380  0.81908  0.15680  Biso   1.000  C
  C67      1.0000 0.67600  0.77642  0.12110  Biso   1.000  C
  H67      1.0000 0.64700  0.74900  0.06410  Biso   1.000  H
  H68      1.0000 0.71310  0.78630  0.03180  Biso   1.000  H
  C68      1.0000 0.71620  0.76079  0.31450  Biso   1.000  C
  C69      1.0000 0.68240  0.72776  0.43560  Biso   1.000  C
  H69      1.0000 0.63670  0.71300  0.39350  Biso   1.000  H
  C70      1.0000 0.78410  0.78348  0.38130  Biso   1.000  C
  H70      1.0000 0.80700  0.80610  0.30320  Biso   1.000  H
  H71      1.0000 0.79230  0.47140  0.79770  Biso   1.000  H
  N15      1.0000 0.93714  0.41627  0.27790  Biso   1.000  N
  N16      1.0000 0.05225  0.30609  0.19470  Biso   1.000  N
  H72      1.0000 0.04190  0.27510  0.18820  Biso   1.000  H
  C71      1.0000 0.99290  0.33738  0.24330  Biso   1.000  C
  C72      1.0000 0.99540  0.38816  0.23090  Biso   1.000  C
  H73      1.0000 0.03860  0.40320  0.18900  Biso   1.000  H
  C73      1.0000 0.87510  0.39439  0.33990  Biso   1.000  C
  H74      1.0000 0.83560  0.41410  0.37700  Biso   1.000  H
  C74      1.0000 0.86760  0.34425  0.35060  Biso   1.000  C
  H75      1.0000 0.82320  0.33020  0.38950  Biso   1.000  H
  C75      1.0000 0.92710  0.31486  0.30280  Biso   1.000  C
  H76      1.0000 0.92370  0.28070  0.30990  Biso   1.000  H
  O8       1.0000 0.14696  0.36168  0.15940  Biso   1.000  O
  C76      1.0000 0.12380  0.31908  0.15680  Biso   1.000  C
  C77      1.0000 0.17600  0.27642  0.12110  Biso   1.000  C
  H77      1.0000 0.14700  0.24900  0.06410  Biso   1.000  H
  H78      1.0000 0.21310  0.28630  0.03180  Biso   1.000  H
  C78      1.0000 0.21620  0.26079  0.31450  Biso   1.000  C
  C79      1.0000 0.18240  0.22776  0.43560  Biso   1.000  C
  H79      1.0000 0.13670  0.21300  0.39350  Biso   1.000  H
  C80      1.0000 0.28410  0.28348  0.38130  Biso   1.000  C
  H80      1.0000 0.30700  0.30610  0.30320  Biso   1.000  H
  Cd1      1.0000 0.44310  0.00000  0.24340  Biso   1.000  Cd
  O9       1.0000 0.30510  0.00000  0.21020  Biso   1.000  O
  O10      1.0000 0.43270  0.00000  0.90020  Biso   1.000  O
  O11      1.0000 0.42790  0.00000  0.58640  Biso   1.000  O
  C81      1.0000 0.30940  0.00000  0.73200  Biso   1.000  C
  H81      1.0000 0.28940  0.00000  0.59900  Biso   1.000  H
  C82      1.0000 0.39430  0.00000  0.74000  Biso   1.000  C
  Cd2      1.0000 0.94310  0.50000  0.24340  Biso   1.000  Cd
  O12      1.0000 0.80510  0.50000  0.21020  Biso   1.000  O
  O13      1.0000 0.93270  0.50000  0.90020  Biso   1.000  O
  O14      1.0000 0.92790  0.50000  0.58640  Biso   1.000  O
  C83      1.0000 0.80940  0.50000  0.73200  Biso   1.000  C
  H82      1.0000 0.78940  0.50000  0.59900  Biso   1.000  H
  C84      1.0000 0.89430  0.50000  0.74000  Biso   1.000  C
  Cd3      1.0000 0.55690  0.00000  0.75660  Biso   1.000  Cd
  O15      1.0000 0.69490  0.00000  0.78980  Biso   1.000  O
  O16      1.0000 0.56730  0.00000  0.09980  Biso   1.000  O
  O17      1.0000 0.57210  0.00000  0.41360  Biso   1.000  O
  C85      1.0000 0.69060  0.00000  0.26800  Biso   1.000  C
  H83      1.0000 0.71060  0.00000  0.40100  Biso   1.000  H
  C86      1.0000 0.60570  0.00000  0.26000  Biso   1.000  C
  Cd4      1.0000 0.05690  0.50000  0.75660  Biso   1.000  Cd
  O18      1.0000 0.19490  0.50000  0.78980  Biso   1.000  O
  O19      1.0000 0.06730  0.50000  0.09980  Biso   1.000  O
  O20      1.0000 0.07210  0.50000  0.41360  Biso   1.000  O
  C87      1.0000 0.19060  0.50000  0.26800  Biso   1.000  C
  H84      1.0000 0.21060  0.50000  0.40100  Biso   1.000  H
  C88      1.0000 0.10570  0.50000  0.26000  Biso   1.000  C
