data_image0
_cell_length_a       6.6118
_cell_length_b       12.4325
_cell_length_c       8.8075
_cell_angle_alpha    90
_cell_angle_beta     107.723
_cell_angle_gamma    90

_symmetry_space_group_name_H-M    "P 1"
_symmetry_int_tables_number       1

loop_
  _symmetry_equiv_pos_as_xyz
  'x, y, z'

loop_
  _atom_site_label
  _atom_site_occupancy
  _atom_site_fract_x
  _atom_site_fract_y
  _atom_site_fract_z
  _atom_site_thermal_displace_type
  _atom_site_B_iso_or_equiv
  _atom_site_type_symbol
  F1       1.0000 0.21830  0.38055  0.54250  Biso   1.000  F
  N1       1.0000 0.79720  0.12500  0.85890  Biso   1.000  N
  N2       1.0000 0.58900  0.12120  0.85010  Biso   1.000  N
  N3       1.0000 0.48120  0.19270  0.75060  Biso   1.000  N
  N4       1.0000 0.61620  0.24710  0.68920  Biso   1.000  N
  C1       1.0000 0.80820  0.20500  0.75930  Biso   1.000  C
  N5       1.0000 0.98970  0.23600  0.73060  Biso   1.000  N
  H1       1.0000 0.98650  0.28630  0.66290  Biso   1.000  H
  H2       1.0000 0.10800  0.20540  0.78020  Biso   1.000  H
  F2       1.0000 0.78170  0.38055  0.45750  Biso   1.000  F
  N6       1.0000 0.20280  0.12500  0.14110  Biso   1.000  N
  N7       1.0000 0.41100  0.12120  0.14990  Biso   1.000  N
  N8       1.0000 0.51880  0.19270  0.24940  Biso   1.000  N
  N9       1.0000 0.38380  0.24710  0.31080  Biso   1.000  N
  C2       1.0000 0.19180  0.20500  0.24070  Biso   1.000  C
  N10      1.0000 0.01030  0.23600  0.26940  Biso   1.000  N
  H3       1.0000 0.01350  0.28630  0.33710  Biso   1.000  H
  H4       1.0000 0.89200  0.20540  0.21980  Biso   1.000  H
  F3       1.0000 0.78170  0.61945  0.45750  Biso   1.000  F
  N11      1.0000 0.20280  0.87500  0.14110  Biso   1.000  N
  N12      1.0000 0.41100  0.87880  0.14990  Biso   1.000  N
  N13      1.0000 0.51880  0.80730  0.24940  Biso   1.000  N
  N14      1.0000 0.38380  0.75290  0.31080  Biso   1.000  N
  C3       1.0000 0.19180  0.79500  0.24070  Biso   1.000  C
  N15      1.0000 0.01030  0.76400  0.26940  Biso   1.000  N
  H5       1.0000 0.01350  0.71370  0.33710  Biso   1.000  H
  H6       1.0000 0.89200  0.79460  0.21980  Biso   1.000  H
  F4       1.0000 0.21830  0.61945  0.54250  Biso   1.000  F
  N16      1.0000 0.79720  0.87500  0.85890  Biso   1.000  N
  N17      1.0000 0.58900  0.87880  0.85010  Biso   1.000  N
  N18      1.0000 0.48120  0.80730  0.75060  Biso   1.000  N
  N19      1.0000 0.61620  0.75290  0.68920  Biso   1.000  N
  C4       1.0000 0.80820  0.79500  0.75930  Biso   1.000  C
  N20      1.0000 0.98970  0.76400  0.73060  Biso   1.000  N
  H7       1.0000 0.98650  0.71370  0.66290  Biso   1.000  H
  H8       1.0000 0.10800  0.79460  0.78020  Biso   1.000  H
  Fe1      1.0000 0.50000  0.00000  0.00000  Biso   1.000  Fe
  Fe2      1.0000 0.00000  0.00000  0.00000  Biso   1.000  Fe
  Fe3      1.0000 0.50000  0.36653  0.50000  Biso   1.000  Fe
  Fe4      1.0000 0.50000  0.63347  0.50000  Biso   1.000  Fe
  Fe5      1.0000 0.00000  0.50000  0.50000  Biso   1.000  Fe
  F5       1.0000 0.80420  0.00000  0.13880  Biso   1.000  F
  F6       1.0000 0.19580  0.00000  0.86120  Biso   1.000  F
  O1       1.0000 0.60610  0.50000  0.66600  Biso   1.000  O
  O2       1.0000 0.99650  0.50000  0.25770  Biso   1.000  O
  C5       1.0000 0.17600  0.50000  0.22900  Biso   1.000  C
  O3       1.0000 0.39390  0.50000  0.33400  Biso   1.000  O
  O4       1.0000 0.00350  0.50000  0.74230  Biso   1.000  O
  C6       1.0000 0.82400  0.50000  0.77100  Biso   1.000  C
