data_image0
_cell_length_a       22.807
_cell_length_b       25.243
_cell_length_c       16.204
_cell_angle_alpha    90
_cell_angle_beta     133.809
_cell_angle_gamma    90

_symmetry_space_group_name_H-M    "P 1"
_symmetry_int_tables_number       1

loop_
  _symmetry_equiv_pos_as_xyz
  'x, y, z'

loop_
  _atom_site_label
  _atom_site_occupancy
  _atom_site_fract_x
  _atom_site_fract_y
  _atom_site_fract_z
  _atom_site_thermal_displace_type
  _atom_site_B_iso_or_equiv
  _atom_site_type_symbol
  C1       1.0000 0.27803  0.01213  0.75320  Biso   1.000  C
  C2       1.0000 0.92287  0.94885  0.59130  Biso   1.000  C
  C3       1.0000 0.92043  0.09462  0.60000  Biso   1.000  C
  C4       1.0000 0.20648  0.98420  0.67040  Biso   1.000  C
  H1       1.0000 0.19980  0.96350  0.61700  Biso   1.000  H
  C5       1.0000 0.14584  0.98780  0.66900  Biso   1.000  C
  H2       1.0000 0.09760  0.96970  0.61210  Biso   1.000  H
  C6       1.0000 0.87290  0.90744  0.49850  Biso   1.000  C
  C7       1.0000 0.87573  0.14116  0.52050  Biso   1.000  C
  C8       1.0000 0.22135  0.04230  0.82520  Biso   1.000  C
  H3       1.0000 0.22680  0.06180  0.87890  Biso   1.000  H
  C9       1.0000 0.89825  0.88712  0.44730  Biso   1.000  C
  H4       1.0000 0.94610  0.89960  0.47020  Biso   1.000  H
  C10      1.0000 0.79960  0.88983  0.46000  Biso   1.000  C
  H5       1.0000 0.78090  0.90400  0.49110  Biso   1.000  H
  C11      1.0000 0.85320  0.84853  0.36250  Biso   1.000  C
  H6       1.0000 0.87060  0.83500  0.32920  Biso   1.000  H
  C12      1.0000 0.28499  0.04195  0.83210  Biso   1.000  C
  H7       1.0000 0.33190  0.06130  0.88850  Biso   1.000  H
  C13      1.0000 0.79240  0.22683  0.37220  Biso   1.000  C
  C14      1.0000 0.80920  0.16207  0.49350  Biso   1.000  C
  H8       1.0000 0.79090  0.14730  0.52480  Biso   1.000  H
  C15      1.0000 0.78190  0.83070  0.32880  Biso   1.000  C
  C16      1.0000 0.34750  0.98851  0.69030  Biso   1.000  C
  C17      1.0000 0.75460  0.85166  0.37630  Biso   1.000  C
  H9       1.0000 0.70590  0.83990  0.35170  Biso   1.000  H
  C18      1.0000 0.89950  0.16334  0.46990  Biso   1.000  C
  H10      1.0000 0.94370  0.14920  0.48480  Biso   1.000  H
  C19      1.0000 0.76820  0.20495  0.42020  Biso   1.000  C
  H11      1.0000 0.72340  0.21880  0.40400  Biso   1.000  H
  C20      1.0000 0.42800  0.99421  0.72470  Biso   1.000  C
  C21      1.0000 0.50100  0.99490  0.83550  Biso   1.000  C
  H12      1.0000 0.50270  0.99580  0.89450  Biso   1.000  H
  C22      1.0000 0.85900  0.20593  0.39780  Biso   1.000  C
  H13      1.0000 0.87680  0.22080  0.36580  Biso   1.000  H
  C23      1.0000 0.42710  0.99430  0.63920  Biso   1.000  C
  H14      1.0000 0.37760  0.99390  0.56320  Biso   1.000  H
  H15      1.0000 0.38300  0.03020  0.81200  Biso   1.000  H
  N1       1.0000 0.74264  0.27014  0.29300  Biso   1.000  N
  N2       1.0000 0.73022  0.78936  0.24420  Biso   1.000  N
  N3       1.0000 0.15186  0.01582  0.74458  Biso   1.000  N
  N4       1.0000 0.34371  0.01252  0.76210  Biso   1.000  N
  O1       1.0000 0.89721  0.96532  0.63410  Biso   1.000  O
  O2       1.0000 0.98757  0.96303  0.61974  Biso   1.000  O
  O3       1.0000 0.89714  0.07937  0.64722  Biso   1.000  O
  O4       1.0000 0.97719  0.07503  0.61434  Biso   1.000  O
  O5       1.0000 0.29202  0.96453  0.60480  Biso   1.000  O
  Zn1      1.0000 0.06011  0.01967  0.73900  Biso   1.000  Zn
  C24      1.0000 0.77803  0.51213  0.75320  Biso   1.000  C
  C25      1.0000 0.42287  0.44885  0.59130  Biso   1.000  C
  C26      1.0000 0.42043  0.59462  0.60000  Biso   1.000  C
  C27      1.0000 0.70648  0.48420  0.67040  Biso   1.000  C
  H16      1.0000 0.69980  0.46350  0.61700  Biso   1.000  H
  C28      1.0000 0.64584  0.48780  0.66900  Biso   1.000  C
  H17      1.0000 0.59760  0.46970  0.61210  Biso   1.000  H
  C29      1.0000 0.37290  0.40744  0.49850  Biso   1.000  C
  C30      1.0000 0.37573  0.64116  0.52050  Biso   1.000  C
  C31      1.0000 0.72135  0.54230  0.82520  Biso   1.000  C
  H18      1.0000 0.72680  0.56180  0.87890  Biso   1.000  H
  C32      1.0000 0.39825  0.38712  0.44730  Biso   1.000  C
  H19      1.0000 0.44610  0.39960  0.47020  Biso   1.000  H
  C33      1.0000 0.29960  0.38983  0.46000  Biso   1.000  C
  H20      1.0000 0.28090  0.40400  0.49110  Biso   1.000  H
  C34      1.0000 0.35320  0.34853  0.36250  Biso   1.000  C
  H21      1.0000 0.37060  0.33500  0.32920  Biso   1.000  H
  C35      1.0000 0.78499  0.54195  0.83210  Biso   1.000  C
  H22      1.0000 0.83190  0.56130  0.88850  Biso   1.000  H
  C36      1.0000 0.29240  0.72683  0.37220  Biso   1.000  C
  C37      1.0000 0.30920  0.66207  0.49350  Biso   1.000  C
  H23      1.0000 0.29090  0.64730  0.52480  Biso   1.000  H
  C38      1.0000 0.28190  0.33070  0.32880  Biso   1.000  C
  C39      1.0000 0.84750  0.48851  0.69030  Biso   1.000  C
  C40      1.0000 0.25460  0.35166  0.37630  Biso   1.000  C
  H24      1.0000 0.20590  0.33990  0.35170  Biso   1.000  H
  C41      1.0000 0.39950  0.66334  0.46990  Biso   1.000  C
  H25      1.0000 0.44370  0.64920  0.48480  Biso   1.000  H
  C42      1.0000 0.26820  0.70495  0.42020  Biso   1.000  C
  H26      1.0000 0.22340  0.71880  0.40400  Biso   1.000  H
  C43      1.0000 0.92800  0.49421  0.72470  Biso   1.000  C
  C44      1.0000 0.00100  0.49490  0.83550  Biso   1.000  C
  H27      1.0000 0.00270  0.49580  0.89450  Biso   1.000  H
  C45      1.0000 0.35900  0.70593  0.39780  Biso   1.000  C
  H28      1.0000 0.37680  0.72080  0.36580  Biso   1.000  H
  C46      1.0000 0.92710  0.49430  0.63920  Biso   1.000  C
  H29      1.0000 0.87760  0.49390  0.56320  Biso   1.000  H
  H30      1.0000 0.88300  0.53020  0.81200  Biso   1.000  H
  N5       1.0000 0.24264  0.77014  0.29300  Biso   1.000  N
  N6       1.0000 0.23022  0.28936  0.24420  Biso   1.000  N
  N7       1.0000 0.65186  0.51582  0.74458  Biso   1.000  N
  N8       1.0000 0.84371  0.51252  0.76210  Biso   1.000  N
  O6       1.0000 0.39721  0.46532  0.63410  Biso   1.000  O
  O7       1.0000 0.48757  0.46303  0.61974  Biso   1.000  O
  O8       1.0000 0.39714  0.57937  0.64722  Biso   1.000  O
  O9       1.0000 0.47719  0.57503  0.61434  Biso   1.000  O
  O10      1.0000 0.79202  0.46453  0.60480  Biso   1.000  O
  Zn2      1.0000 0.56011  0.51967  0.73900  Biso   1.000  Zn
  C47      1.0000 0.72197  0.01213  0.74680  Biso   1.000  C
  C48      1.0000 0.07713  0.94885  0.90870  Biso   1.000  C
  C49      1.0000 0.07957  0.09462  0.90000  Biso   1.000  C
  C50      1.0000 0.79352  0.98420  0.82960  Biso   1.000  C
  H31      1.0000 0.80020  0.96350  0.88300  Biso   1.000  H
  C51      1.0000 0.85416  0.98780  0.83100  Biso   1.000  C
  H32      1.0000 0.90240  0.96970  0.88790  Biso   1.000  H
  C52      1.0000 0.12710  0.90744  0.00150  Biso   1.000  C
  C53      1.0000 0.12427  0.14116  0.97950  Biso   1.000  C
  C54      1.0000 0.77865  0.04230  0.67480  Biso   1.000  C
  H33      1.0000 0.77320  0.06180  0.62110  Biso   1.000  H
  C55      1.0000 0.10175  0.88712  0.05270  Biso   1.000  C
  H34      1.0000 0.05390  0.89960  0.02980  Biso   1.000  H
  C56      1.0000 0.20040  0.88983  0.04000  Biso   1.000  C
  H35      1.0000 0.21910  0.90400  0.00890  Biso   1.000  H
  C57      1.0000 0.14680  0.84853  0.13750  Biso   1.000  C
  H36      1.0000 0.12940  0.83500  0.17080  Biso   1.000  H
  C58      1.0000 0.71501  0.04195  0.66790  Biso   1.000  C
  H37      1.0000 0.66810  0.06130  0.61150  Biso   1.000  H
  C59      1.0000 0.20760  0.22683  0.12780  Biso   1.000  C
  C60      1.0000 0.19080  0.16207  0.00650  Biso   1.000  C
  H38      1.0000 0.20910  0.14730  0.97520  Biso   1.000  H
  C61      1.0000 0.21810  0.83070  0.17120  Biso   1.000  C
  C62      1.0000 0.65250  0.98851  0.80970  Biso   1.000  C
  C63      1.0000 0.24540  0.85166  0.12370  Biso   1.000  C
  H39      1.0000 0.29410  0.83990  0.14830  Biso   1.000  H
  C64      1.0000 0.10050  0.16334  0.03010  Biso   1.000  C
  H40      1.0000 0.05630  0.14920  0.01520  Biso   1.000  H
  C65      1.0000 0.23180  0.20495  0.07980  Biso   1.000  C
  H41      1.0000 0.27660  0.21880  0.09600  Biso   1.000  H
  C66      1.0000 0.57200  0.99421  0.77530  Biso   1.000  C
  C67      1.0000 0.49900  0.99490  0.66450  Biso   1.000  C
  H42      1.0000 0.49730  0.99580  0.60550  Biso   1.000  H
  C68      1.0000 0.14100  0.20593  0.10220  Biso   1.000  C
  H43      1.0000 0.12320  0.22080  0.13420  Biso   1.000  H
  C69      1.0000 0.57290  0.99430  0.86080  Biso   1.000  C
  H44      1.0000 0.62240  0.99390  0.93680  Biso   1.000  H
  H45      1.0000 0.61700  0.03020  0.68800  Biso   1.000  H
  N9       1.0000 0.25736  0.27014  0.20700  Biso   1.000  N
  N10      1.0000 0.26978  0.78936  0.25580  Biso   1.000  N
  N11      1.0000 0.84814  0.01582  0.75542  Biso   1.000  N
  N12      1.0000 0.65629  0.01252  0.73790  Biso   1.000  N
  O11      1.0000 0.10279  0.96532  0.86590  Biso   1.000  O
  O12      1.0000 0.01243  0.96303  0.88026  Biso   1.000  O
  O13      1.0000 0.10286  0.07937  0.85278  Biso   1.000  O
  O14      1.0000 0.02281  0.07503  0.88566  Biso   1.000  O
  O15      1.0000 0.70798  0.96453  0.89520  Biso   1.000  O
  Zn3      1.0000 0.93989  0.01967  0.76100  Biso   1.000  Zn
  C70      1.0000 0.22197  0.51213  0.74680  Biso   1.000  C
  C71      1.0000 0.57713  0.44885  0.90870  Biso   1.000  C
  C72      1.0000 0.57957  0.59462  0.90000  Biso   1.000  C
  C73      1.0000 0.29352  0.48420  0.82960  Biso   1.000  C
  H46      1.0000 0.30020  0.46350  0.88300  Biso   1.000  H
  C74      1.0000 0.35416  0.48780  0.83100  Biso   1.000  C
  H47      1.0000 0.40240  0.46970  0.88790  Biso   1.000  H
  C75      1.0000 0.62710  0.40744  0.00150  Biso   1.000  C
  C76      1.0000 0.62427  0.64116  0.97950  Biso   1.000  C
  C77      1.0000 0.27865  0.54230  0.67480  Biso   1.000  C
  H48      1.0000 0.27320  0.56180  0.62110  Biso   1.000  H
  C78      1.0000 0.60175  0.38712  0.05270  Biso   1.000  C
  H49      1.0000 0.55390  0.39960  0.02980  Biso   1.000  H
  C79      1.0000 0.70040  0.38983  0.04000  Biso   1.000  C
  H50      1.0000 0.71910  0.40400  0.00890  Biso   1.000  H
  C80      1.0000 0.64680  0.34853  0.13750  Biso   1.000  C
  H51      1.0000 0.62940  0.33500  0.17080  Biso   1.000  H
  C81      1.0000 0.21501  0.54195  0.66790  Biso   1.000  C
  H52      1.0000 0.16810  0.56130  0.61150  Biso   1.000  H
  C82      1.0000 0.70760  0.72683  0.12780  Biso   1.000  C
  C83      1.0000 0.69080  0.66207  0.00650  Biso   1.000  C
  H53      1.0000 0.70910  0.64730  0.97520  Biso   1.000  H
  C84      1.0000 0.71810  0.33070  0.17120  Biso   1.000  C
  C85      1.0000 0.15250  0.48851  0.80970  Biso   1.000  C
  C86      1.0000 0.74540  0.35166  0.12370  Biso   1.000  C
  H54      1.0000 0.79410  0.33990  0.14830  Biso   1.000  H
  C87      1.0000 0.60050  0.66334  0.03010  Biso   1.000  C
  H55      1.0000 0.55630  0.64920  0.01520  Biso   1.000  H
  C88      1.0000 0.73180  0.70495  0.07980  Biso   1.000  C
  H56      1.0000 0.77660  0.71880  0.09600  Biso   1.000  H
  C89      1.0000 0.07200  0.49421  0.77530  Biso   1.000  C
  C90      1.0000 0.99900  0.49490  0.66450  Biso   1.000  C
  H57      1.0000 0.99730  0.49580  0.60550  Biso   1.000  H
  C91      1.0000 0.64100  0.70593  0.10220  Biso   1.000  C
  H58      1.0000 0.62320  0.72080  0.13420  Biso   1.000  H
  C92      1.0000 0.07290  0.49430  0.86080  Biso   1.000  C
  H59      1.0000 0.12240  0.49390  0.93680  Biso   1.000  H
  H60      1.0000 0.11700  0.53020  0.68800  Biso   1.000  H
  N13      1.0000 0.75736  0.77014  0.20700  Biso   1.000  N
  N14      1.0000 0.76978  0.28936  0.25580  Biso   1.000  N
  N15      1.0000 0.34814  0.51582  0.75542  Biso   1.000  N
  N16      1.0000 0.15629  0.51252  0.73790  Biso   1.000  N
  O16      1.0000 0.60279  0.46532  0.86590  Biso   1.000  O
  O17      1.0000 0.51243  0.46303  0.88026  Biso   1.000  O
  O18      1.0000 0.60286  0.57937  0.85278  Biso   1.000  O
  O19      1.0000 0.52281  0.57503  0.88566  Biso   1.000  O
  O20      1.0000 0.20798  0.46453  0.89520  Biso   1.000  O
  Zn4      1.0000 0.43989  0.51967  0.76100  Biso   1.000  Zn
  C93      1.0000 0.72197  0.98787  0.24680  Biso   1.000  C
  C94      1.0000 0.07713  0.05115  0.40870  Biso   1.000  C
  C95      1.0000 0.07957  0.90538  0.40000  Biso   1.000  C
  C96      1.0000 0.79352  0.01580  0.32960  Biso   1.000  C
  H61      1.0000 0.80020  0.03650  0.38300  Biso   1.000  H
  C97      1.0000 0.85416  0.01220  0.33100  Biso   1.000  C
  H62      1.0000 0.90240  0.03030  0.38790  Biso   1.000  H
  C98      1.0000 0.12710  0.09256  0.50150  Biso   1.000  C
  C99      1.0000 0.12427  0.85884  0.47950  Biso   1.000  C
  C100     1.0000 0.77865  0.95770  0.17480  Biso   1.000  C
  H63      1.0000 0.77320  0.93820  0.12110  Biso   1.000  H
  C101     1.0000 0.10175  0.11288  0.55270  Biso   1.000  C
  H64      1.0000 0.05390  0.10040  0.52980  Biso   1.000  H
  C102     1.0000 0.20040  0.11017  0.54000  Biso   1.000  C
  H65      1.0000 0.21910  0.09600  0.50890  Biso   1.000  H
  C103     1.0000 0.14680  0.15147  0.63750  Biso   1.000  C
  H66      1.0000 0.12940  0.16500  0.67080  Biso   1.000  H
  C104     1.0000 0.71501  0.95805  0.16790  Biso   1.000  C
  H67      1.0000 0.66810  0.93870  0.11150  Biso   1.000  H
  C105     1.0000 0.20760  0.77317  0.62780  Biso   1.000  C
  C106     1.0000 0.19080  0.83793  0.50650  Biso   1.000  C
  H68      1.0000 0.20910  0.85270  0.47520  Biso   1.000  H
  C107     1.0000 0.21810  0.16930  0.67120  Biso   1.000  C
  C108     1.0000 0.65250  0.01149  0.30970  Biso   1.000  C
  C109     1.0000 0.24540  0.14834  0.62370  Biso   1.000  C
  H69      1.0000 0.29410  0.16010  0.64830  Biso   1.000  H
  C110     1.0000 0.10050  0.83666  0.53010  Biso   1.000  C
  H70      1.0000 0.05630  0.85080  0.51520  Biso   1.000  H
  C111     1.0000 0.23180  0.79505  0.57980  Biso   1.000  C
  H71      1.0000 0.27660  0.78120  0.59600  Biso   1.000  H
  C112     1.0000 0.57200  0.00579  0.27530  Biso   1.000  C
  C113     1.0000 0.49900  0.00510  0.16450  Biso   1.000  C
  H72      1.0000 0.49730  0.00420  0.10550  Biso   1.000  H
  C114     1.0000 0.14100  0.79407  0.60220  Biso   1.000  C
  H73      1.0000 0.12320  0.77920  0.63420  Biso   1.000  H
  C115     1.0000 0.57290  0.00570  0.36080  Biso   1.000  C
  H74      1.0000 0.62240  0.00610  0.43680  Biso   1.000  H
  H75      1.0000 0.61700  0.96980  0.18800  Biso   1.000  H
  N17      1.0000 0.25736  0.72986  0.70700  Biso   1.000  N
  N18      1.0000 0.26978  0.21064  0.75580  Biso   1.000  N
  N19      1.0000 0.84814  0.98418  0.25542  Biso   1.000  N
  N20      1.0000 0.65629  0.98748  0.23790  Biso   1.000  N
  O21      1.0000 0.10279  0.03468  0.36590  Biso   1.000  O
  O22      1.0000 0.01243  0.03697  0.38026  Biso   1.000  O
  O23      1.0000 0.10286  0.92063  0.35278  Biso   1.000  O
  O24      1.0000 0.02281  0.92497  0.38566  Biso   1.000  O
  O25      1.0000 0.70798  0.03547  0.39520  Biso   1.000  O
  Zn5      1.0000 0.93989  0.98033  0.26100  Biso   1.000  Zn
  C116     1.0000 0.22197  0.48787  0.24680  Biso   1.000  C
  C117     1.0000 0.57713  0.55115  0.40870  Biso   1.000  C
  C118     1.0000 0.57957  0.40538  0.40000  Biso   1.000  C
  C119     1.0000 0.29352  0.51580  0.32960  Biso   1.000  C
  H76      1.0000 0.30020  0.53650  0.38300  Biso   1.000  H
  C120     1.0000 0.35416  0.51220  0.33100  Biso   1.000  C
  H77      1.0000 0.40240  0.53030  0.38790  Biso   1.000  H
  C121     1.0000 0.62710  0.59256  0.50150  Biso   1.000  C
  C122     1.0000 0.62427  0.35884  0.47950  Biso   1.000  C
  C123     1.0000 0.27865  0.45770  0.17480  Biso   1.000  C
  H78      1.0000 0.27320  0.43820  0.12110  Biso   1.000  H
  C124     1.0000 0.60175  0.61288  0.55270  Biso   1.000  C
  H79      1.0000 0.55390  0.60040  0.52980  Biso   1.000  H
  C125     1.0000 0.70040  0.61017  0.54000  Biso   1.000  C
  H80      1.0000 0.71910  0.59600  0.50890  Biso   1.000  H
  C126     1.0000 0.64680  0.65147  0.63750  Biso   1.000  C
  H81      1.0000 0.62940  0.66500  0.67080  Biso   1.000  H
  C127     1.0000 0.21501  0.45805  0.16790  Biso   1.000  C
  H82      1.0000 0.16810  0.43870  0.11150  Biso   1.000  H
  C128     1.0000 0.70760  0.27317  0.62780  Biso   1.000  C
  C129     1.0000 0.69080  0.33793  0.50650  Biso   1.000  C
  H83      1.0000 0.70910  0.35270  0.47520  Biso   1.000  H
  C130     1.0000 0.71810  0.66930  0.67120  Biso   1.000  C
  C131     1.0000 0.15250  0.51149  0.30970  Biso   1.000  C
  C132     1.0000 0.74540  0.64834  0.62370  Biso   1.000  C
  H84      1.0000 0.79410  0.66010  0.64830  Biso   1.000  H
  C133     1.0000 0.60050  0.33666  0.53010  Biso   1.000  C
  H85      1.0000 0.55630  0.35080  0.51520  Biso   1.000  H
  C134     1.0000 0.73180  0.29505  0.57980  Biso   1.000  C
  H86      1.0000 0.77660  0.28120  0.59600  Biso   1.000  H
  C135     1.0000 0.07200  0.50579  0.27530  Biso   1.000  C
  C136     1.0000 0.99900  0.50510  0.16450  Biso   1.000  C
  H87      1.0000 0.99730  0.50420  0.10550  Biso   1.000  H
  C137     1.0000 0.64100  0.29407  0.60220  Biso   1.000  C
  H88      1.0000 0.62320  0.27920  0.63420  Biso   1.000  H
  C138     1.0000 0.07290  0.50570  0.36080  Biso   1.000  C
  H89      1.0000 0.12240  0.50610  0.43680  Biso   1.000  H
  H90      1.0000 0.11700  0.46980  0.18800  Biso   1.000  H
  N21      1.0000 0.75736  0.22986  0.70700  Biso   1.000  N
  N22      1.0000 0.76978  0.71064  0.75580  Biso   1.000  N
  N23      1.0000 0.34814  0.48418  0.25542  Biso   1.000  N
  N24      1.0000 0.15629  0.48748  0.23790  Biso   1.000  N
  O26      1.0000 0.60279  0.53468  0.36590  Biso   1.000  O
  O27      1.0000 0.51243  0.53697  0.38026  Biso   1.000  O
  O28      1.0000 0.60286  0.42063  0.35278  Biso   1.000  O
  O29      1.0000 0.52281  0.42497  0.38566  Biso   1.000  O
  O30      1.0000 0.20798  0.53547  0.39520  Biso   1.000  O
  Zn6      1.0000 0.43989  0.48033  0.26100  Biso   1.000  Zn
  C139     1.0000 0.27803  0.98787  0.25320  Biso   1.000  C
  C140     1.0000 0.92287  0.05115  0.09130  Biso   1.000  C
  C141     1.0000 0.92043  0.90538  0.10000  Biso   1.000  C
  C142     1.0000 0.20648  0.01580  0.17040  Biso   1.000  C
  H91      1.0000 0.19980  0.03650  0.11700  Biso   1.000  H
  C143     1.0000 0.14584  0.01220  0.16900  Biso   1.000  C
  H92      1.0000 0.09760  0.03030  0.11210  Biso   1.000  H
  C144     1.0000 0.87290  0.09256  0.99850  Biso   1.000  C
  C145     1.0000 0.87573  0.85884  0.02050  Biso   1.000  C
  C146     1.0000 0.22135  0.95770  0.32520  Biso   1.000  C
  H93      1.0000 0.22680  0.93820  0.37890  Biso   1.000  H
  C147     1.0000 0.89825  0.11288  0.94730  Biso   1.000  C
  H94      1.0000 0.94610  0.10040  0.97020  Biso   1.000  H
  C148     1.0000 0.79960  0.11017  0.96000  Biso   1.000  C
  H95      1.0000 0.78090  0.09600  0.99110  Biso   1.000  H
  C149     1.0000 0.85320  0.15147  0.86250  Biso   1.000  C
  H96      1.0000 0.87060  0.16500  0.82920  Biso   1.000  H
  C150     1.0000 0.28499  0.95805  0.33210  Biso   1.000  C
  H97      1.0000 0.33190  0.93870  0.38850  Biso   1.000  H
  C151     1.0000 0.79240  0.77317  0.87220  Biso   1.000  C
  C152     1.0000 0.80920  0.83793  0.99350  Biso   1.000  C
  H98      1.0000 0.79090  0.85270  0.02480  Biso   1.000  H
  C153     1.0000 0.78190  0.16930  0.82880  Biso   1.000  C
  C154     1.0000 0.34750  0.01149  0.19030  Biso   1.000  C
  C155     1.0000 0.75460  0.14834  0.87630  Biso   1.000  C
  H99      1.0000 0.70590  0.16010  0.85170  Biso   1.000  H
  C156     1.0000 0.89950  0.83666  0.96990  Biso   1.000  C
  H100     1.0000 0.94370  0.85080  0.98480  Biso   1.000  H
  C157     1.0000 0.76820  0.79505  0.92020  Biso   1.000  C
  H101     1.0000 0.72340  0.78120  0.90400  Biso   1.000  H
  C158     1.0000 0.42800  0.00579  0.22470  Biso   1.000  C
  C159     1.0000 0.50100  0.00510  0.33550  Biso   1.000  C
  H102     1.0000 0.50270  0.00420  0.39450  Biso   1.000  H
  C160     1.0000 0.85900  0.79407  0.89780  Biso   1.000  C
  H103     1.0000 0.87680  0.77920  0.86580  Biso   1.000  H
  C161     1.0000 0.42710  0.00570  0.13920  Biso   1.000  C
  H104     1.0000 0.37760  0.00610  0.06320  Biso   1.000  H
  H105     1.0000 0.38300  0.96980  0.31200  Biso   1.000  H
  N25      1.0000 0.74264  0.72986  0.79300  Biso   1.000  N
  N26      1.0000 0.73022  0.21064  0.74420  Biso   1.000  N
  N27      1.0000 0.15186  0.98418  0.24458  Biso   1.000  N
  N28      1.0000 0.34371  0.98748  0.26210  Biso   1.000  N
  O31      1.0000 0.89721  0.03468  0.13410  Biso   1.000  O
  O32      1.0000 0.98757  0.03697  0.11974  Biso   1.000  O
  O33      1.0000 0.89714  0.92063  0.14722  Biso   1.000  O
  O34      1.0000 0.97719  0.92497  0.11434  Biso   1.000  O
  O35      1.0000 0.29202  0.03547  0.10480  Biso   1.000  O
  Zn7      1.0000 0.06011  0.98033  0.23900  Biso   1.000  Zn
  C162     1.0000 0.77803  0.48787  0.25320  Biso   1.000  C
  C163     1.0000 0.42287  0.55115  0.09130  Biso   1.000  C
  C164     1.0000 0.42043  0.40538  0.10000  Biso   1.000  C
  C165     1.0000 0.70648  0.51580  0.17040  Biso   1.000  C
  H106     1.0000 0.69980  0.53650  0.11700  Biso   1.000  H
  C166     1.0000 0.64584  0.51220  0.16900  Biso   1.000  C
  H107     1.0000 0.59760  0.53030  0.11210  Biso   1.000  H
  C167     1.0000 0.37290  0.59256  0.99850  Biso   1.000  C
  C168     1.0000 0.37573  0.35884  0.02050  Biso   1.000  C
  C169     1.0000 0.72135  0.45770  0.32520  Biso   1.000  C
  H108     1.0000 0.72680  0.43820  0.37890  Biso   1.000  H
  C170     1.0000 0.39825  0.61288  0.94730  Biso   1.000  C
  H109     1.0000 0.44610  0.60040  0.97020  Biso   1.000  H
  C171     1.0000 0.29960  0.61017  0.96000  Biso   1.000  C
  H110     1.0000 0.28090  0.59600  0.99110  Biso   1.000  H
  C172     1.0000 0.35320  0.65147  0.86250  Biso   1.000  C
  H111     1.0000 0.37060  0.66500  0.82920  Biso   1.000  H
  C173     1.0000 0.78499  0.45805  0.33210  Biso   1.000  C
  H112     1.0000 0.83190  0.43870  0.38850  Biso   1.000  H
  C174     1.0000 0.29240  0.27317  0.87220  Biso   1.000  C
  C175     1.0000 0.30920  0.33793  0.99350  Biso   1.000  C
  H113     1.0000 0.29090  0.35270  0.02480  Biso   1.000  H
  C176     1.0000 0.28190  0.66930  0.82880  Biso   1.000  C
  C177     1.0000 0.84750  0.51149  0.19030  Biso   1.000  C
  C178     1.0000 0.25460  0.64834  0.87630  Biso   1.000  C
  H114     1.0000 0.20590  0.66010  0.85170  Biso   1.000  H
  C179     1.0000 0.39950  0.33666  0.96990  Biso   1.000  C
  H115     1.0000 0.44370  0.35080  0.98480  Biso   1.000  H
  C180     1.0000 0.26820  0.29505  0.92020  Biso   1.000  C
  H116     1.0000 0.22340  0.28120  0.90400  Biso   1.000  H
  C181     1.0000 0.92800  0.50579  0.22470  Biso   1.000  C
  C182     1.0000 0.00100  0.50510  0.33550  Biso   1.000  C
  H117     1.0000 0.00270  0.50420  0.39450  Biso   1.000  H
  C183     1.0000 0.35900  0.29407  0.89780  Biso   1.000  C
  H118     1.0000 0.37680  0.27920  0.86580  Biso   1.000  H
  C184     1.0000 0.92710  0.50570  0.13920  Biso   1.000  C
  H119     1.0000 0.87760  0.50610  0.06320  Biso   1.000  H
  H120     1.0000 0.88300  0.46980  0.31200  Biso   1.000  H
  N29      1.0000 0.24264  0.22986  0.79300  Biso   1.000  N
  N30      1.0000 0.23022  0.71064  0.74420  Biso   1.000  N
  N31      1.0000 0.65186  0.48418  0.24458  Biso   1.000  N
  N32      1.0000 0.84371  0.48748  0.26210  Biso   1.000  N
  O36      1.0000 0.39721  0.53468  0.13410  Biso   1.000  O
  O37      1.0000 0.48757  0.53697  0.11974  Biso   1.000  O
  O38      1.0000 0.39714  0.42063  0.14722  Biso   1.000  O
  O39      1.0000 0.47719  0.42497  0.11434  Biso   1.000  O
  O40      1.0000 0.79202  0.53547  0.10480  Biso   1.000  O
  Zn8      1.0000 0.56011  0.48033  0.23900  Biso   1.000  Zn
