data_image0
_cell_length_a       8.517
_cell_length_b       10.3341
_cell_length_c       18.2392
_cell_angle_alpha    104.782
_cell_angle_beta     91.187
_cell_angle_gamma    110.479

_symmetry_space_group_name_H-M    "P 1"
_symmetry_int_tables_number       1

loop_
  _symmetry_equiv_pos_as_xyz
  'x, y, z'

loop_
  _atom_site_label
  _atom_site_occupancy
  _atom_site_fract_x
  _atom_site_fract_y
  _atom_site_fract_z
  _atom_site_thermal_displace_type
  _atom_site_B_iso_or_equiv
  _atom_site_type_symbol
  Zn1      1.0000 0.67065  0.81002  0.21816  Biso   1.000  Zn
  Zn2      1.0000 0.96237  0.13835  0.30935  Biso   1.000  Zn
  O1       1.0000 0.52460  0.60787  0.17217  Biso   1.000  O
  O2       1.0000 0.09590  0.34770  0.35855  Biso   1.000  O
  O3       1.0000 0.85910  0.42920  0.42017  Biso   1.000  O
  H1       1.0000 0.94870  0.41950  0.40640  Biso   1.000  H
  O4       1.0000 0.64500  0.86010  0.32596  Biso   1.000  O
  O5       1.0000 0.74350  0.14270  0.26767  Biso   1.000  O
  O6       1.0000 0.74060  0.60590  0.24138  Biso   1.000  O
  O7       1.0000 0.86570  0.85420  0.16052  Biso   1.000  O
  O8       1.0000 0.23940  0.20713  0.35696  Biso   1.000  O
  O9       1.0000 0.56660  0.93720  0.18729  Biso   1.000  O
  O10      1.0000 0.86530  0.05430  0.39052  Biso   1.000  O
  O11      1.0000 0.03140  0.08560  0.20708  Biso   1.000  O
  O12      1.0000 0.99050  0.65330  0.41258  Biso   1.000  O
  C1       1.0000 0.60300  0.54180  0.20051  Biso   1.000  C
  C2       1.0000 0.52070  0.38080  0.18078  Biso   1.000  C
  C3       1.0000 0.23600  0.33000  0.37129  Biso   1.000  C
  C4       1.0000 0.52800  0.72020  0.44790  Biso   1.000  C
  C5       1.0000 0.71810  0.96320  0.38374  Biso   1.000  C
  C6       1.0000 0.52840  0.15400  0.18954  Biso   1.000  C
  C7       1.0000 0.59950  0.30350  0.20978  Biso   1.000  C
  H2       1.0000 0.70190  0.35300  0.24340  Biso   1.000  H
  C8       1.0000 0.86270  0.55730  0.41848  Biso   1.000  C
  C9       1.0000 0.51340  0.86350  0.47338  Biso   1.000  C
  C10      1.0000 0.37680  0.08160  0.14129  Biso   1.000  C
  H3       1.0000 0.32800  0.97950  0.12790  Biso   1.000  H
  C11      1.0000 0.14010  0.07930  0.05699  Biso   1.000  C
  C12      1.0000 0.14550  0.09340  0.98293  Biso   1.000  C
  H4       1.0000 0.24530  0.15800  0.97090  Biso   1.000  H
  C13      1.0000 0.38240  0.59700  0.42513  Biso   1.000  C
  H5       1.0000 0.27490  0.60560  0.42640  Biso   1.000  H
  C14      1.0000 0.61970  0.07150  0.21734  Biso   1.000  C
  C15      1.0000 0.54840  0.44690  0.40019  Biso   1.000  C
  H6       1.0000 0.55540  0.35420  0.38500  Biso   1.000  H
  C16      1.0000 0.96220  0.97330  0.15374  Biso   1.000  C
  C17      1.0000 0.36930  0.30780  0.13237  Biso   1.000  C
  H7       1.0000 0.31560  0.36060  0.11270  Biso   1.000  H
  C18      1.0000 0.61410  0.98100  0.44853  Biso   1.000  C
  C19      1.0000 0.68500  0.70590  0.44576  Biso   1.000  C
  H8       1.0000 0.78560  0.78910  0.46030  Biso   1.000  H
  C20      1.0000 0.39210  0.46100  0.40043  Biso   1.000  C
  C21      1.0000 0.99120  0.98440  0.07395  Biso   1.000  C
  C22      1.0000 0.29610  0.15800  0.11255  Biso   1.000  C
  C23      1.0000 0.69470  0.56990  0.42237  Biso   1.000  C
  C24      1.0000 0.39910  0.88470  0.52445  Biso   1.000  C
  H9       1.0000 0.32900  0.80620  0.54110  Biso   1.000  H
  Zn3      1.0000 0.32935  0.18998  0.78184  Biso   1.000  Zn
  Zn4      1.0000 0.03763  0.86165  0.69065  Biso   1.000  Zn
  O13      1.0000 0.47540  0.39213  0.82783  Biso   1.000  O
  O14      1.0000 0.90410  0.65230  0.64145  Biso   1.000  O
  O15      1.0000 0.14090  0.57080  0.57983  Biso   1.000  O
  H10      1.0000 0.05130  0.58050  0.59360  Biso   1.000  H
  O16      1.0000 0.35500  0.13990  0.67404  Biso   1.000  O
  O17      1.0000 0.25650  0.85730  0.73233  Biso   1.000  O
  O18      1.0000 0.25940  0.39410  0.75862  Biso   1.000  O
  O19      1.0000 0.13430  0.14580  0.83948  Biso   1.000  O
  O20      1.0000 0.76060  0.79287  0.64304  Biso   1.000  O
  O21      1.0000 0.43340  0.06280  0.81271  Biso   1.000  O
  O22      1.0000 0.13470  0.94570  0.60948  Biso   1.000  O
  O23      1.0000 0.96860  0.91440  0.79292  Biso   1.000  O
  O24      1.0000 0.00950  0.34670  0.58742  Biso   1.000  O
  C25      1.0000 0.39700  0.45820  0.79949  Biso   1.000  C
  C26      1.0000 0.47930  0.61920  0.81922  Biso   1.000  C
  C27      1.0000 0.76400  0.67000  0.62871  Biso   1.000  C
  C28      1.0000 0.47200  0.27980  0.55210  Biso   1.000  C
  C29      1.0000 0.28190  0.03680  0.61626  Biso   1.000  C
  C30      1.0000 0.47160  0.84600  0.81046  Biso   1.000  C
  C31      1.0000 0.40050  0.69650  0.79022  Biso   1.000  C
  H11      1.0000 0.29810  0.64700  0.75660  Biso   1.000  H
  C32      1.0000 0.13730  0.44270  0.58152  Biso   1.000  C
  C33      1.0000 0.48660  0.13650  0.52662  Biso   1.000  C
  C34      1.0000 0.62320  0.91840  0.85871  Biso   1.000  C
  H12      1.0000 0.67200  0.02050  0.87210  Biso   1.000  H
  C35      1.0000 0.85990  0.92070  0.94301  Biso   1.000  C
  C36      1.0000 0.85450  0.90660  0.01707  Biso   1.000  C
  H13      1.0000 0.75470  0.84200  0.02910  Biso   1.000  H
  C37      1.0000 0.61760  0.40300  0.57487  Biso   1.000  C
  H14      1.0000 0.72510  0.39440  0.57360  Biso   1.000  H
  C38      1.0000 0.38030  0.92850  0.78266  Biso   1.000  C
  C39      1.0000 0.45160  0.55310  0.59981  Biso   1.000  C
  H15      1.0000 0.44460  0.64580  0.61500  Biso   1.000  H
  C40      1.0000 0.03780  0.02670  0.84626  Biso   1.000  C
  C41      1.0000 0.63070  0.69220  0.86763  Biso   1.000  C
  H16      1.0000 0.68440  0.63940  0.88730  Biso   1.000  H
  C42      1.0000 0.38590  0.01900  0.55147  Biso   1.000  C
  C43      1.0000 0.31500  0.29410  0.55424  Biso   1.000  C
  H17      1.0000 0.21440  0.21090  0.53970  Biso   1.000  H
  C44      1.0000 0.60790  0.53900  0.59957  Biso   1.000  C
  C45      1.0000 0.00880  0.01560  0.92605  Biso   1.000  C
  C46      1.0000 0.70390  0.84200  0.88745  Biso   1.000  C
  C47      1.0000 0.30530  0.43010  0.57763  Biso   1.000  C
  C48      1.0000 0.60090  0.11530  0.47555  Biso   1.000  C
  H18      1.0000 0.67100  0.19380  0.45890  Biso   1.000  H
