data_image0
_cell_length_a       27.318
_cell_length_b       27.318
_cell_length_c       15.102
_cell_angle_alpha    90
_cell_angle_beta     90
_cell_angle_gamma    120

_symmetry_space_group_name_H-M    "P 1"
_symmetry_int_tables_number       1

loop_
  _symmetry_equiv_pos_as_xyz
  'x, y, z'

loop_
  _atom_site_label
  _atom_site_occupancy
  _atom_site_fract_x
  _atom_site_fract_y
  _atom_site_fract_z
  _atom_site_thermal_displace_type
  _atom_site_B_iso_or_equiv
  _atom_site_type_symbol
  S1       1.0000 0.28780  0.22910  0.05200  Biso   1.000  S
  O1       1.0000 0.37120  0.31850  0.19230  Biso   1.000  O
  O2       1.0000 0.33810  0.27940  0.32520  Biso   1.000  O
  C1       1.0000 0.33950  0.21810  0.19750  Biso   1.000  C
  C2       1.0000 0.31640  0.19720  0.11380  Biso   1.000  C
  C3       1.0000 0.35780  0.18760  0.24510  Biso   1.000  C
  C4       1.0000 0.34430  0.26810  0.23470  Biso   1.000  C
  H1       1.0000 0.37320  0.20310  0.30850  Biso   1.000  H
  S2       1.0000 0.95447  0.56243  0.38533  Biso   1.000  S
  O3       1.0000 0.03787  0.65183  0.52563  Biso   1.000  O
  O4       1.0000 0.00477  0.61273  0.65853  Biso   1.000  O
  C5       1.0000 0.00617  0.55143  0.53083  Biso   1.000  C
  C6       1.0000 0.98307  0.53053  0.44713  Biso   1.000  C
  C7       1.0000 0.02447  0.52093  0.57843  Biso   1.000  C
  C8       1.0000 0.01097  0.60143  0.56803  Biso   1.000  C
  H2       1.0000 0.03987  0.53643  0.64183  Biso   1.000  H
  S3       1.0000 0.62113  0.89577  0.71867  Biso   1.000  S
  O5       1.0000 0.70453  0.98517  0.85897  Biso   1.000  O
  O6       1.0000 0.67143  0.94607  0.99187  Biso   1.000  O
  C9       1.0000 0.67283  0.88477  0.86417  Biso   1.000  C
  C10      1.0000 0.64973  0.86387  0.78047  Biso   1.000  C
  C11      1.0000 0.69113  0.85427  0.91177  Biso   1.000  C
  C12      1.0000 0.67763  0.93477  0.90137  Biso   1.000  C
  H3       1.0000 0.70653  0.86977  0.97517  Biso   1.000  H
  S4       1.0000 0.77090  0.05870  0.05200  Biso   1.000  S
  O7       1.0000 0.68150  0.05270  0.19230  Biso   1.000  O
  O8       1.0000 0.72060  0.05870  0.32520  Biso   1.000  O
  C13      1.0000 0.78190  0.12140  0.19750  Biso   1.000  C
  C14      1.0000 0.80280  0.11920  0.11380  Biso   1.000  C
  C15      1.0000 0.81240  0.17020  0.24510  Biso   1.000  C
  C16      1.0000 0.73190  0.07620  0.23470  Biso   1.000  C
  H4       1.0000 0.79690  0.17010  0.30850  Biso   1.000  H
  S5       1.0000 0.43757  0.39203  0.38533  Biso   1.000  S
  O9       1.0000 0.34817  0.38603  0.52563  Biso   1.000  O
  O10      1.0000 0.38727  0.39203  0.65853  Biso   1.000  O
  C17      1.0000 0.44857  0.45473  0.53083  Biso   1.000  C
  C18      1.0000 0.46947  0.45253  0.44713  Biso   1.000  C
  C19      1.0000 0.47907  0.50353  0.57843  Biso   1.000  C
  C20      1.0000 0.39857  0.40953  0.56803  Biso   1.000  C
  H5       1.0000 0.46357  0.50343  0.64183  Biso   1.000  H
  S6       1.0000 0.10423  0.72537  0.71867  Biso   1.000  S
  O11      1.0000 0.01483  0.71937  0.85897  Biso   1.000  O
  O12      1.0000 0.05393  0.72537  0.99187  Biso   1.000  O
  C21      1.0000 0.11523  0.78807  0.86417  Biso   1.000  C
  C22      1.0000 0.13613  0.78587  0.78047  Biso   1.000  C
  C23      1.0000 0.14573  0.83687  0.91177  Biso   1.000  C
  C24      1.0000 0.06523  0.74287  0.90137  Biso   1.000  C
  H6       1.0000 0.13023  0.83677  0.97517  Biso   1.000  H
  S7       1.0000 0.94130  0.71220  0.05200  Biso   1.000  S
  O13      1.0000 0.94730  0.62880  0.19230  Biso   1.000  O
  O14      1.0000 0.94130  0.66190  0.32520  Biso   1.000  O
  C25      1.0000 0.87860  0.66050  0.19750  Biso   1.000  C
  C26      1.0000 0.88080  0.68360  0.11380  Biso   1.000  C
  C27      1.0000 0.82980  0.64220  0.24510  Biso   1.000  C
  C28      1.0000 0.92380  0.65570  0.23470  Biso   1.000  C
  H7       1.0000 0.82990  0.62680  0.30850  Biso   1.000  H
  S8       1.0000 0.60797  0.04553  0.38533  Biso   1.000  S
  O15      1.0000 0.61397  0.96213  0.52563  Biso   1.000  O
  O16      1.0000 0.60797  0.99523  0.65853  Biso   1.000  O
  C29      1.0000 0.54527  0.99383  0.53083  Biso   1.000  C
  C30      1.0000 0.54747  0.01693  0.44713  Biso   1.000  C
  C31      1.0000 0.49647  0.97553  0.57843  Biso   1.000  C
  C32      1.0000 0.59047  0.98903  0.56803  Biso   1.000  C
  H8       1.0000 0.49657  0.96013  0.64183  Biso   1.000  H
  S9       1.0000 0.27463  0.37887  0.71867  Biso   1.000  S
  O17      1.0000 0.28063  0.29547  0.85897  Biso   1.000  O
  O18      1.0000 0.27463  0.32857  0.99187  Biso   1.000  O
  C33      1.0000 0.21193  0.32717  0.86417  Biso   1.000  C
  C34      1.0000 0.21413  0.35027  0.78047  Biso   1.000  C
  C35      1.0000 0.16313  0.30887  0.91177  Biso   1.000  C
  C36      1.0000 0.25713  0.32237  0.90137  Biso   1.000  C
  H9       1.0000 0.16323  0.29347  0.97517  Biso   1.000  H
  S10      1.0000 0.22910  0.28780  0.44800  Biso   1.000  S
  O19      1.0000 0.31850  0.37120  0.30770  Biso   1.000  O
  O20      1.0000 0.27940  0.33810  0.17480  Biso   1.000  O
  C37      1.0000 0.21810  0.33950  0.30250  Biso   1.000  C
  C38      1.0000 0.19720  0.31640  0.38620  Biso   1.000  C
  C39      1.0000 0.18760  0.35780  0.25490  Biso   1.000  C
  C40      1.0000 0.26810  0.34430  0.26530  Biso   1.000  C
  H10      1.0000 0.20310  0.37320  0.19150  Biso   1.000  H
  S11      1.0000 0.89577  0.62113  0.78133  Biso   1.000  S
  O21      1.0000 0.98517  0.70453  0.64103  Biso   1.000  O
  O22      1.0000 0.94607  0.67143  0.50813  Biso   1.000  O
  C41      1.0000 0.88477  0.67283  0.63583  Biso   1.000  C
  C42      1.0000 0.86387  0.64973  0.71953  Biso   1.000  C
  C43      1.0000 0.85427  0.69113  0.58823  Biso   1.000  C
  C44      1.0000 0.93477  0.67763  0.59863  Biso   1.000  C
  H11      1.0000 0.86977  0.70653  0.52483  Biso   1.000  H
  S12      1.0000 0.56243  0.95447  0.11467  Biso   1.000  S
  O23      1.0000 0.65183  0.03787  0.97437  Biso   1.000  O
  O24      1.0000 0.61273  0.00477  0.84147  Biso   1.000  O
  C45      1.0000 0.55143  0.00617  0.96917  Biso   1.000  C
  C46      1.0000 0.53053  0.98307  0.05287  Biso   1.000  C
  C47      1.0000 0.52093  0.02447  0.92157  Biso   1.000  C
  C48      1.0000 0.60143  0.01097  0.93197  Biso   1.000  C
  H12      1.0000 0.53643  0.03987  0.85817  Biso   1.000  H
  S13      1.0000 0.05870  0.77090  0.44800  Biso   1.000  S
  O25      1.0000 0.05270  0.68150  0.30770  Biso   1.000  O
  O26      1.0000 0.05870  0.72060  0.17480  Biso   1.000  O
  C49      1.0000 0.12140  0.78190  0.30250  Biso   1.000  C
  C50      1.0000 0.11920  0.80280  0.38620  Biso   1.000  C
  C51      1.0000 0.17020  0.81240  0.25490  Biso   1.000  C
  C52      1.0000 0.07620  0.73190  0.26530  Biso   1.000  C
  H13      1.0000 0.17010  0.79690  0.19150  Biso   1.000  H
  S14      1.0000 0.72537  0.10423  0.78133  Biso   1.000  S
  O27      1.0000 0.71937  0.01483  0.64103  Biso   1.000  O
  O28      1.0000 0.72537  0.05393  0.50813  Biso   1.000  O
  C53      1.0000 0.78807  0.11523  0.63583  Biso   1.000  C
  C54      1.0000 0.78587  0.13613  0.71953  Biso   1.000  C
  C55      1.0000 0.83687  0.14573  0.58823  Biso   1.000  C
  C56      1.0000 0.74287  0.06523  0.59863  Biso   1.000  C
  H14      1.0000 0.83677  0.13023  0.52483  Biso   1.000  H
  S15      1.0000 0.39203  0.43757  0.11467  Biso   1.000  S
  O29      1.0000 0.38603  0.34817  0.97437  Biso   1.000  O
  O30      1.0000 0.39203  0.38727  0.84147  Biso   1.000  O
  C57      1.0000 0.45473  0.44857  0.96917  Biso   1.000  C
  C58      1.0000 0.45253  0.46947  0.05287  Biso   1.000  C
  C59      1.0000 0.50353  0.47907  0.92157  Biso   1.000  C
  C60      1.0000 0.40953  0.39857  0.93197  Biso   1.000  C
  H15      1.0000 0.50343  0.46357  0.85817  Biso   1.000  H
  S16      1.0000 0.71220  0.94130  0.44800  Biso   1.000  S
  O31      1.0000 0.62880  0.94730  0.30770  Biso   1.000  O
  O32      1.0000 0.66190  0.94130  0.17480  Biso   1.000  O
  C61      1.0000 0.66050  0.87860  0.30250  Biso   1.000  C
  C62      1.0000 0.68360  0.88080  0.38620  Biso   1.000  C
  C63      1.0000 0.64220  0.82980  0.25490  Biso   1.000  C
  C64      1.0000 0.65570  0.92380  0.26530  Biso   1.000  C
  H16      1.0000 0.62680  0.82990  0.19150  Biso   1.000  H
  S17      1.0000 0.37887  0.27463  0.78133  Biso   1.000  S
  O33      1.0000 0.29547  0.28063  0.64103  Biso   1.000  O
  O34      1.0000 0.32857  0.27463  0.50813  Biso   1.000  O
  C65      1.0000 0.32717  0.21193  0.63583  Biso   1.000  C
  C66      1.0000 0.35027  0.21413  0.71953  Biso   1.000  C
  C67      1.0000 0.30887  0.16313  0.58823  Biso   1.000  C
  C68      1.0000 0.32237  0.25713  0.59863  Biso   1.000  C
  H17      1.0000 0.29347  0.16323  0.52483  Biso   1.000  H
  S18      1.0000 0.04553  0.60797  0.11467  Biso   1.000  S
  O35      1.0000 0.96213  0.61397  0.97437  Biso   1.000  O
  O36      1.0000 0.99523  0.60797  0.84147  Biso   1.000  O
  C69      1.0000 0.99383  0.54527  0.96917  Biso   1.000  C
  C70      1.0000 0.01693  0.54747  0.05287  Biso   1.000  C
  C71      1.0000 0.97553  0.49647  0.92157  Biso   1.000  C
  C72      1.0000 0.98903  0.59047  0.93197  Biso   1.000  C
  H18      1.0000 0.96013  0.49657  0.85817  Biso   1.000  H
  S19      1.0000 0.71220  0.77090  0.94800  Biso   1.000  S
  O37      1.0000 0.62880  0.68150  0.80770  Biso   1.000  O
  O38      1.0000 0.66190  0.72060  0.67480  Biso   1.000  O
  C73      1.0000 0.66050  0.78190  0.80250  Biso   1.000  C
  C74      1.0000 0.68360  0.80280  0.88620  Biso   1.000  C
  C75      1.0000 0.64220  0.81240  0.75490  Biso   1.000  C
  C76      1.0000 0.65570  0.73190  0.76530  Biso   1.000  C
  H19      1.0000 0.62680  0.79690  0.69150  Biso   1.000  H
  S20      1.0000 0.37887  0.10423  0.28133  Biso   1.000  S
  O39      1.0000 0.29547  0.01483  0.14103  Biso   1.000  O
  O40      1.0000 0.32857  0.05393  0.00813  Biso   1.000  O
  C77      1.0000 0.32717  0.11523  0.13583  Biso   1.000  C
  C78      1.0000 0.35027  0.13613  0.21953  Biso   1.000  C
  C79      1.0000 0.30887  0.14573  0.08823  Biso   1.000  C
  C80      1.0000 0.32237  0.06523  0.09863  Biso   1.000  C
  H20      1.0000 0.29347  0.13023  0.02483  Biso   1.000  H
  S21      1.0000 0.04553  0.43757  0.61467  Biso   1.000  S
  O41      1.0000 0.96213  0.34817  0.47437  Biso   1.000  O
  O42      1.0000 0.99523  0.38727  0.34147  Biso   1.000  O
  C81      1.0000 0.99383  0.44857  0.46917  Biso   1.000  C
  C82      1.0000 0.01693  0.46947  0.55287  Biso   1.000  C
  C83      1.0000 0.97553  0.47907  0.42157  Biso   1.000  C
  C84      1.0000 0.98903  0.39857  0.43197  Biso   1.000  C
  H21      1.0000 0.96013  0.46357  0.35817  Biso   1.000  H
  S22      1.0000 0.22910  0.94130  0.94800  Biso   1.000  S
  O43      1.0000 0.31850  0.94730  0.80770  Biso   1.000  O
  O44      1.0000 0.27940  0.94130  0.67480  Biso   1.000  O
  C85      1.0000 0.21810  0.87860  0.80250  Biso   1.000  C
  C86      1.0000 0.19720  0.88080  0.88620  Biso   1.000  C
  C87      1.0000 0.18760  0.82980  0.75490  Biso   1.000  C
  C88      1.0000 0.26810  0.92380  0.76530  Biso   1.000  C
  H22      1.0000 0.20310  0.82990  0.69150  Biso   1.000  H
  S23      1.0000 0.89577  0.27463  0.28133  Biso   1.000  S
  O45      1.0000 0.98517  0.28063  0.14103  Biso   1.000  O
  O46      1.0000 0.94607  0.27463  0.00813  Biso   1.000  O
  C89      1.0000 0.88477  0.21193  0.13583  Biso   1.000  C
  C90      1.0000 0.86387  0.21413  0.21953  Biso   1.000  C
  C91      1.0000 0.85427  0.16313  0.08823  Biso   1.000  C
  C92      1.0000 0.93477  0.25713  0.09863  Biso   1.000  C
  H23      1.0000 0.86977  0.16323  0.02483  Biso   1.000  H
  S24      1.0000 0.56243  0.60797  0.61467  Biso   1.000  S
  O47      1.0000 0.65183  0.61397  0.47437  Biso   1.000  O
  O48      1.0000 0.61273  0.60797  0.34147  Biso   1.000  O
  C93      1.0000 0.55143  0.54527  0.46917  Biso   1.000  C
  C94      1.0000 0.53053  0.54747  0.55287  Biso   1.000  C
  C95      1.0000 0.52093  0.49647  0.42157  Biso   1.000  C
  C96      1.0000 0.60143  0.59047  0.43197  Biso   1.000  C
  H24      1.0000 0.53643  0.49657  0.35817  Biso   1.000  H
  S25      1.0000 0.05870  0.28780  0.94800  Biso   1.000  S
  O49      1.0000 0.05270  0.37120  0.80770  Biso   1.000  O
  O50      1.0000 0.05870  0.33810  0.67480  Biso   1.000  O
  C97      1.0000 0.12140  0.33950  0.80250  Biso   1.000  C
  C98      1.0000 0.11920  0.31640  0.88620  Biso   1.000  C
  C99      1.0000 0.17020  0.35780  0.75490  Biso   1.000  C
  C100     1.0000 0.07620  0.34430  0.76530  Biso   1.000  C
  H25      1.0000 0.17010  0.37320  0.69150  Biso   1.000  H
  S26      1.0000 0.72537  0.62113  0.28133  Biso   1.000  S
  O51      1.0000 0.71937  0.70453  0.14103  Biso   1.000  O
  O52      1.0000 0.72537  0.67143  0.00813  Biso   1.000  O
  C101     1.0000 0.78807  0.67283  0.13583  Biso   1.000  C
  C102     1.0000 0.78587  0.64973  0.21953  Biso   1.000  C
  C103     1.0000 0.83687  0.69113  0.08823  Biso   1.000  C
  C104     1.0000 0.74287  0.67763  0.09863  Biso   1.000  C
  H26      1.0000 0.83677  0.70653  0.02483  Biso   1.000  H
  S27      1.0000 0.39203  0.95447  0.61467  Biso   1.000  S
  O53      1.0000 0.38603  0.03787  0.47437  Biso   1.000  O
  O54      1.0000 0.39203  0.00477  0.34147  Biso   1.000  O
  C105     1.0000 0.45473  0.00617  0.46917  Biso   1.000  C
  C106     1.0000 0.45253  0.98307  0.55287  Biso   1.000  C
  C107     1.0000 0.50353  0.02447  0.42157  Biso   1.000  C
  C108     1.0000 0.40953  0.01097  0.43197  Biso   1.000  C
  H27      1.0000 0.50343  0.03987  0.35817  Biso   1.000  H
  S28      1.0000 0.77090  0.71220  0.55200  Biso   1.000  S
  O55      1.0000 0.68150  0.62880  0.69230  Biso   1.000  O
  O56      1.0000 0.72060  0.66190  0.82520  Biso   1.000  O
  C109     1.0000 0.78190  0.66050  0.69750  Biso   1.000  C
  C110     1.0000 0.80280  0.68360  0.61380  Biso   1.000  C
  C111     1.0000 0.81240  0.64220  0.74510  Biso   1.000  C
  C112     1.0000 0.73190  0.65570  0.73470  Biso   1.000  C
  H28      1.0000 0.79690  0.62680  0.80850  Biso   1.000  H
  S29      1.0000 0.43757  0.04553  0.88533  Biso   1.000  S
  O57      1.0000 0.34817  0.96213  0.02563  Biso   1.000  O
  O58      1.0000 0.38727  0.99523  0.15853  Biso   1.000  O
  C113     1.0000 0.44857  0.99383  0.03083  Biso   1.000  C
  C114     1.0000 0.46947  0.01693  0.94713  Biso   1.000  C
  C115     1.0000 0.47907  0.97553  0.07843  Biso   1.000  C
  C116     1.0000 0.39857  0.98903  0.06803  Biso   1.000  C
  H29      1.0000 0.46357  0.96013  0.14183  Biso   1.000  H
  S30      1.0000 0.10423  0.37887  0.21867  Biso   1.000  S
  O59      1.0000 0.01483  0.29547  0.35897  Biso   1.000  O
  O60      1.0000 0.05393  0.32857  0.49187  Biso   1.000  O
  C117     1.0000 0.11523  0.32717  0.36417  Biso   1.000  C
  C118     1.0000 0.13613  0.35027  0.28047  Biso   1.000  C
  C119     1.0000 0.14573  0.30887  0.41177  Biso   1.000  C
  C120     1.0000 0.06523  0.32237  0.40137  Biso   1.000  C
  H30      1.0000 0.13023  0.29347  0.47517  Biso   1.000  H
  S31      1.0000 0.94130  0.22910  0.55200  Biso   1.000  S
  O61      1.0000 0.94730  0.31850  0.69230  Biso   1.000  O
  O62      1.0000 0.94130  0.27940  0.82520  Biso   1.000  O
  C121     1.0000 0.87860  0.21810  0.69750  Biso   1.000  C
  C122     1.0000 0.88080  0.19720  0.61380  Biso   1.000  C
  C123     1.0000 0.82980  0.18760  0.74510  Biso   1.000  C
  C124     1.0000 0.92380  0.26810  0.73470  Biso   1.000  C
  H31      1.0000 0.82990  0.20310  0.80850  Biso   1.000  H
  S32      1.0000 0.60797  0.56243  0.88533  Biso   1.000  S
  O63      1.0000 0.61397  0.65183  0.02563  Biso   1.000  O
  O64      1.0000 0.60797  0.61273  0.15853  Biso   1.000  O
  C125     1.0000 0.54527  0.55143  0.03083  Biso   1.000  C
  C126     1.0000 0.54747  0.53053  0.94713  Biso   1.000  C
  C127     1.0000 0.49647  0.52093  0.07843  Biso   1.000  C
  C128     1.0000 0.59047  0.60143  0.06803  Biso   1.000  C
  H32      1.0000 0.49657  0.53643  0.14183  Biso   1.000  H
  S33      1.0000 0.27463  0.89577  0.21867  Biso   1.000  S
  O65      1.0000 0.28063  0.98517  0.35897  Biso   1.000  O
  O66      1.0000 0.27463  0.94607  0.49187  Biso   1.000  O
  C129     1.0000 0.21193  0.88477  0.36417  Biso   1.000  C
  C130     1.0000 0.21413  0.86387  0.28047  Biso   1.000  C
  C131     1.0000 0.16313  0.85427  0.41177  Biso   1.000  C
  C132     1.0000 0.25713  0.93477  0.40137  Biso   1.000  C
  H33      1.0000 0.16323  0.86977  0.47517  Biso   1.000  H
  S34      1.0000 0.28780  0.05870  0.55200  Biso   1.000  S
  O67      1.0000 0.37120  0.05270  0.69230  Biso   1.000  O
  O68      1.0000 0.33810  0.05870  0.82520  Biso   1.000  O
  C133     1.0000 0.33950  0.12140  0.69750  Biso   1.000  C
  C134     1.0000 0.31640  0.11920  0.61380  Biso   1.000  C
  C135     1.0000 0.35780  0.17020  0.74510  Biso   1.000  C
  C136     1.0000 0.34430  0.07620  0.73470  Biso   1.000  C
  H34      1.0000 0.37320  0.17010  0.80850  Biso   1.000  H
  S35      1.0000 0.95447  0.39203  0.88533  Biso   1.000  S
  O69      1.0000 0.03787  0.38603  0.02563  Biso   1.000  O
  O70      1.0000 0.00477  0.39203  0.15853  Biso   1.000  O
  C137     1.0000 0.00617  0.45473  0.03083  Biso   1.000  C
  C138     1.0000 0.98307  0.45253  0.94713  Biso   1.000  C
  C139     1.0000 0.02447  0.50353  0.07843  Biso   1.000  C
  C140     1.0000 0.01097  0.40953  0.06803  Biso   1.000  C
  H35      1.0000 0.03987  0.50343  0.14183  Biso   1.000  H
  S36      1.0000 0.62113  0.72537  0.21867  Biso   1.000  S
  O71      1.0000 0.70453  0.71937  0.35897  Biso   1.000  O
  O72      1.0000 0.67143  0.72537  0.49187  Biso   1.000  O
  C141     1.0000 0.67283  0.78807  0.36417  Biso   1.000  C
  C142     1.0000 0.64973  0.78587  0.28047  Biso   1.000  C
  C143     1.0000 0.69113  0.83687  0.41177  Biso   1.000  C
  C144     1.0000 0.67763  0.74287  0.40137  Biso   1.000  C
  H36      1.0000 0.70653  0.83677  0.47517  Biso   1.000  H
  Mn1      1.0000 0.31250  0.33333  0.08333  Biso   1.000  Mn
  Mn2      1.0000 0.66667  0.97917  0.08333  Biso   1.000  Mn
  Mn3      1.0000 0.33333  0.31250  0.41667  Biso   1.000  Mn
  Mn4      1.0000 0.02083  0.68750  0.08333  Biso   1.000  Mn
  Mn5      1.0000 0.35417  0.35417  0.75000  Biso   1.000  Mn
  Mn6      1.0000 0.00000  0.64583  0.75000  Biso   1.000  Mn
  Mn7      1.0000 0.97917  0.66667  0.41667  Biso   1.000  Mn
  Mn8      1.0000 0.64583  0.00000  0.75000  Biso   1.000  Mn
  Mn9      1.0000 0.68750  0.02083  0.41667  Biso   1.000  Mn
  Mn10     1.0000 0.68750  0.66667  0.91667  Biso   1.000  Mn
  Mn11     1.0000 0.35417  0.00000  0.25000  Biso   1.000  Mn
  Mn12     1.0000 0.02083  0.33333  0.58333  Biso   1.000  Mn
  Mn13     1.0000 0.33333  0.02083  0.91667  Biso   1.000  Mn
  Mn14     1.0000 0.00000  0.35417  0.25000  Biso   1.000  Mn
  Mn15     1.0000 0.97917  0.31250  0.91667  Biso   1.000  Mn
  Mn16     1.0000 0.64583  0.64583  0.25000  Biso   1.000  Mn
  Mn17     1.0000 0.66667  0.68750  0.58333  Biso   1.000  Mn
  Mn18     1.0000 0.31250  0.97917  0.58333  Biso   1.000  Mn
  Mn19     1.0000 0.40270  0.40270  0.25000  Biso   1.000  Mn
  Mn20     1.0000 0.06937  0.73603  0.58333  Biso   1.000  Mn
  Mn21     1.0000 0.73603  0.06937  0.91667  Biso   1.000  Mn
  Mn22     1.0000 0.59730  0.00000  0.25000  Biso   1.000  Mn
  Mn23     1.0000 0.26397  0.33333  0.58333  Biso   1.000  Mn
  Mn24     1.0000 0.93063  0.66667  0.91667  Biso   1.000  Mn
  Mn25     1.0000 0.00000  0.59730  0.25000  Biso   1.000  Mn
  Mn26     1.0000 0.66667  0.93063  0.58333  Biso   1.000  Mn
  Mn27     1.0000 0.33333  0.26397  0.91667  Biso   1.000  Mn
  Mn28     1.0000 0.59730  0.59730  0.75000  Biso   1.000  Mn
  Mn29     1.0000 0.26397  0.93063  0.08333  Biso   1.000  Mn
  Mn30     1.0000 0.93063  0.26397  0.41667  Biso   1.000  Mn
  Mn31     1.0000 0.40270  0.00000  0.75000  Biso   1.000  Mn
  Mn32     1.0000 0.06937  0.33333  0.08333  Biso   1.000  Mn
  Mn33     1.0000 0.73603  0.66667  0.41667  Biso   1.000  Mn
  Mn34     1.0000 0.00000  0.40270  0.75000  Biso   1.000  Mn
  Mn35     1.0000 0.66667  0.73603  0.08333  Biso   1.000  Mn
  Mn36     1.0000 0.33333  0.06937  0.41667  Biso   1.000  Mn
