data_image0
_cell_length_a       27.316
_cell_length_b       27.316
_cell_length_c       15.0891
_cell_angle_alpha    90
_cell_angle_beta     90
_cell_angle_gamma    120

_symmetry_space_group_name_H-M    "P 1"
_symmetry_int_tables_number       1

loop_
  _symmetry_equiv_pos_as_xyz
  'x, y, z'

loop_
  _atom_site_label
  _atom_site_occupancy
  _atom_site_fract_x
  _atom_site_fract_y
  _atom_site_fract_z
  _atom_site_thermal_displace_type
  _atom_site_B_iso_or_equiv
  _atom_site_type_symbol
  S1       1.0000 0.28777  0.22910  0.05245  Biso   1.000  S
  O1       1.0000 0.37124  0.31847  0.19226  Biso   1.000  O
  O2       1.0000 0.33810  0.27943  0.32524  Biso   1.000  O
  C1       1.0000 0.33953  0.21811  0.19745  Biso   1.000  C
  C2       1.0000 0.31639  0.19715  0.11383  Biso   1.000  C
  C3       1.0000 0.35780  0.18761  0.24514  Biso   1.000  C
  C4       1.0000 0.34435  0.26815  0.23467  Biso   1.000  C
  H1       1.0000 0.37321  0.20306  0.30851  Biso   1.000  H
  S2       1.0000 0.95444  0.56243  0.38578  Biso   1.000  S
  O3       1.0000 0.03791  0.65180  0.52559  Biso   1.000  O
  O4       1.0000 0.00477  0.61276  0.65857  Biso   1.000  O
  C5       1.0000 0.00620  0.55144  0.53078  Biso   1.000  C
  C6       1.0000 0.98306  0.53048  0.44716  Biso   1.000  C
  C7       1.0000 0.02447  0.52094  0.57847  Biso   1.000  C
  C8       1.0000 0.01102  0.60148  0.56800  Biso   1.000  C
  H2       1.0000 0.03988  0.53639  0.64184  Biso   1.000  H
  S3       1.0000 0.62110  0.89577  0.71912  Biso   1.000  S
  O5       1.0000 0.70457  0.98514  0.85893  Biso   1.000  O
  O6       1.0000 0.67143  0.94610  0.99191  Biso   1.000  O
  C9       1.0000 0.67286  0.88478  0.86412  Biso   1.000  C
  C10      1.0000 0.64972  0.86382  0.78050  Biso   1.000  C
  C11      1.0000 0.69113  0.85428  0.91181  Biso   1.000  C
  C12      1.0000 0.67768  0.93482  0.90134  Biso   1.000  C
  H3       1.0000 0.70654  0.86973  0.97518  Biso   1.000  H
  S4       1.0000 0.77090  0.05867  0.05245  Biso   1.000  S
  O7       1.0000 0.68153  0.05277  0.19226  Biso   1.000  O
  O8       1.0000 0.72057  0.05867  0.32524  Biso   1.000  O
  C13      1.0000 0.78189  0.12142  0.19745  Biso   1.000  C
  C14      1.0000 0.80285  0.11924  0.11383  Biso   1.000  C
  C15      1.0000 0.81239  0.17019  0.24514  Biso   1.000  C
  C16      1.0000 0.73185  0.07620  0.23467  Biso   1.000  C
  H4       1.0000 0.79694  0.17015  0.30851  Biso   1.000  H
  S5       1.0000 0.43757  0.39200  0.38578  Biso   1.000  S
  O9       1.0000 0.34820  0.38610  0.52559  Biso   1.000  O
  O10      1.0000 0.38724  0.39200  0.65857  Biso   1.000  O
  C17      1.0000 0.44856  0.45475  0.53078  Biso   1.000  C
  C18      1.0000 0.46952  0.45257  0.44716  Biso   1.000  C
  C19      1.0000 0.47906  0.50352  0.57847  Biso   1.000  C
  C20      1.0000 0.39852  0.40953  0.56800  Biso   1.000  C
  H5       1.0000 0.46361  0.50348  0.64184  Biso   1.000  H
  S6       1.0000 0.10423  0.72534  0.71912  Biso   1.000  S
  O11      1.0000 0.01486  0.71944  0.85893  Biso   1.000  O
  O12      1.0000 0.05390  0.72534  0.99191  Biso   1.000  O
  C21      1.0000 0.11522  0.78809  0.86412  Biso   1.000  C
  C22      1.0000 0.13618  0.78591  0.78050  Biso   1.000  C
  C23      1.0000 0.14572  0.83686  0.91181  Biso   1.000  C
  C24      1.0000 0.06518  0.74287  0.90134  Biso   1.000  C
  H6       1.0000 0.13027  0.83682  0.97518  Biso   1.000  H
  S7       1.0000 0.94133  0.71223  0.05245  Biso   1.000  S
  O13      1.0000 0.94723  0.62876  0.19226  Biso   1.000  O
  O14      1.0000 0.94133  0.66190  0.32524  Biso   1.000  O
  C25      1.0000 0.87858  0.66047  0.19745  Biso   1.000  C
  C26      1.0000 0.88076  0.68361  0.11383  Biso   1.000  C
  C27      1.0000 0.82981  0.64220  0.24514  Biso   1.000  C
  C28      1.0000 0.92380  0.65565  0.23467  Biso   1.000  C
  H7       1.0000 0.82985  0.62679  0.30851  Biso   1.000  H
  S8       1.0000 0.60800  0.04556  0.38578  Biso   1.000  S
  O15      1.0000 0.61390  0.96209  0.52559  Biso   1.000  O
  O16      1.0000 0.60800  0.99523  0.65857  Biso   1.000  O
  C29      1.0000 0.54525  0.99380  0.53078  Biso   1.000  C
  C30      1.0000 0.54743  0.01694  0.44716  Biso   1.000  C
  C31      1.0000 0.49648  0.97553  0.57847  Biso   1.000  C
  C32      1.0000 0.59047  0.98898  0.56800  Biso   1.000  C
  H8       1.0000 0.49652  0.96012  0.64184  Biso   1.000  H
  S9       1.0000 0.27466  0.37890  0.71912  Biso   1.000  S
  O17      1.0000 0.28056  0.29543  0.85893  Biso   1.000  O
  O18      1.0000 0.27466  0.32857  0.99191  Biso   1.000  O
  C33      1.0000 0.21191  0.32714  0.86412  Biso   1.000  C
  C34      1.0000 0.21409  0.35028  0.78050  Biso   1.000  C
  C35      1.0000 0.16314  0.30887  0.91181  Biso   1.000  C
  C36      1.0000 0.25713  0.32232  0.90134  Biso   1.000  C
  H9       1.0000 0.16318  0.29346  0.97518  Biso   1.000  H
  S10      1.0000 0.22910  0.28777  0.44755  Biso   1.000  S
  O19      1.0000 0.31847  0.37124  0.30774  Biso   1.000  O
  O20      1.0000 0.27943  0.33810  0.17476  Biso   1.000  O
  C37      1.0000 0.21811  0.33953  0.30255  Biso   1.000  C
  C38      1.0000 0.19715  0.31639  0.38617  Biso   1.000  C
  C39      1.0000 0.18761  0.35780  0.25486  Biso   1.000  C
  C40      1.0000 0.26815  0.34435  0.26533  Biso   1.000  C
  H10      1.0000 0.20306  0.37321  0.19149  Biso   1.000  H
  S11      1.0000 0.89577  0.62110  0.78088  Biso   1.000  S
  O21      1.0000 0.98514  0.70457  0.64107  Biso   1.000  O
  O22      1.0000 0.94610  0.67143  0.50809  Biso   1.000  O
  C41      1.0000 0.88478  0.67286  0.63588  Biso   1.000  C
  C42      1.0000 0.86382  0.64972  0.71950  Biso   1.000  C
  C43      1.0000 0.85428  0.69113  0.58819  Biso   1.000  C
  C44      1.0000 0.93482  0.67768  0.59866  Biso   1.000  C
  H11      1.0000 0.86973  0.70654  0.52482  Biso   1.000  H
  S12      1.0000 0.56243  0.95444  0.11422  Biso   1.000  S
  O23      1.0000 0.65180  0.03791  0.97441  Biso   1.000  O
  O24      1.0000 0.61276  0.00477  0.84143  Biso   1.000  O
  C45      1.0000 0.55144  0.00620  0.96922  Biso   1.000  C
  C46      1.0000 0.53048  0.98306  0.05284  Biso   1.000  C
  C47      1.0000 0.52094  0.02447  0.92153  Biso   1.000  C
  C48      1.0000 0.60148  0.01102  0.93200  Biso   1.000  C
  H12      1.0000 0.53639  0.03988  0.85816  Biso   1.000  H
  S13      1.0000 0.05867  0.77090  0.44755  Biso   1.000  S
  O25      1.0000 0.05277  0.68153  0.30774  Biso   1.000  O
  O26      1.0000 0.05867  0.72057  0.17476  Biso   1.000  O
  C49      1.0000 0.12142  0.78189  0.30255  Biso   1.000  C
  C50      1.0000 0.11924  0.80285  0.38617  Biso   1.000  C
  C51      1.0000 0.17019  0.81239  0.25486  Biso   1.000  C
  C52      1.0000 0.07620  0.73185  0.26533  Biso   1.000  C
  H13      1.0000 0.17015  0.79694  0.19149  Biso   1.000  H
  S14      1.0000 0.72534  0.10423  0.78088  Biso   1.000  S
  O27      1.0000 0.71944  0.01486  0.64107  Biso   1.000  O
  O28      1.0000 0.72534  0.05390  0.50809  Biso   1.000  O
  C53      1.0000 0.78809  0.11522  0.63588  Biso   1.000  C
  C54      1.0000 0.78591  0.13618  0.71950  Biso   1.000  C
  C55      1.0000 0.83686  0.14572  0.58819  Biso   1.000  C
  C56      1.0000 0.74287  0.06518  0.59866  Biso   1.000  C
  H14      1.0000 0.83682  0.13027  0.52482  Biso   1.000  H
  S15      1.0000 0.39200  0.43757  0.11422  Biso   1.000  S
  O29      1.0000 0.38610  0.34820  0.97441  Biso   1.000  O
  O30      1.0000 0.39200  0.38724  0.84143  Biso   1.000  O
  C57      1.0000 0.45475  0.44856  0.96922  Biso   1.000  C
  C58      1.0000 0.45257  0.46952  0.05284  Biso   1.000  C
  C59      1.0000 0.50352  0.47906  0.92153  Biso   1.000  C
  C60      1.0000 0.40953  0.39852  0.93200  Biso   1.000  C
  H15      1.0000 0.50348  0.46361  0.85816  Biso   1.000  H
  S16      1.0000 0.71223  0.94133  0.44755  Biso   1.000  S
  O31      1.0000 0.62876  0.94723  0.30774  Biso   1.000  O
  O32      1.0000 0.66190  0.94133  0.17476  Biso   1.000  O
  C61      1.0000 0.66047  0.87858  0.30255  Biso   1.000  C
  C62      1.0000 0.68361  0.88076  0.38617  Biso   1.000  C
  C63      1.0000 0.64220  0.82981  0.25486  Biso   1.000  C
  C64      1.0000 0.65565  0.92380  0.26533  Biso   1.000  C
  H16      1.0000 0.62679  0.82985  0.19149  Biso   1.000  H
  S17      1.0000 0.37890  0.27466  0.78088  Biso   1.000  S
  O33      1.0000 0.29543  0.28056  0.64107  Biso   1.000  O
  O34      1.0000 0.32857  0.27466  0.50809  Biso   1.000  O
  C65      1.0000 0.32714  0.21191  0.63588  Biso   1.000  C
  C66      1.0000 0.35028  0.21409  0.71950  Biso   1.000  C
  C67      1.0000 0.30887  0.16314  0.58819  Biso   1.000  C
  C68      1.0000 0.32232  0.25713  0.59866  Biso   1.000  C
  H17      1.0000 0.29346  0.16318  0.52482  Biso   1.000  H
  S18      1.0000 0.04556  0.60800  0.11422  Biso   1.000  S
  O35      1.0000 0.96209  0.61390  0.97441  Biso   1.000  O
  O36      1.0000 0.99523  0.60800  0.84143  Biso   1.000  O
  C69      1.0000 0.99380  0.54525  0.96922  Biso   1.000  C
  C70      1.0000 0.01694  0.54743  0.05284  Biso   1.000  C
  C71      1.0000 0.97553  0.49648  0.92153  Biso   1.000  C
  C72      1.0000 0.98898  0.59047  0.93200  Biso   1.000  C
  H18      1.0000 0.96012  0.49652  0.85816  Biso   1.000  H
  S19      1.0000 0.71223  0.77090  0.94755  Biso   1.000  S
  O37      1.0000 0.62876  0.68153  0.80774  Biso   1.000  O
  O38      1.0000 0.66190  0.72057  0.67476  Biso   1.000  O
  C73      1.0000 0.66047  0.78189  0.80255  Biso   1.000  C
  C74      1.0000 0.68361  0.80285  0.88617  Biso   1.000  C
  C75      1.0000 0.64220  0.81239  0.75486  Biso   1.000  C
  C76      1.0000 0.65565  0.73185  0.76533  Biso   1.000  C
  H19      1.0000 0.62679  0.79694  0.69149  Biso   1.000  H
  S20      1.0000 0.37890  0.10423  0.28088  Biso   1.000  S
  O39      1.0000 0.29543  0.01486  0.14107  Biso   1.000  O
  O40      1.0000 0.32857  0.05390  0.00809  Biso   1.000  O
  C77      1.0000 0.32714  0.11522  0.13588  Biso   1.000  C
  C78      1.0000 0.35028  0.13618  0.21950  Biso   1.000  C
  C79      1.0000 0.30887  0.14572  0.08819  Biso   1.000  C
  C80      1.0000 0.32232  0.06518  0.09866  Biso   1.000  C
  H20      1.0000 0.29346  0.13027  0.02482  Biso   1.000  H
  S21      1.0000 0.04556  0.43757  0.61422  Biso   1.000  S
  O41      1.0000 0.96209  0.34820  0.47441  Biso   1.000  O
  O42      1.0000 0.99523  0.38724  0.34143  Biso   1.000  O
  C81      1.0000 0.99380  0.44856  0.46922  Biso   1.000  C
  C82      1.0000 0.01694  0.46952  0.55284  Biso   1.000  C
  C83      1.0000 0.97553  0.47906  0.42153  Biso   1.000  C
  C84      1.0000 0.98898  0.39852  0.43200  Biso   1.000  C
  H21      1.0000 0.96012  0.46361  0.35816  Biso   1.000  H
  S22      1.0000 0.22910  0.94133  0.94755  Biso   1.000  S
  O43      1.0000 0.31847  0.94723  0.80774  Biso   1.000  O
  O44      1.0000 0.27943  0.94133  0.67476  Biso   1.000  O
  C85      1.0000 0.21811  0.87858  0.80255  Biso   1.000  C
  C86      1.0000 0.19715  0.88076  0.88617  Biso   1.000  C
  C87      1.0000 0.18761  0.82981  0.75486  Biso   1.000  C
  C88      1.0000 0.26815  0.92380  0.76533  Biso   1.000  C
  H22      1.0000 0.20306  0.82985  0.69149  Biso   1.000  H
  S23      1.0000 0.89577  0.27466  0.28088  Biso   1.000  S
  O45      1.0000 0.98514  0.28056  0.14107  Biso   1.000  O
  O46      1.0000 0.94610  0.27466  0.00809  Biso   1.000  O
  C89      1.0000 0.88478  0.21191  0.13588  Biso   1.000  C
  C90      1.0000 0.86382  0.21409  0.21950  Biso   1.000  C
  C91      1.0000 0.85428  0.16314  0.08819  Biso   1.000  C
  C92      1.0000 0.93482  0.25713  0.09866  Biso   1.000  C
  H23      1.0000 0.86973  0.16318  0.02482  Biso   1.000  H
  S24      1.0000 0.56243  0.60800  0.61422  Biso   1.000  S
  O47      1.0000 0.65180  0.61390  0.47441  Biso   1.000  O
  O48      1.0000 0.61276  0.60800  0.34143  Biso   1.000  O
  C93      1.0000 0.55144  0.54525  0.46922  Biso   1.000  C
  C94      1.0000 0.53048  0.54743  0.55284  Biso   1.000  C
  C95      1.0000 0.52094  0.49648  0.42153  Biso   1.000  C
  C96      1.0000 0.60148  0.59047  0.43200  Biso   1.000  C
  H24      1.0000 0.53639  0.49652  0.35816  Biso   1.000  H
  S25      1.0000 0.05867  0.28777  0.94755  Biso   1.000  S
  O49      1.0000 0.05277  0.37124  0.80774  Biso   1.000  O
  O50      1.0000 0.05867  0.33810  0.67476  Biso   1.000  O
  C97      1.0000 0.12142  0.33953  0.80255  Biso   1.000  C
  C98      1.0000 0.11924  0.31639  0.88617  Biso   1.000  C
  C99      1.0000 0.17019  0.35780  0.75486  Biso   1.000  C
  C100     1.0000 0.07620  0.34435  0.76533  Biso   1.000  C
  H25      1.0000 0.17015  0.37321  0.69149  Biso   1.000  H
  S26      1.0000 0.72534  0.62110  0.28088  Biso   1.000  S
  O51      1.0000 0.71944  0.70457  0.14107  Biso   1.000  O
  O52      1.0000 0.72534  0.67143  0.00809  Biso   1.000  O
  C101     1.0000 0.78809  0.67286  0.13588  Biso   1.000  C
  C102     1.0000 0.78591  0.64972  0.21950  Biso   1.000  C
  C103     1.0000 0.83686  0.69113  0.08819  Biso   1.000  C
  C104     1.0000 0.74287  0.67768  0.09866  Biso   1.000  C
  H26      1.0000 0.83682  0.70654  0.02482  Biso   1.000  H
  S27      1.0000 0.39200  0.95444  0.61422  Biso   1.000  S
  O53      1.0000 0.38610  0.03791  0.47441  Biso   1.000  O
  O54      1.0000 0.39200  0.00477  0.34143  Biso   1.000  O
  C105     1.0000 0.45475  0.00620  0.46922  Biso   1.000  C
  C106     1.0000 0.45257  0.98306  0.55284  Biso   1.000  C
  C107     1.0000 0.50352  0.02447  0.42153  Biso   1.000  C
  C108     1.0000 0.40953  0.01102  0.43200  Biso   1.000  C
  H27      1.0000 0.50348  0.03988  0.35816  Biso   1.000  H
  S28      1.0000 0.77090  0.71223  0.55245  Biso   1.000  S
  O55      1.0000 0.68153  0.62876  0.69226  Biso   1.000  O
  O56      1.0000 0.72057  0.66190  0.82524  Biso   1.000  O
  C109     1.0000 0.78189  0.66047  0.69745  Biso   1.000  C
  C110     1.0000 0.80285  0.68361  0.61383  Biso   1.000  C
  C111     1.0000 0.81239  0.64220  0.74514  Biso   1.000  C
  C112     1.0000 0.73185  0.65565  0.73467  Biso   1.000  C
  H28      1.0000 0.79694  0.62679  0.80851  Biso   1.000  H
  S29      1.0000 0.43757  0.04556  0.88578  Biso   1.000  S
  O57      1.0000 0.34820  0.96209  0.02559  Biso   1.000  O
  O58      1.0000 0.38724  0.99523  0.15857  Biso   1.000  O
  C113     1.0000 0.44856  0.99380  0.03078  Biso   1.000  C
  C114     1.0000 0.46952  0.01694  0.94716  Biso   1.000  C
  C115     1.0000 0.47906  0.97553  0.07847  Biso   1.000  C
  C116     1.0000 0.39852  0.98898  0.06800  Biso   1.000  C
  H29      1.0000 0.46361  0.96012  0.14184  Biso   1.000  H
  S30      1.0000 0.10423  0.37890  0.21912  Biso   1.000  S
  O59      1.0000 0.01486  0.29543  0.35893  Biso   1.000  O
  O60      1.0000 0.05390  0.32857  0.49191  Biso   1.000  O
  C117     1.0000 0.11522  0.32714  0.36412  Biso   1.000  C
  C118     1.0000 0.13618  0.35028  0.28050  Biso   1.000  C
  C119     1.0000 0.14572  0.30887  0.41181  Biso   1.000  C
  C120     1.0000 0.06518  0.32232  0.40134  Biso   1.000  C
  H30      1.0000 0.13027  0.29346  0.47518  Biso   1.000  H
  S31      1.0000 0.94133  0.22910  0.55245  Biso   1.000  S
  O61      1.0000 0.94723  0.31847  0.69226  Biso   1.000  O
  O62      1.0000 0.94133  0.27943  0.82524  Biso   1.000  O
  C121     1.0000 0.87858  0.21811  0.69745  Biso   1.000  C
  C122     1.0000 0.88076  0.19715  0.61383  Biso   1.000  C
  C123     1.0000 0.82981  0.18761  0.74514  Biso   1.000  C
  C124     1.0000 0.92380  0.26815  0.73467  Biso   1.000  C
  H31      1.0000 0.82985  0.20306  0.80851  Biso   1.000  H
  S32      1.0000 0.60800  0.56243  0.88578  Biso   1.000  S
  O63      1.0000 0.61390  0.65180  0.02559  Biso   1.000  O
  O64      1.0000 0.60800  0.61276  0.15857  Biso   1.000  O
  C125     1.0000 0.54525  0.55144  0.03078  Biso   1.000  C
  C126     1.0000 0.54743  0.53048  0.94716  Biso   1.000  C
  C127     1.0000 0.49648  0.52094  0.07847  Biso   1.000  C
  C128     1.0000 0.59047  0.60148  0.06800  Biso   1.000  C
  H32      1.0000 0.49652  0.53639  0.14184  Biso   1.000  H
  S33      1.0000 0.27466  0.89577  0.21912  Biso   1.000  S
  O65      1.0000 0.28056  0.98514  0.35893  Biso   1.000  O
  O66      1.0000 0.27466  0.94610  0.49191  Biso   1.000  O
  C129     1.0000 0.21191  0.88478  0.36412  Biso   1.000  C
  C130     1.0000 0.21409  0.86382  0.28050  Biso   1.000  C
  C131     1.0000 0.16314  0.85428  0.41181  Biso   1.000  C
  C132     1.0000 0.25713  0.93482  0.40134  Biso   1.000  C
  H33      1.0000 0.16318  0.86973  0.47518  Biso   1.000  H
  S34      1.0000 0.28777  0.05867  0.55245  Biso   1.000  S
  O67      1.0000 0.37124  0.05277  0.69226  Biso   1.000  O
  O68      1.0000 0.33810  0.05867  0.82524  Biso   1.000  O
  C133     1.0000 0.33953  0.12142  0.69745  Biso   1.000  C
  C134     1.0000 0.31639  0.11924  0.61383  Biso   1.000  C
  C135     1.0000 0.35780  0.17019  0.74514  Biso   1.000  C
  C136     1.0000 0.34435  0.07620  0.73467  Biso   1.000  C
  H34      1.0000 0.37321  0.17015  0.80851  Biso   1.000  H
  S35      1.0000 0.95444  0.39200  0.88578  Biso   1.000  S
  O69      1.0000 0.03791  0.38610  0.02559  Biso   1.000  O
  O70      1.0000 0.00477  0.39200  0.15857  Biso   1.000  O
  C137     1.0000 0.00620  0.45475  0.03078  Biso   1.000  C
  C138     1.0000 0.98306  0.45257  0.94716  Biso   1.000  C
  C139     1.0000 0.02447  0.50352  0.07847  Biso   1.000  C
  C140     1.0000 0.01102  0.40953  0.06800  Biso   1.000  C
  H35      1.0000 0.03988  0.50348  0.14184  Biso   1.000  H
  S36      1.0000 0.62110  0.72534  0.21912  Biso   1.000  S
  O71      1.0000 0.70457  0.71944  0.35893  Biso   1.000  O
  O72      1.0000 0.67143  0.72534  0.49191  Biso   1.000  O
  C141     1.0000 0.67286  0.78809  0.36412  Biso   1.000  C
  C142     1.0000 0.64972  0.78591  0.28050  Biso   1.000  C
  C143     1.0000 0.69113  0.83686  0.41181  Biso   1.000  C
  C144     1.0000 0.67768  0.74287  0.40134  Biso   1.000  C
  H36      1.0000 0.70654  0.83682  0.47518  Biso   1.000  H
  Mn1      1.0000 0.31254  0.33333  0.08333  Biso   1.000  Mn
  Mn2      1.0000 0.66667  0.97920  0.08333  Biso   1.000  Mn
  Mn3      1.0000 0.33333  0.31254  0.41667  Biso   1.000  Mn
  Mn4      1.0000 0.02080  0.68746  0.08333  Biso   1.000  Mn
  Mn5      1.0000 0.35413  0.35413  0.75000  Biso   1.000  Mn
  Mn6      1.0000 0.00000  0.64587  0.75000  Biso   1.000  Mn
  Mn7      1.0000 0.97920  0.66667  0.41667  Biso   1.000  Mn
  Mn8      1.0000 0.64587  0.00000  0.75000  Biso   1.000  Mn
  Mn9      1.0000 0.68746  0.02080  0.41667  Biso   1.000  Mn
  Mn10     1.0000 0.68746  0.66667  0.91667  Biso   1.000  Mn
  Mn11     1.0000 0.35413  0.00000  0.25000  Biso   1.000  Mn
  Mn12     1.0000 0.02080  0.33333  0.58333  Biso   1.000  Mn
  Mn13     1.0000 0.33333  0.02080  0.91667  Biso   1.000  Mn
  Mn14     1.0000 0.00000  0.35413  0.25000  Biso   1.000  Mn
  Mn15     1.0000 0.97920  0.31254  0.91667  Biso   1.000  Mn
  Mn16     1.0000 0.64587  0.64587  0.25000  Biso   1.000  Mn
  Mn17     1.0000 0.66667  0.68746  0.58333  Biso   1.000  Mn
  Mn18     1.0000 0.31254  0.97920  0.58333  Biso   1.000  Mn
  Mn19     1.0000 0.40265  0.40265  0.25000  Biso   1.000  Mn
  Mn20     1.0000 0.06932  0.73598  0.58333  Biso   1.000  Mn
  Mn21     1.0000 0.73598  0.06932  0.91667  Biso   1.000  Mn
  Mn22     1.0000 0.59735  0.00000  0.25000  Biso   1.000  Mn
  Mn23     1.0000 0.26402  0.33333  0.58333  Biso   1.000  Mn
  Mn24     1.0000 0.93068  0.66667  0.91667  Biso   1.000  Mn
  Mn25     1.0000 0.00000  0.59735  0.25000  Biso   1.000  Mn
  Mn26     1.0000 0.66667  0.93068  0.58333  Biso   1.000  Mn
  Mn27     1.0000 0.33333  0.26402  0.91667  Biso   1.000  Mn
  Mn28     1.0000 0.59735  0.59735  0.75000  Biso   1.000  Mn
  Mn29     1.0000 0.26402  0.93068  0.08333  Biso   1.000  Mn
  Mn30     1.0000 0.93068  0.26402  0.41667  Biso   1.000  Mn
  Mn31     1.0000 0.40265  0.00000  0.75000  Biso   1.000  Mn
  Mn32     1.0000 0.06932  0.33333  0.08333  Biso   1.000  Mn
  Mn33     1.0000 0.73598  0.66667  0.41667  Biso   1.000  Mn
  Mn34     1.0000 0.00000  0.40265  0.75000  Biso   1.000  Mn
  Mn35     1.0000 0.66667  0.73598  0.08333  Biso   1.000  Mn
  Mn36     1.0000 0.33333  0.06932  0.41667  Biso   1.000  Mn
