data_image0
_cell_length_a       20.0634
_cell_length_b       17.3159
_cell_length_c       15.642
_cell_angle_alpha    90
_cell_angle_beta     124.211
_cell_angle_gamma    90

_symmetry_space_group_name_H-M    "P 1"
_symmetry_int_tables_number       1

loop_
  _symmetry_equiv_pos_as_xyz
  'x, y, z'

loop_
  _atom_site_label
  _atom_site_occupancy
  _atom_site_fract_x
  _atom_site_fract_y
  _atom_site_fract_z
  _atom_site_thermal_displace_type
  _atom_site_B_iso_or_equiv
  _atom_site_type_symbol
  C1       1.0000 0.26070  0.63120  0.67530  Biso   1.000  C
  H1       1.0000 0.20540  0.62420  0.64900  Biso   1.000  H
  C2       1.0000 0.28190  0.69180  0.63740  Biso   1.000  C
  H2       1.0000 0.24120  0.72320  0.58330  Biso   1.000  H
  C3       1.0000 0.36090  0.70680  0.67730  Biso   1.000  C
  C4       1.0000 0.41410  0.65470  0.74520  Biso   1.000  C
  H3       1.0000 0.46980  0.65880  0.77190  Biso   1.000  H
  C5       1.0000 0.38580  0.59540  0.77480  Biso   1.000  C
  H4       1.0000 0.42450  0.55920  0.82260  Biso   1.000  H
  C6       1.0000 0.37200  0.90210  0.58710  Biso   1.000  C
  H5       1.0000 0.33980  0.94740  0.56430  Biso   1.000  H
  C7       1.0000 0.34600  0.84110  0.61700  Biso   1.000  C
  H6       1.0000 0.29860  0.84590  0.61630  Biso   1.000  H
  C8       1.0000 0.38770  0.77390  0.64670  Biso   1.000  C
  C9       1.0000 0.44980  0.77240  0.63570  Biso   1.000  C
  H7       1.0000 0.47880  0.72570  0.64800  Biso   1.000  H
  C10      1.0000 0.47170  0.83800  0.60670  Biso   1.000  C
  H8       1.0000 0.51610  0.83460  0.60070  Biso   1.000  H
  C11      1.0000 0.31290  0.59830  0.97290  Biso   1.000  C
  H9       1.0000 0.35560  0.56260  0.01190  Biso   1.000  H
  C12      1.0000 0.31060  0.66450  0.02430  Biso   1.000  C
  H10      1.0000 0.35200  0.67280  0.09520  Biso   1.000  H
  C13      1.0000 0.25170  0.71440  0.97450  Biso   1.000  C
  C14      1.0000 0.19490  0.69830  0.87640  Biso   1.000  C
  H11      1.0000 0.14890  0.73060  0.83730  Biso   1.000  H
  C15      1.0000 0.20410  0.63280  0.83170  Biso   1.000  C
  H12      1.0000 0.16460  0.62360  0.76040  Biso   1.000  H
  N1       1.0000 0.31230  0.58400  0.74420  Biso   1.000  N
  N2       1.0000 0.43560  0.90350  0.58750  Biso   1.000  N
  N3       1.0000 0.26230  0.58410  0.88010  Biso   1.000  N
  C16      1.0000 0.76070  0.13120  0.67530  Biso   1.000  C
  H13      1.0000 0.70540  0.12420  0.64900  Biso   1.000  H
  C17      1.0000 0.78190  0.19180  0.63740  Biso   1.000  C
  H14      1.0000 0.74120  0.22320  0.58330  Biso   1.000  H
  C18      1.0000 0.86090  0.20680  0.67730  Biso   1.000  C
  C19      1.0000 0.91410  0.15470  0.74520  Biso   1.000  C
  H15      1.0000 0.96980  0.15880  0.77190  Biso   1.000  H
  C20      1.0000 0.88580  0.09540  0.77480  Biso   1.000  C
  H16      1.0000 0.92450  0.05920  0.82260  Biso   1.000  H
  C21      1.0000 0.87200  0.40210  0.58710  Biso   1.000  C
  H17      1.0000 0.83980  0.44740  0.56430  Biso   1.000  H
  C22      1.0000 0.84600  0.34110  0.61700  Biso   1.000  C
  H18      1.0000 0.79860  0.34590  0.61630  Biso   1.000  H
  C23      1.0000 0.88770  0.27390  0.64670  Biso   1.000  C
  C24      1.0000 0.94980  0.27240  0.63570  Biso   1.000  C
  H19      1.0000 0.97880  0.22570  0.64800  Biso   1.000  H
  C25      1.0000 0.97170  0.33800  0.60670  Biso   1.000  C
  H20      1.0000 0.01610  0.33460  0.60070  Biso   1.000  H
  C26      1.0000 0.81290  0.09830  0.97290  Biso   1.000  C
  H21      1.0000 0.85560  0.06260  0.01190  Biso   1.000  H
  C27      1.0000 0.81060  0.16450  0.02430  Biso   1.000  C
  H22      1.0000 0.85200  0.17280  0.09520  Biso   1.000  H
  C28      1.0000 0.75170  0.21440  0.97450  Biso   1.000  C
  C29      1.0000 0.69490  0.19830  0.87640  Biso   1.000  C
  H23      1.0000 0.64890  0.23060  0.83730  Biso   1.000  H
  C30      1.0000 0.70410  0.13280  0.83170  Biso   1.000  C
  H24      1.0000 0.66460  0.12360  0.76040  Biso   1.000  H
  N4       1.0000 0.81230  0.08400  0.74420  Biso   1.000  N
  N5       1.0000 0.93560  0.40350  0.58750  Biso   1.000  N
  N6       1.0000 0.76230  0.08410  0.88010  Biso   1.000  N
  C31      1.0000 0.73930  0.63120  0.32470  Biso   1.000  C
  H25      1.0000 0.79460  0.62420  0.35100  Biso   1.000  H
  C32      1.0000 0.71810  0.69180  0.36260  Biso   1.000  C
  H26      1.0000 0.75880  0.72320  0.41670  Biso   1.000  H
  C33      1.0000 0.63910  0.70680  0.32270  Biso   1.000  C
  C34      1.0000 0.58590  0.65470  0.25480  Biso   1.000  C
  H27      1.0000 0.53020  0.65880  0.22810  Biso   1.000  H
  C35      1.0000 0.61420  0.59540  0.22520  Biso   1.000  C
  H28      1.0000 0.57550  0.55920  0.17740  Biso   1.000  H
  C36      1.0000 0.62800  0.90210  0.41290  Biso   1.000  C
  H29      1.0000 0.66020  0.94740  0.43570  Biso   1.000  H
  C37      1.0000 0.65400  0.84110  0.38300  Biso   1.000  C
  H30      1.0000 0.70140  0.84590  0.38370  Biso   1.000  H
  C38      1.0000 0.61230  0.77390  0.35330  Biso   1.000  C
  C39      1.0000 0.55020  0.77240  0.36430  Biso   1.000  C
  H31      1.0000 0.52120  0.72570  0.35200  Biso   1.000  H
  C40      1.0000 0.52830  0.83800  0.39330  Biso   1.000  C
  H32      1.0000 0.48390  0.83460  0.39930  Biso   1.000  H
  C41      1.0000 0.68710  0.59830  0.02710  Biso   1.000  C
  H33      1.0000 0.64440  0.56260  0.98810  Biso   1.000  H
  C42      1.0000 0.68940  0.66450  0.97570  Biso   1.000  C
  H34      1.0000 0.64800  0.67280  0.90480  Biso   1.000  H
  C43      1.0000 0.74830  0.71440  0.02550  Biso   1.000  C
  C44      1.0000 0.80510  0.69830  0.12360  Biso   1.000  C
  H35      1.0000 0.85110  0.73060  0.16270  Biso   1.000  H
  C45      1.0000 0.79590  0.63280  0.16830  Biso   1.000  C
  H36      1.0000 0.83540  0.62360  0.23960  Biso   1.000  H
  N7       1.0000 0.68770  0.58400  0.25580  Biso   1.000  N
  N8       1.0000 0.56440  0.90350  0.41250  Biso   1.000  N
  N9       1.0000 0.73770  0.58410  0.11990  Biso   1.000  N
  C46      1.0000 0.23930  0.13120  0.32470  Biso   1.000  C
  H37      1.0000 0.29460  0.12420  0.35100  Biso   1.000  H
  C47      1.0000 0.21810  0.19180  0.36260  Biso   1.000  C
  H38      1.0000 0.25880  0.22320  0.41670  Biso   1.000  H
  C48      1.0000 0.13910  0.20680  0.32270  Biso   1.000  C
  C49      1.0000 0.08590  0.15470  0.25480  Biso   1.000  C
  H39      1.0000 0.03020  0.15880  0.22810  Biso   1.000  H
  C50      1.0000 0.11420  0.09540  0.22520  Biso   1.000  C
  H40      1.0000 0.07550  0.05920  0.17740  Biso   1.000  H
  C51      1.0000 0.12800  0.40210  0.41290  Biso   1.000  C
  H41      1.0000 0.16020  0.44740  0.43570  Biso   1.000  H
  C52      1.0000 0.15400  0.34110  0.38300  Biso   1.000  C
  H42      1.0000 0.20140  0.34590  0.38370  Biso   1.000  H
  C53      1.0000 0.11230  0.27390  0.35330  Biso   1.000  C
  C54      1.0000 0.05020  0.27240  0.36430  Biso   1.000  C
  H43      1.0000 0.02120  0.22570  0.35200  Biso   1.000  H
  C55      1.0000 0.02830  0.33800  0.39330  Biso   1.000  C
  H44      1.0000 0.98390  0.33460  0.39930  Biso   1.000  H
  C56      1.0000 0.18710  0.09830  0.02710  Biso   1.000  C
  H45      1.0000 0.14440  0.06260  0.98810  Biso   1.000  H
  C57      1.0000 0.18940  0.16450  0.97570  Biso   1.000  C
  H46      1.0000 0.14800  0.17280  0.90480  Biso   1.000  H
  C58      1.0000 0.24830  0.21440  0.02550  Biso   1.000  C
  C59      1.0000 0.30510  0.19830  0.12360  Biso   1.000  C
  H47      1.0000 0.35110  0.23060  0.16270  Biso   1.000  H
  C60      1.0000 0.29590  0.13280  0.16830  Biso   1.000  C
  H48      1.0000 0.33540  0.12360  0.23960  Biso   1.000  H
  N10      1.0000 0.18770  0.08400  0.25580  Biso   1.000  N
  N11      1.0000 0.06440  0.40350  0.41250  Biso   1.000  N
  N12      1.0000 0.23770  0.08410  0.11990  Biso   1.000  N
  C61      1.0000 0.73930  0.36880  0.32470  Biso   1.000  C
  H49      1.0000 0.79460  0.37580  0.35100  Biso   1.000  H
  C62      1.0000 0.71810  0.30820  0.36260  Biso   1.000  C
  H50      1.0000 0.75880  0.27680  0.41670  Biso   1.000  H
  C63      1.0000 0.63910  0.29320  0.32270  Biso   1.000  C
  C64      1.0000 0.58590  0.34530  0.25480  Biso   1.000  C
  H51      1.0000 0.53020  0.34120  0.22810  Biso   1.000  H
  C65      1.0000 0.61420  0.40460  0.22520  Biso   1.000  C
  H52      1.0000 0.57550  0.44080  0.17740  Biso   1.000  H
  C66      1.0000 0.62800  0.09790  0.41290  Biso   1.000  C
  H53      1.0000 0.66020  0.05260  0.43570  Biso   1.000  H
  C67      1.0000 0.65400  0.15890  0.38300  Biso   1.000  C
  H54      1.0000 0.70140  0.15410  0.38370  Biso   1.000  H
  C68      1.0000 0.61230  0.22610  0.35330  Biso   1.000  C
  C69      1.0000 0.55020  0.22760  0.36430  Biso   1.000  C
  H55      1.0000 0.52120  0.27430  0.35200  Biso   1.000  H
  C70      1.0000 0.52830  0.16200  0.39330  Biso   1.000  C
  H56      1.0000 0.48390  0.16540  0.39930  Biso   1.000  H
  C71      1.0000 0.68710  0.40170  0.02710  Biso   1.000  C
  H57      1.0000 0.64440  0.43740  0.98810  Biso   1.000  H
  C72      1.0000 0.68940  0.33550  0.97570  Biso   1.000  C
  H58      1.0000 0.64800  0.32720  0.90480  Biso   1.000  H
  C73      1.0000 0.74830  0.28560  0.02550  Biso   1.000  C
  C74      1.0000 0.80510  0.30170  0.12360  Biso   1.000  C
  H59      1.0000 0.85110  0.26940  0.16270  Biso   1.000  H
  C75      1.0000 0.79590  0.36720  0.16830  Biso   1.000  C
  H60      1.0000 0.83540  0.37640  0.23960  Biso   1.000  H
  N13      1.0000 0.68770  0.41600  0.25580  Biso   1.000  N
  N14      1.0000 0.56440  0.09650  0.41250  Biso   1.000  N
  N15      1.0000 0.73770  0.41590  0.11990  Biso   1.000  N
  C76      1.0000 0.23930  0.86880  0.32470  Biso   1.000  C
  H61      1.0000 0.29460  0.87580  0.35100  Biso   1.000  H
  C77      1.0000 0.21810  0.80820  0.36260  Biso   1.000  C
  H62      1.0000 0.25880  0.77680  0.41670  Biso   1.000  H
  C78      1.0000 0.13910  0.79320  0.32270  Biso   1.000  C
  C79      1.0000 0.08590  0.84530  0.25480  Biso   1.000  C
  H63      1.0000 0.03020  0.84120  0.22810  Biso   1.000  H
  C80      1.0000 0.11420  0.90460  0.22520  Biso   1.000  C
  H64      1.0000 0.07550  0.94080  0.17740  Biso   1.000  H
  C81      1.0000 0.12800  0.59790  0.41290  Biso   1.000  C
  H65      1.0000 0.16020  0.55260  0.43570  Biso   1.000  H
  C82      1.0000 0.15400  0.65890  0.38300  Biso   1.000  C
  H66      1.0000 0.20140  0.65410  0.38370  Biso   1.000  H
  C83      1.0000 0.11230  0.72610  0.35330  Biso   1.000  C
  C84      1.0000 0.05020  0.72760  0.36430  Biso   1.000  C
  H67      1.0000 0.02120  0.77430  0.35200  Biso   1.000  H
  C85      1.0000 0.02830  0.66200  0.39330  Biso   1.000  C
  H68      1.0000 0.98390  0.66540  0.39930  Biso   1.000  H
  C86      1.0000 0.18710  0.90170  0.02710  Biso   1.000  C
  H69      1.0000 0.14440  0.93740  0.98810  Biso   1.000  H
  C87      1.0000 0.18940  0.83550  0.97570  Biso   1.000  C
  H70      1.0000 0.14800  0.82720  0.90480  Biso   1.000  H
  C88      1.0000 0.24830  0.78560  0.02550  Biso   1.000  C
  C89      1.0000 0.30510  0.80170  0.12360  Biso   1.000  C
  H71      1.0000 0.35110  0.76940  0.16270  Biso   1.000  H
  C90      1.0000 0.29590  0.86720  0.16830  Biso   1.000  C
  H72      1.0000 0.33540  0.87640  0.23960  Biso   1.000  H
  N16      1.0000 0.18770  0.91600  0.25580  Biso   1.000  N
  N17      1.0000 0.06440  0.59650  0.41250  Biso   1.000  N
  N18      1.0000 0.23770  0.91590  0.11990  Biso   1.000  N
  C91      1.0000 0.26070  0.36880  0.67530  Biso   1.000  C
  H73      1.0000 0.20540  0.37580  0.64900  Biso   1.000  H
  C92      1.0000 0.28190  0.30820  0.63740  Biso   1.000  C
  H74      1.0000 0.24120  0.27680  0.58330  Biso   1.000  H
  C93      1.0000 0.36090  0.29320  0.67730  Biso   1.000  C
  C94      1.0000 0.41410  0.34530  0.74520  Biso   1.000  C
  H75      1.0000 0.46980  0.34120  0.77190  Biso   1.000  H
  C95      1.0000 0.38580  0.40460  0.77480  Biso   1.000  C
  H76      1.0000 0.42450  0.44080  0.82260  Biso   1.000  H
  C96      1.0000 0.37200  0.09790  0.58710  Biso   1.000  C
  H77      1.0000 0.33980  0.05260  0.56430  Biso   1.000  H
  C97      1.0000 0.34600  0.15890  0.61700  Biso   1.000  C
  H78      1.0000 0.29860  0.15410  0.61630  Biso   1.000  H
  C98      1.0000 0.38770  0.22610  0.64670  Biso   1.000  C
  C99      1.0000 0.44980  0.22760  0.63570  Biso   1.000  C
  H79      1.0000 0.47880  0.27430  0.64800  Biso   1.000  H
  C100     1.0000 0.47170  0.16200  0.60670  Biso   1.000  C
  H80      1.0000 0.51610  0.16540  0.60070  Biso   1.000  H
  C101     1.0000 0.31290  0.40170  0.97290  Biso   1.000  C
  H81      1.0000 0.35560  0.43740  0.01190  Biso   1.000  H
  C102     1.0000 0.31060  0.33550  0.02430  Biso   1.000  C
  H82      1.0000 0.35200  0.32720  0.09520  Biso   1.000  H
  C103     1.0000 0.25170  0.28560  0.97450  Biso   1.000  C
  C104     1.0000 0.19490  0.30170  0.87640  Biso   1.000  C
  H83      1.0000 0.14890  0.26940  0.83730  Biso   1.000  H
  C105     1.0000 0.20410  0.36720  0.83170  Biso   1.000  C
  H84      1.0000 0.16460  0.37640  0.76040  Biso   1.000  H
  N19      1.0000 0.31230  0.41600  0.74420  Biso   1.000  N
  N20      1.0000 0.43560  0.09650  0.58750  Biso   1.000  N
  N21      1.0000 0.26230  0.41590  0.88010  Biso   1.000  N
  C106     1.0000 0.76070  0.86880  0.67530  Biso   1.000  C
  H85      1.0000 0.70540  0.87580  0.64900  Biso   1.000  H
  C107     1.0000 0.78190  0.80820  0.63740  Biso   1.000  C
  H86      1.0000 0.74120  0.77680  0.58330  Biso   1.000  H
  C108     1.0000 0.86090  0.79320  0.67730  Biso   1.000  C
  C109     1.0000 0.91410  0.84530  0.74520  Biso   1.000  C
  H87      1.0000 0.96980  0.84120  0.77190  Biso   1.000  H
  C110     1.0000 0.88580  0.90460  0.77480  Biso   1.000  C
  H88      1.0000 0.92450  0.94080  0.82260  Biso   1.000  H
  C111     1.0000 0.87200  0.59790  0.58710  Biso   1.000  C
  H89      1.0000 0.83980  0.55260  0.56430  Biso   1.000  H
  C112     1.0000 0.84600  0.65890  0.61700  Biso   1.000  C
  H90      1.0000 0.79860  0.65410  0.61630  Biso   1.000  H
  C113     1.0000 0.88770  0.72610  0.64670  Biso   1.000  C
  C114     1.0000 0.94980  0.72760  0.63570  Biso   1.000  C
  H91      1.0000 0.97880  0.77430  0.64800  Biso   1.000  H
  C115     1.0000 0.97170  0.66200  0.60670  Biso   1.000  C
  H92      1.0000 0.01610  0.66540  0.60070  Biso   1.000  H
  C116     1.0000 0.81290  0.90170  0.97290  Biso   1.000  C
  H93      1.0000 0.85560  0.93740  0.01190  Biso   1.000  H
  C117     1.0000 0.81060  0.83550  0.02430  Biso   1.000  C
  H94      1.0000 0.85200  0.82720  0.09520  Biso   1.000  H
  C118     1.0000 0.75170  0.78560  0.97450  Biso   1.000  C
  C119     1.0000 0.69490  0.80170  0.87640  Biso   1.000  C
  H95      1.0000 0.64890  0.76940  0.83730  Biso   1.000  H
  C120     1.0000 0.70410  0.86720  0.83170  Biso   1.000  C
  H96      1.0000 0.66460  0.87640  0.76040  Biso   1.000  H
  N22      1.0000 0.81230  0.91600  0.74420  Biso   1.000  N
  N23      1.0000 0.93560  0.59650  0.58750  Biso   1.000  N
  N24      1.0000 0.76230  0.91590  0.88010  Biso   1.000  N
  Cu1      1.0000 0.27654  0.50000  0.80102  Biso   1.000  Cu
  Cu2      1.0000 0.77654  0.00000  0.80102  Biso   1.000  Cu
  Cu3      1.0000 0.72346  0.50000  0.19898  Biso   1.000  Cu
  Cu4      1.0000 0.22346  0.00000  0.19898  Biso   1.000  Cu
  Cu5      1.0000 0.47161  0.00000  0.55227  Biso   1.000  Cu
  Cl1      1.0000 0.62260  0.00000  0.64760  Biso   1.000  Cl
  Cu6      1.0000 0.97161  0.50000  0.55227  Biso   1.000  Cu
  Cl2      1.0000 0.12260  0.50000  0.64760  Biso   1.000  Cl
  Cu7      1.0000 0.52839  0.00000  0.44773  Biso   1.000  Cu
  Cl3      1.0000 0.37740  0.00000  0.35240  Biso   1.000  Cl
  Cu8      1.0000 0.02839  0.50000  0.44773  Biso   1.000  Cu
  Cl4      1.0000 0.87740  0.50000  0.35240  Biso   1.000  Cl
