data_image0
_cell_length_a       21.5326
_cell_length_b       21.4882
_cell_length_c       21.6373
_cell_angle_alpha    94.3385
_cell_angle_beta     118.784
_cell_angle_gamma    117.537

_symmetry_space_group_name_H-M    "P 1"
_symmetry_int_tables_number       1

loop_
  _symmetry_equiv_pos_as_xyz
  'x, y, z'

loop_
  _atom_site_label
  _atom_site_occupancy
  _atom_site_fract_x
  _atom_site_fract_y
  _atom_site_fract_z
  _atom_site_thermal_displace_type
  _atom_site_B_iso_or_equiv
  _atom_site_type_symbol
  O1       1.0000 0.60591  0.66976  0.70253  Biso   1.000  O
  O2       1.0000 0.62485  0.57246  0.70019  Biso   1.000  O
  C1       1.0000 0.65070  0.64158  0.73475  Biso   1.000  C
  O3       1.0000 0.44131  0.54104  0.63778  Biso   1.000  O
  O4       1.0000 0.45498  0.45050  0.59260  Biso   1.000  O
  C2       1.0000 0.41385  0.46926  0.61078  Biso   1.000  C
  Cu1      1.0000 0.49708  0.61109  0.60022  Biso   1.000  Cu
  Cu2      1.0000 0.54901  0.52425  0.58891  Biso   1.000  Cu
  O5       1.0000 0.39736  0.54039  0.49587  Biso   1.000  O
  O6       1.0000 0.46598  0.49021  0.47934  Biso   1.000  O
  O7       1.0000 0.55850  0.66617  0.55887  Biso   1.000  O
  O8       1.0000 0.63337  0.61035  0.58431  Biso   1.000  O
  C3       1.0000 0.40408  0.50076  0.45280  Biso   1.000  C
  C4       1.0000 0.61346  0.65637  0.55676  Biso   1.000  C
  H1       1.0000 0.30113  0.93157  0.69864  Biso   1.000  H
  C5       1.0000 0.25245  0.99918  0.66922  Biso   1.000  C
  C6       1.0000 0.22136  0.03650  0.68611  Biso   1.000  C
  C7       1.0000 0.22268  0.04130  0.75120  Biso   1.000  C
  H2       1.0000 0.20006  0.07173  0.76542  Biso   1.000  H
  C8       1.0000 0.25632  0.00910  0.79914  Biso   1.000  C
  C9       1.0000 0.28109  0.96732  0.77772  Biso   1.000  C
  H3       1.0000 0.30196  0.93712  0.81092  Biso   1.000  H
  C10      1.0000 0.28046  0.96346  0.71400  Biso   1.000  C
  C11      1.0000 0.34512  0.02953  0.93214  Biso   1.000  C
  H4       1.0000 0.39367  0.04063  0.92307  Biso   1.000  H
  C12      1.0000 0.35564  0.02035  0.99796  Biso   1.000  C
  C13      1.0000 0.29605  0.01373  0.01118  Biso   1.000  C
  H5       1.0000 0.30423  0.00800  0.06329  Biso   1.000  H
  C14      1.0000 0.22537  0.01347  0.95662  Biso   1.000  C
  C15      1.0000 0.21164  0.01359  0.88681  Biso   1.000  C
  H6       1.0000 0.15433  0.00777  0.84190  Biso   1.000  H
  C16      1.0000 0.27099  0.01968  0.87413  Biso   1.000  C
  H7       1.0000 0.25012  0.99290  0.61799  Biso   1.000  H
  H8       1.0000 0.68473  0.87945  0.89608  Biso   1.000  H
  C17      1.0000 0.81876  0.96632  0.95949  Biso   1.000  C
  C18      1.0000 0.89595  0.00940  0.03090  Biso   1.000  C
  C19      1.0000 0.89728  0.00999  0.09585  Biso   1.000  C
  H9       1.0000 0.95843  0.04559  0.15120  Biso   1.000  H
  C20      1.0000 0.82079  0.96503  0.08891  Biso   1.000  C
  C21      1.0000 0.74571  0.91492  0.01600  Biso   1.000  C
  H10      1.0000 0.68616  0.87216  0.00679  Biso   1.000  H
  C22      1.0000 0.74421  0.91777  0.95217  Biso   1.000  C
  C23      1.0000 0.88497  0.99780  0.23041  Biso   1.000  C
  H11      1.0000 0.94573  0.01143  0.24291  Biso   1.000  H
  C24      1.0000 0.87773  0.00873  0.29047  Biso   1.000  C
  C25      1.0000 0.79780  0.98922  0.27396  Biso   1.000  C
  H12      1.0000 0.79102  0.99689  0.31978  Biso   1.000  H
  C26      1.0000 0.72637  0.95801  0.19789  Biso   1.000  C
  C27      1.0000 0.73857  0.95235  0.14122  Biso   1.000  C
  H13      1.0000 0.68894  0.94144  0.08503  Biso   1.000  H
  C28      1.0000 0.81566  0.97075  0.15526  Biso   1.000  C
  H14      1.0000 0.81746  0.96333  0.90876  Biso   1.000  H
  H15      1.0000 0.93167  0.19229  0.23931  Biso   1.000  H
  C29      1.0000 0.80442  0.15171  0.20377  Biso   1.000  C
  C30      1.0000 0.74583  0.16853  0.19113  Biso   1.000  C
  C31      1.0000 0.76936  0.24229  0.20201  Biso   1.000  C
  H16      1.0000 0.72275  0.25553  0.18857  Biso   1.000  H
  C32      1.0000 0.85157  0.29738  0.22404  Biso   1.000  C
  C33      1.0000 0.90992  0.27931  0.23865  Biso   1.000  C
  H17      1.0000 0.97556  0.32226  0.25963  Biso   1.000  H
  C34      1.0000 0.88631  0.20652  0.22846  Biso   1.000  C
  C35      1.0000 0.93000  0.40984  0.20703  Biso   1.000  C
  H18      1.0000 0.92848  0.37408  0.16776  Biso   1.000  H
  C36      1.0000 0.98548  0.48743  0.23594  Biso   1.000  C
  C37      1.0000 0.98586  0.53216  0.28647  Biso   1.000  C
  H19      1.0000 0.03115  0.59325  0.31149  Biso   1.000  H
  C38      1.0000 0.93002  0.49740  0.30715  Biso   1.000  C
  C39      1.0000 0.87726  0.41843  0.27902  Biso   1.000  C
  H20      1.0000 0.84013  0.38882  0.29976  Biso   1.000  H
  C40      1.0000 0.88080  0.37555  0.23228  Biso   1.000  C
  H21      1.0000 0.78614  0.09455  0.19402  Biso   1.000  H
  H22      1.0000 0.00326  0.41274  0.72717  Biso   1.000  H
  C41      1.0000 0.01101  0.50321  0.68991  Biso   1.000  C
  C42      1.0000 0.05587  0.58086  0.70895  Biso   1.000  C
  C43      1.0000 0.12281  0.62960  0.78450  Biso   1.000  C
  H23      1.0000 0.15506  0.69027  0.79993  Biso   1.000  H
  C44      1.0000 0.14313  0.59913  0.84000  Biso   1.000  C
  C45      1.0000 0.10291  0.52129  0.81794  Biso   1.000  C
  H24      1.0000 0.12148  0.49640  0.85916  Biso   1.000  H
  C46      1.0000 0.03625  0.47357  0.74349  Biso   1.000  C
  C47      1.0000 0.27389  0.71722  0.95523  Biso   1.000  C
  H25      1.0000 0.29124  0.73943  0.91880  Biso   1.000  H
  C48      1.0000 0.32507  0.75910  0.03349  Biso   1.000  C
  C49      1.0000 0.30152  0.72708  0.07849  Biso   1.000  C
  H26      1.0000 0.34024  0.75928  0.13902  Biso   1.000  H
  C50      1.0000 0.22626  0.65462  0.04454  Biso   1.000  C
  C51      1.0000 0.17584  0.61576  0.96698  Biso   1.000  C
  H27      1.0000 0.11466  0.56201  0.93995  Biso   1.000  H
  C52      1.0000 0.19975  0.64546  0.92219  Biso   1.000  C
  H28      1.0000 0.95830  0.46439  0.63160  Biso   1.000  H
  O9       1.0000 0.61614  0.09401  0.18563  Biso   1.000  O
  O10      1.0000 0.63172  0.04811  0.09698  Biso   1.000  O
  C53      1.0000 0.65759  0.10292  0.15372  Biso   1.000  C
  O11      1.0000 0.63232  0.97902  0.21566  Biso   1.000  O
  O12      1.0000 0.57986  0.90529  0.09664  Biso   1.000  O
  C54      1.0000 0.64060  0.94259  0.17100  Biso   1.000  C
  Cu3      1.0000 0.53680  0.99087  0.17202  Biso   1.000  Cu
  Cu4      1.0000 0.52024  0.95104  0.04519  Biso   1.000  Cu
  O13      1.0000 0.45506  0.88140  0.13834  Biso   1.000  O
  O14      1.0000 0.41133  0.86005  0.01334  Biso   1.000  O
  O15      1.0000 0.43981  0.99798  0.10852  Biso   1.000  O
  O16      1.0000 0.46335  0.00334  0.01450  Biso   1.000  O
  C55      1.0000 0.40119  0.83722  0.06431  Biso   1.000  C
  C56      1.0000 0.42446  0.00902  0.04455  Biso   1.000  C
  H29      1.0000 0.38753  0.38797  0.08985  Biso   1.000  H
  C57      1.0000 0.29583  0.28384  0.08388  Biso   1.000  C
  C58      1.0000 0.25069  0.24976  0.11351  Biso   1.000  C
  C59      1.0000 0.26227  0.29421  0.17308  Biso   1.000  C
  H30      1.0000 0.22371  0.26814  0.19375  Biso   1.000  H
  C60      1.0000 0.31596  0.37270  0.19997  Biso   1.000  C
  C61      1.0000 0.36125  0.40596  0.17028  Biso   1.000  C
  H31      1.0000 0.40239  0.46717  0.19050  Biso   1.000  H
  C62      1.0000 0.35246  0.36161  0.11338  Biso   1.000  C
  C63      1.0000 0.28317  0.46273  0.22270  Biso   1.000  C
  H32      1.0000 0.25819  0.45606  0.16398  Biso   1.000  H
  C64      1.0000 0.28024  0.50931  0.26759  Biso   1.000  C
  C65      1.0000 0.31415  0.51766  0.34226  Biso   1.000  C
  H33      1.0000 0.31360  0.55535  0.37766  Biso   1.000  H
  C66      1.0000 0.35026  0.47873  0.37116  Biso   1.000  C
  C67      1.0000 0.34871  0.42895  0.32492  Biso   1.000  C
  H34      1.0000 0.37727  0.39867  0.34740  Biso   1.000  H
  C68      1.0000 0.31515  0.42124  0.25034  Biso   1.000  C
  H35      1.0000 0.28674  0.24954  0.03711  Biso   1.000  H
  H36      1.0000 0.89073  0.24644  0.36202  Biso   1.000  H
  C69      1.0000 0.95159  0.35533  0.44022  Biso   1.000  C
  C70      1.0000 0.02878  0.42297  0.49595  Biso   1.000  C
  C71      1.0000 0.10657  0.43195  0.52358  Biso   1.000  C
  H37      1.0000 0.16651  0.48325  0.57074  Biso   1.000  H
  C72      1.0000 0.10545  0.37222  0.49313  Biso   1.000  C
  C73      1.0000 0.02771  0.30862  0.43044  Biso   1.000  C
  H38      1.0000 0.02507  0.26310  0.40171  Biso   1.000  H
  C74      1.0000 0.95120  0.29862  0.40697  Biso   1.000  C
  C75      1.0000 0.26413  0.42392  0.56256  Biso   1.000  C
  H39      1.0000 0.28057  0.47973  0.56291  Biso   1.000  H
  C76      1.0000 0.32613  0.40780  0.58695  Biso   1.000  C
  C77      1.0000 0.29951  0.33187  0.57552  Biso   1.000  C
  H40      1.0000 0.34498  0.31699  0.58993  Biso   1.000  H
  C78      1.0000 0.21456  0.27618  0.54854  Biso   1.000  C
  C79      1.0000 0.15906  0.29655  0.53215  Biso   1.000  C
  H41      1.0000 0.09503  0.25383  0.51474  Biso   1.000  H
  C80      1.0000 0.17927  0.36650  0.53131  Biso   1.000  C
  H42      1.0000 0.89057  0.34776  0.41810  Biso   1.000  H
  H43      1.0000 0.55859  0.73548  0.35842  Biso   1.000  H
  C81      1.0000 0.58666  0.70311  0.45399  Biso   1.000  C
  C82      1.0000 0.63989  0.68827  0.50927  Biso   1.000  C
  C83      1.0000 0.71010  0.69782  0.51295  Biso   1.000  C
  H44      1.0000 0.75290  0.68765  0.55659  Biso   1.000  H
  C84      1.0000 0.72742  0.72439  0.46265  Biso   1.000  C
  C85      1.0000 0.67161  0.73631  0.40655  Biso   1.000  C
  H45      1.0000 0.68225  0.75426  0.36524  Biso   1.000  H
  C86      1.0000 0.60176  0.72583  0.40237  Biso   1.000  C
  C87      1.0000 0.85186  0.81383  0.46526  Biso   1.000  C
  H46      1.0000 0.82882  0.84970  0.45914  Biso   1.000  H
  C88      1.0000 0.92619  0.83716  0.47038  Biso   1.000  C
  C89      1.0000 0.95682  0.79193  0.48150  Biso   1.000  C
  H47      1.0000 0.01563  0.80996  0.48676  Biso   1.000  H
  C90      1.0000 0.91140  0.72318  0.48584  Biso   1.000  C
  C91      1.0000 0.83665  0.70050  0.48040  Biso   1.000  C
  H48      1.0000 0.80089  0.64688  0.48355  Biso   1.000  H
  C92      1.0000 0.80696  0.74610  0.47029  Biso   1.000  C
  H49      1.0000 0.52994  0.69408  0.44780  Biso   1.000  H
  H50      1.0000 0.87000  0.49852  0.80968  Biso   1.000  H
  C93      1.0000 0.94435  0.54690  0.93101  Biso   1.000  C
  C94      1.0000 0.96997  0.59930  0.99446  Biso   1.000  C
  C95      1.0000 0.93869  0.64303  0.98588  Biso   1.000  C
  H51      1.0000 0.95624  0.68212  0.03518  Biso   1.000  H
  C96      1.0000 0.87979  0.63207  0.91308  Biso   1.000  C
  C97      1.0000 0.85577  0.58116  0.84981  Biso   1.000  C
  H52      1.0000 0.81273  0.57550  0.79278  Biso   1.000  H
  C98      1.0000 0.88865  0.53873  0.85885  Biso   1.000  C
  C99      1.0000 0.76299  0.64587  0.84518  Biso   1.000  C
  H53      1.0000 0.71956  0.58484  0.82398  Biso   1.000  H
  C100     1.0000 0.73562  0.68747  0.81019  Biso   1.000  C
  C101     1.0000 0.79595  0.76646  0.83834  Biso   1.000  C
  H54      1.0000 0.77682  0.80020  0.81017  Biso   1.000  H
  C102     1.0000 0.88238  0.80066  0.90057  Biso   1.000  C
  C103     1.0000 0.90669  0.75552  0.93068  Biso   1.000  C
  H55      1.0000 0.97378  0.77836  0.97245  Biso   1.000  H
  C104     1.0000 0.84813  0.67902  0.90090  Biso   1.000  C
  H56      1.0000 0.96717  0.51085  0.93701  Biso   1.000  H
  O17      1.0000 0.17813  0.12588  0.11603  Biso   1.000  O
  O18      1.0000 0.13457  0.13942  0.00004  Biso   1.000  O
  C105     1.0000 0.18443  0.16778  0.07512  Biso   1.000  C
  O19      1.0000 0.18586  0.02265  0.04191  Biso   1.000  O
  O20      1.0000 0.09574  0.00714  0.91779  Biso   1.000  O
  C106     1.0000 0.16531  0.01308  0.97236  Biso   1.000  C
  Cu5      1.0000 0.10824  0.01503  0.06816  Biso   1.000  Cu
  Cu6      1.0000 0.03221  0.03490  0.94052  Biso   1.000  Cu
  O21      1.0000 0.02612  0.90749  0.00103  Biso   1.000  O
  O22      1.0000 0.94053  0.92724  0.90000  Biso   1.000  O
  O23      1.0000 0.01949  0.01046  0.07544  Biso   1.000  O
  O24      1.0000 0.97978  0.05905  0.98239  Biso   1.000  O
  C107     1.0000 0.95242  0.88245  0.93520  Biso   1.000  C
  C108     1.0000 0.97345  0.03418  0.03450  Biso   1.000  C
  O25      1.0000 0.23704  0.65695  0.16057  Biso   1.000  O
  O26      1.0000 0.11632  0.55322  0.04700  Biso   1.000  O
  C109     1.0000 0.19278  0.61954  0.08662  Biso   1.000  C
  O27      1.0000 0.23278  0.59396  0.26566  Biso   1.000  O
  O28      1.0000 0.17179  0.49698  0.15576  Biso   1.000  O
  C110     1.0000 0.22827  0.53734  0.22905  Biso   1.000  C
  Cu7      1.0000 0.17205  0.63528  0.20438  Biso   1.000  Cu
  Cu8      1.0000 0.07098  0.49974  0.09976  Biso   1.000  Cu
  O29      1.0000 0.09050  0.59240  0.23091  Biso   1.000  O
  O30      1.0000 0.04233  0.46931  0.17013  Biso   1.000  O
  O31      1.0000 0.09508  0.65371  0.12479  Biso   1.000  O
  O32      1.0000 0.98624  0.52412  0.06074  Biso   1.000  O
  C111     1.0000 0.04319  0.51833  0.21229  Biso   1.000  C
  C112     1.0000 0.01672  0.59442  0.06671  Biso   1.000  C
  O33      1.0000 0.11059  0.05701  0.61814  Biso   1.000  O
  O34      1.0000 0.19733  0.06963  0.57897  Biso   1.000  O
  C113     1.0000 0.17768  0.06045  0.62804  Biso   1.000  C
  O35      1.0000 0.95159  0.95790  0.48360  Biso   1.000  O
  O36      1.0000 0.04129  0.93710  0.46939  Biso   1.000  O
  C114     1.0000 0.97475  0.91368  0.47280  Biso   1.000  C
  Cu9      1.0000 0.03467  0.06791  0.52925  Biso   1.000  Cu
  Cu10     1.0000 0.10664  0.03917  0.47250  Biso   1.000  Cu
  O37      1.0000 0.96762  0.07211  0.43053  Biso   1.000  O
  O38      1.0000 0.00433  0.01243  0.37469  Biso   1.000  O
  O39      1.0000 0.12956  0.17332  0.56682  Biso   1.000  O
  O40      1.0000 0.16228  0.14629  0.48576  Biso   1.000  O
  C115     1.0000 0.95331  0.03286  0.36919  Biso   1.000  C
  C116     1.0000 0.17492  0.19559  0.53873  Biso   1.000  C
  O41      1.0000 0.09129  0.64086  0.63173  Biso   1.000  O
  O42      1.0000 0.94965  0.56897  0.59162  Biso   1.000  O
  C117     1.0000 0.03275  0.60570  0.64495  Biso   1.000  C
  O43      1.0000 0.02144  0.69929  0.52975  Biso   1.000  O
  O44      1.0000 0.87810  0.59900  0.46324  Biso   1.000  O
  C118     1.0000 0.93887  0.67177  0.49324  Biso   1.000  C
  Cu11     1.0000 0.06080  0.63361  0.52924  Biso   1.000  Cu
  Cu12     1.0000 0.90478  0.52472  0.48532  Biso   1.000  Cu
  O45      1.0000 0.00750  0.60811  0.41982  Biso   1.000  O
  O46      1.0000 0.88390  0.49631  0.38614  Biso   1.000  O
  O47      1.0000 0.07656  0.55161  0.52137  Biso   1.000  O
  O48      1.0000 0.95458  0.46663  0.51365  Biso   1.000  O
  C119     1.0000 0.93846  0.53846  0.37151  Biso   1.000  C
  C120     1.0000 0.02388  0.48511  0.51736  Biso   1.000  C
