data_image0
_cell_length_a       40.2669
_cell_length_b       13.9032
_cell_length_c       25.9948
_cell_angle_alpha    90
_cell_angle_beta     104.201
_cell_angle_gamma    90

_symmetry_space_group_name_H-M    "P 1"
_symmetry_int_tables_number       1

loop_
  _symmetry_equiv_pos_as_xyz
  'x, y, z'

loop_
  _atom_site_label
  _atom_site_occupancy
  _atom_site_fract_x
  _atom_site_fract_y
  _atom_site_fract_z
  _atom_site_thermal_displace_type
  _atom_site_B_iso_or_equiv
  _atom_site_type_symbol
  Co1      1.0000 0.79425  0.52614  0.53803  Biso   1.000  Co
  O1       1.0000 0.30269  0.17860  0.51551  Biso   1.000  O
  O2       1.0000 0.72977  0.37814  0.96317  Biso   1.000  O
  O3       1.0000 0.33858  0.11303  0.58444  Biso   1.000  O
  O4       1.0000 0.74125  0.69880  0.57148  Biso   1.000  O
  O5       1.0000 0.31042  0.88653  0.57172  Biso   1.000  O
  O6       1.0000 0.75969  0.51221  0.96760  Biso   1.000  O
  O7       1.0000 0.76347  0.54981  0.59016  Biso   1.000  O
  O8       1.0000 0.33936  0.93775  0.51564  Biso   1.000  O
  N1       1.0000 0.40933  0.52539  0.58247  Biso   1.000  N
  N2       1.0000 0.65931  0.55971  0.73845  Biso   1.000  N
  C1       1.0000 0.71438  0.48711  0.89140  Biso   1.000  C
  C2       1.0000 0.36340  0.42854  0.52971  Biso   1.000  C
  H1       1.0000 0.35810  0.47940  0.50460  Biso   1.000  H
  C3       1.0000 0.39078  0.61373  0.57358  Biso   1.000  C
  C4       1.0000 0.39051  0.43767  0.57378  Biso   1.000  C
  C5       1.0000 0.44487  0.52641  0.60598  Biso   1.000  C
  C6       1.0000 0.73661  0.45703  0.94541  Biso   1.000  C
  C7       1.0000 0.67599  0.53526  0.79084  Biso   1.000  C
  C8       1.0000 0.36176  0.62470  0.59143  Biso   1.000  C
  H2       1.0000 0.35420  0.57380  0.61010  Biso   1.000  H
  C9       1.0000 0.72132  0.60227  0.63188  Biso   1.000  C
  C10      1.0000 0.35411  0.78376  0.55620  Biso   1.000  C
  C11      1.0000 0.72876  0.53046  0.67006  Biso   1.000  C
  H3       1.0000 0.74830  0.49100  0.67240  Biso   1.000  H
  C12      1.0000 0.34390  0.34533  0.52208  Biso   1.000  C
  H4       1.0000 0.32520  0.33930  0.49180  Biso   1.000  H
  C13      1.0000 0.68005  0.57313  0.70184  Biso   1.000  C
  C14      1.0000 0.37967  0.27984  0.60197  Biso   1.000  C
  H5       1.0000 0.38590  0.22810  0.62630  Biso   1.000  H
  C15      1.0000 0.62362  0.54343  0.71841  Biso   1.000  C
  C16      1.0000 0.68746  0.42931  0.86566  Biso   1.000  C
  H6       1.0000 0.68220  0.37250  0.88240  Biso   1.000  H
  C17      1.0000 0.38373  0.77277  0.53724  Biso   1.000  C
  H7       1.0000 0.39100  0.82350  0.51810  Biso   1.000  H
  C18      1.0000 0.45910  0.59660  0.64181  Biso   1.000  C
  H8       1.0000 0.44500  0.64520  0.65100  Biso   1.000  H
  C19      1.0000 0.72150  0.57039  0.86795  Biso   1.000  C
  H9       1.0000 0.73970  0.61050  0.88600  Biso   1.000  H
  C20      1.0000 0.70853  0.51549  0.70426  Biso   1.000  C
  H10      1.0000 0.71390  0.46550  0.72980  Biso   1.000  H
  C21      1.0000 0.35160  0.27015  0.55888  Biso   1.000  C
  C22      1.0000 0.74355  0.61882  0.59426  Biso   1.000  C
  C23      1.0000 0.70234  0.59628  0.81822  Biso   1.000  C
  H11      1.0000 0.70690  0.65500  0.80260  Biso   1.000  H
  C24      1.0000 0.49429  0.59656  0.66469  Biso   1.000  C
  H12      1.0000 0.50370  0.64620  0.68900  Biso   1.000  H
  C25      1.0000 0.39875  0.36371  0.61003  Biso   1.000  C
  H13      1.0000 0.41740  0.37030  0.64030  Biso   1.000  H
  C26      1.0000 0.33013  0.18362  0.55290  Biso   1.000  C
  C27      1.0000 0.34346  0.70994  0.58232  Biso   1.000  C
  H14      1.0000 0.32320  0.71680  0.59450  Biso   1.000  H
  C28      1.0000 0.46592  0.45594  0.59331  Biso   1.000  C
  H15      1.0000 0.45640  0.40690  0.56860  Biso   1.000  H
  C29      1.0000 0.67245  0.64481  0.66382  Biso   1.000  C
  H16      1.0000 0.65280  0.68400  0.66130  Biso   1.000  H
  C30      1.0000 0.61098  0.50600  0.66855  Biso   1.000  C
  H17      1.0000 0.62630  0.48530  0.64830  Biso   1.000  H
  C31      1.0000 0.40211  0.68945  0.54629  Biso   1.000  C
  H18      1.0000 0.42240  0.68260  0.53430  Biso   1.000  H
  C32      1.0000 0.60142  0.57097  0.74917  Biso   1.000  C
  H19      1.0000 0.61000  0.59440  0.78430  Biso   1.000  H
  C33      1.0000 0.69301  0.65957  0.63005  Biso   1.000  C
  H20      1.0000 0.68780  0.71020  0.60480  Biso   1.000  H
  C34      1.0000 0.66802  0.45426  0.81512  Biso   1.000  C
  H21      1.0000 0.64930  0.41500  0.79770  Biso   1.000  H
  C35      1.0000 0.51553  0.52785  0.65343  Biso   1.000  C
  C36      1.0000 0.57546  0.49820  0.64738  Biso   1.000  C
  H22      1.0000 0.56680  0.47250  0.61280  Biso   1.000  H
  C37      1.0000 0.33340  0.87492  0.54693  Biso   1.000  C
  C38      1.0000 0.50056  0.45687  0.61650  Biso   1.000  C
  H23      1.0000 0.51470  0.40830  0.60730  Biso   1.000  H
  C39      1.0000 0.55290  0.52834  0.67750  Biso   1.000  C
  C40      1.0000 0.56636  0.56337  0.72723  Biso   1.000  C
  H24      1.0000 0.55110  0.58350  0.74780  Biso   1.000  H
  Co2      1.0000 0.29425  0.02614  0.53803  Biso   1.000  Co
  O9       1.0000 0.80269  0.67860  0.51551  Biso   1.000  O
  O10      1.0000 0.22977  0.87814  0.96317  Biso   1.000  O
  O11      1.0000 0.83858  0.61303  0.58444  Biso   1.000  O
  O12      1.0000 0.24125  0.19880  0.57148  Biso   1.000  O
  O13      1.0000 0.81042  0.38653  0.57172  Biso   1.000  O
  O14      1.0000 0.25969  0.01221  0.96760  Biso   1.000  O
  O15      1.0000 0.26347  0.04981  0.59016  Biso   1.000  O
  O16      1.0000 0.83936  0.43775  0.51564  Biso   1.000  O
  N3       1.0000 0.90933  0.02539  0.58247  Biso   1.000  N
  N4       1.0000 0.15931  0.05971  0.73845  Biso   1.000  N
  C41      1.0000 0.21438  0.98711  0.89140  Biso   1.000  C
  C42      1.0000 0.86340  0.92854  0.52971  Biso   1.000  C
  H25      1.0000 0.85810  0.97940  0.50460  Biso   1.000  H
  C43      1.0000 0.89078  0.11373  0.57358  Biso   1.000  C
  C44      1.0000 0.89051  0.93767  0.57378  Biso   1.000  C
  C45      1.0000 0.94487  0.02641  0.60598  Biso   1.000  C
  C46      1.0000 0.23661  0.95703  0.94541  Biso   1.000  C
  C47      1.0000 0.17599  0.03526  0.79084  Biso   1.000  C
  C48      1.0000 0.86176  0.12470  0.59143  Biso   1.000  C
  H26      1.0000 0.85420  0.07380  0.61010  Biso   1.000  H
  C49      1.0000 0.22132  0.10227  0.63188  Biso   1.000  C
  C50      1.0000 0.85411  0.28376  0.55620  Biso   1.000  C
  C51      1.0000 0.22876  0.03046  0.67006  Biso   1.000  C
  H27      1.0000 0.24830  0.99100  0.67240  Biso   1.000  H
  C52      1.0000 0.84390  0.84533  0.52208  Biso   1.000  C
  H28      1.0000 0.82520  0.83930  0.49180  Biso   1.000  H
  C53      1.0000 0.18005  0.07313  0.70184  Biso   1.000  C
  C54      1.0000 0.87967  0.77984  0.60197  Biso   1.000  C
  H29      1.0000 0.88590  0.72810  0.62630  Biso   1.000  H
  C55      1.0000 0.12362  0.04343  0.71841  Biso   1.000  C
  C56      1.0000 0.18746  0.92931  0.86566  Biso   1.000  C
  H30      1.0000 0.18220  0.87250  0.88240  Biso   1.000  H
  C57      1.0000 0.88373  0.27277  0.53724  Biso   1.000  C
  H31      1.0000 0.89100  0.32350  0.51810  Biso   1.000  H
  C58      1.0000 0.95910  0.09660  0.64181  Biso   1.000  C
  H32      1.0000 0.94500  0.14520  0.65100  Biso   1.000  H
  C59      1.0000 0.22150  0.07039  0.86795  Biso   1.000  C
  H33      1.0000 0.23970  0.11050  0.88600  Biso   1.000  H
  C60      1.0000 0.20853  0.01549  0.70426  Biso   1.000  C
  H34      1.0000 0.21390  0.96550  0.72980  Biso   1.000  H
  C61      1.0000 0.85160  0.77015  0.55888  Biso   1.000  C
  C62      1.0000 0.24355  0.11882  0.59426  Biso   1.000  C
  C63      1.0000 0.20234  0.09628  0.81822  Biso   1.000  C
  H35      1.0000 0.20690  0.15500  0.80260  Biso   1.000  H
  C64      1.0000 0.99429  0.09656  0.66469  Biso   1.000  C
  H36      1.0000 0.00370  0.14620  0.68900  Biso   1.000  H
  C65      1.0000 0.89875  0.86371  0.61003  Biso   1.000  C
  H37      1.0000 0.91740  0.87030  0.64030  Biso   1.000  H
  C66      1.0000 0.83013  0.68362  0.55290  Biso   1.000  C
  C67      1.0000 0.84346  0.20994  0.58232  Biso   1.000  C
  H38      1.0000 0.82320  0.21680  0.59450  Biso   1.000  H
  C68      1.0000 0.96592  0.95594  0.59331  Biso   1.000  C
  H39      1.0000 0.95640  0.90690  0.56860  Biso   1.000  H
  C69      1.0000 0.17245  0.14481  0.66382  Biso   1.000  C
  H40      1.0000 0.15280  0.18400  0.66130  Biso   1.000  H
  C70      1.0000 0.11098  0.00600  0.66855  Biso   1.000  C
  H41      1.0000 0.12630  0.98530  0.64830  Biso   1.000  H
  C71      1.0000 0.90211  0.18945  0.54629  Biso   1.000  C
  H42      1.0000 0.92240  0.18260  0.53430  Biso   1.000  H
  C72      1.0000 0.10142  0.07097  0.74917  Biso   1.000  C
  H43      1.0000 0.11000  0.09440  0.78430  Biso   1.000  H
  C73      1.0000 0.19301  0.15957  0.63005  Biso   1.000  C
  H44      1.0000 0.18780  0.21020  0.60480  Biso   1.000  H
  C74      1.0000 0.16802  0.95426  0.81512  Biso   1.000  C
  H45      1.0000 0.14930  0.91500  0.79770  Biso   1.000  H
  C75      1.0000 0.01553  0.02785  0.65343  Biso   1.000  C
  C76      1.0000 0.07546  0.99820  0.64738  Biso   1.000  C
  H46      1.0000 0.06680  0.97250  0.61280  Biso   1.000  H
  C77      1.0000 0.83340  0.37492  0.54693  Biso   1.000  C
  C78      1.0000 0.00056  0.95687  0.61650  Biso   1.000  C
  H47      1.0000 0.01470  0.90830  0.60730  Biso   1.000  H
  C79      1.0000 0.05290  0.02834  0.67750  Biso   1.000  C
  C80      1.0000 0.06636  0.06337  0.72723  Biso   1.000  C
  H48      1.0000 0.05110  0.08350  0.74780  Biso   1.000  H
  Co3      1.0000 0.20575  0.52614  0.96197  Biso   1.000  Co
  O17      1.0000 0.69731  0.17860  0.98449  Biso   1.000  O
  O18      1.0000 0.27023  0.37814  0.53683  Biso   1.000  O
  O19      1.0000 0.66142  0.11303  0.91556  Biso   1.000  O
  O20      1.0000 0.25875  0.69880  0.92852  Biso   1.000  O
  O21      1.0000 0.68958  0.88653  0.92828  Biso   1.000  O
  O22      1.0000 0.24031  0.51221  0.53240  Biso   1.000  O
  O23      1.0000 0.23653  0.54981  0.90984  Biso   1.000  O
  O24      1.0000 0.66064  0.93775  0.98436  Biso   1.000  O
  N5       1.0000 0.59067  0.52539  0.91753  Biso   1.000  N
  N6       1.0000 0.34069  0.55971  0.76155  Biso   1.000  N
  C81      1.0000 0.28562  0.48711  0.60860  Biso   1.000  C
  C82      1.0000 0.63660  0.42854  0.97029  Biso   1.000  C
  H49      1.0000 0.64190  0.47940  0.99540  Biso   1.000  H
  C83      1.0000 0.60922  0.61373  0.92642  Biso   1.000  C
  C84      1.0000 0.60949  0.43767  0.92622  Biso   1.000  C
  C85      1.0000 0.55513  0.52641  0.89402  Biso   1.000  C
  C86      1.0000 0.26339  0.45703  0.55459  Biso   1.000  C
  C87      1.0000 0.32401  0.53526  0.70916  Biso   1.000  C
  C88      1.0000 0.63824  0.62470  0.90857  Biso   1.000  C
  H50      1.0000 0.64580  0.57380  0.88990  Biso   1.000  H
  C89      1.0000 0.27868  0.60227  0.86812  Biso   1.000  C
  C90      1.0000 0.64589  0.78376  0.94380  Biso   1.000  C
  C91      1.0000 0.27124  0.53046  0.82994  Biso   1.000  C
  H51      1.0000 0.25170  0.49100  0.82760  Biso   1.000  H
  C92      1.0000 0.65610  0.34533  0.97792  Biso   1.000  C
  H52      1.0000 0.67480  0.33930  0.00820  Biso   1.000  H
  C93      1.0000 0.31995  0.57313  0.79816  Biso   1.000  C
  C94      1.0000 0.62033  0.27984  0.89803  Biso   1.000  C
  H53      1.0000 0.61410  0.22810  0.87370  Biso   1.000  H
  C95      1.0000 0.37638  0.54343  0.78159  Biso   1.000  C
  C96      1.0000 0.31254  0.42931  0.63434  Biso   1.000  C
  H54      1.0000 0.31780  0.37250  0.61760  Biso   1.000  H
  C97      1.0000 0.61627  0.77277  0.96276  Biso   1.000  C
  H55      1.0000 0.60900  0.82350  0.98190  Biso   1.000  H
  C98      1.0000 0.54090  0.59660  0.85819  Biso   1.000  C
  H56      1.0000 0.55500  0.64520  0.84900  Biso   1.000  H
  C99      1.0000 0.27850  0.57039  0.63205  Biso   1.000  C
  H57      1.0000 0.26030  0.61050  0.61400  Biso   1.000  H
  C100     1.0000 0.29147  0.51549  0.79574  Biso   1.000  C
  H58      1.0000 0.28610  0.46550  0.77020  Biso   1.000  H
  C101     1.0000 0.64840  0.27015  0.94112  Biso   1.000  C
  C102     1.0000 0.25645  0.61882  0.90574  Biso   1.000  C
  C103     1.0000 0.29766  0.59628  0.68178  Biso   1.000  C
  H59      1.0000 0.29310  0.65500  0.69740  Biso   1.000  H
  C104     1.0000 0.50571  0.59656  0.83531  Biso   1.000  C
  H60      1.0000 0.49630  0.64620  0.81100  Biso   1.000  H
  C105     1.0000 0.60125  0.36371  0.88997  Biso   1.000  C
  H61      1.0000 0.58260  0.37030  0.85970  Biso   1.000  H
  C106     1.0000 0.66987  0.18362  0.94710  Biso   1.000  C
  C107     1.0000 0.65654  0.70994  0.91768  Biso   1.000  C
  H62      1.0000 0.67680  0.71680  0.90550  Biso   1.000  H
  C108     1.0000 0.53408  0.45594  0.90669  Biso   1.000  C
  H63      1.0000 0.54360  0.40690  0.93140  Biso   1.000  H
  C109     1.0000 0.32755  0.64481  0.83618  Biso   1.000  C
  H64      1.0000 0.34720  0.68400  0.83870  Biso   1.000  H
  C110     1.0000 0.38902  0.50600  0.83145  Biso   1.000  C
  H65      1.0000 0.37370  0.48530  0.85170  Biso   1.000  H
  C111     1.0000 0.59789  0.68945  0.95371  Biso   1.000  C
  H66      1.0000 0.57760  0.68260  0.96570  Biso   1.000  H
  C112     1.0000 0.39858  0.57097  0.75083  Biso   1.000  C
  H67      1.0000 0.39000  0.59440  0.71570  Biso   1.000  H
  C113     1.0000 0.30699  0.65957  0.86995  Biso   1.000  C
  H68      1.0000 0.31220  0.71020  0.89520  Biso   1.000  H
  C114     1.0000 0.33198  0.45426  0.68488  Biso   1.000  C
  H69      1.0000 0.35070  0.41500  0.70230  Biso   1.000  H
  C115     1.0000 0.48447  0.52785  0.84657  Biso   1.000  C
  C116     1.0000 0.42454  0.49820  0.85262  Biso   1.000  C
  H70      1.0000 0.43320  0.47250  0.88720  Biso   1.000  H
  C117     1.0000 0.66660  0.87492  0.95307  Biso   1.000  C
  C118     1.0000 0.49944  0.45687  0.88350  Biso   1.000  C
  H71      1.0000 0.48530  0.40830  0.89270  Biso   1.000  H
  C119     1.0000 0.44710  0.52834  0.82250  Biso   1.000  C
  C120     1.0000 0.43364  0.56337  0.77277  Biso   1.000  C
  H72      1.0000 0.44890  0.58350  0.75220  Biso   1.000  H
  Co4      1.0000 0.70575  0.02614  0.96197  Biso   1.000  Co
  O25      1.0000 0.19731  0.67860  0.98449  Biso   1.000  O
  O26      1.0000 0.77023  0.87814  0.53683  Biso   1.000  O
  O27      1.0000 0.16142  0.61303  0.91556  Biso   1.000  O
  O28      1.0000 0.75875  0.19880  0.92852  Biso   1.000  O
  O29      1.0000 0.18958  0.38653  0.92828  Biso   1.000  O
  O30      1.0000 0.74031  0.01221  0.53240  Biso   1.000  O
  O31      1.0000 0.73653  0.04981  0.90984  Biso   1.000  O
  O32      1.0000 0.16064  0.43775  0.98436  Biso   1.000  O
  N7       1.0000 0.09067  0.02539  0.91753  Biso   1.000  N
  N8       1.0000 0.84069  0.05971  0.76155  Biso   1.000  N
  C121     1.0000 0.78562  0.98711  0.60860  Biso   1.000  C
  C122     1.0000 0.13660  0.92854  0.97029  Biso   1.000  C
  H73      1.0000 0.14190  0.97940  0.99540  Biso   1.000  H
  C123     1.0000 0.10922  0.11373  0.92642  Biso   1.000  C
  C124     1.0000 0.10949  0.93767  0.92622  Biso   1.000  C
  C125     1.0000 0.05513  0.02641  0.89402  Biso   1.000  C
  C126     1.0000 0.76339  0.95703  0.55459  Biso   1.000  C
  C127     1.0000 0.82401  0.03526  0.70916  Biso   1.000  C
  C128     1.0000 0.13824  0.12470  0.90857  Biso   1.000  C
  H74      1.0000 0.14580  0.07380  0.88990  Biso   1.000  H
  C129     1.0000 0.77868  0.10227  0.86812  Biso   1.000  C
  C130     1.0000 0.14589  0.28376  0.94380  Biso   1.000  C
  C131     1.0000 0.77124  0.03046  0.82994  Biso   1.000  C
  H75      1.0000 0.75170  0.99100  0.82760  Biso   1.000  H
  C132     1.0000 0.15610  0.84533  0.97792  Biso   1.000  C
  H76      1.0000 0.17480  0.83930  0.00820  Biso   1.000  H
  C133     1.0000 0.81995  0.07313  0.79816  Biso   1.000  C
  C134     1.0000 0.12033  0.77984  0.89803  Biso   1.000  C
  H77      1.0000 0.11410  0.72810  0.87370  Biso   1.000  H
  C135     1.0000 0.87638  0.04343  0.78159  Biso   1.000  C
  C136     1.0000 0.81254  0.92931  0.63434  Biso   1.000  C
  H78      1.0000 0.81780  0.87250  0.61760  Biso   1.000  H
  C137     1.0000 0.11627  0.27277  0.96276  Biso   1.000  C
  H79      1.0000 0.10900  0.32350  0.98190  Biso   1.000  H
  C138     1.0000 0.04090  0.09660  0.85819  Biso   1.000  C
  H80      1.0000 0.05500  0.14520  0.84900  Biso   1.000  H
  C139     1.0000 0.77850  0.07039  0.63205  Biso   1.000  C
  H81      1.0000 0.76030  0.11050  0.61400  Biso   1.000  H
  C140     1.0000 0.79147  0.01549  0.79574  Biso   1.000  C
  H82      1.0000 0.78610  0.96550  0.77020  Biso   1.000  H
  C141     1.0000 0.14840  0.77015  0.94112  Biso   1.000  C
  C142     1.0000 0.75645  0.11882  0.90574  Biso   1.000  C
  C143     1.0000 0.79766  0.09628  0.68178  Biso   1.000  C
  H83      1.0000 0.79310  0.15500  0.69740  Biso   1.000  H
  C144     1.0000 0.00571  0.09656  0.83531  Biso   1.000  C
  H84      1.0000 0.99630  0.14620  0.81100  Biso   1.000  H
  C145     1.0000 0.10125  0.86371  0.88997  Biso   1.000  C
  H85      1.0000 0.08260  0.87030  0.85970  Biso   1.000  H
  C146     1.0000 0.16987  0.68362  0.94710  Biso   1.000  C
  C147     1.0000 0.15654  0.20994  0.91768  Biso   1.000  C
  H86      1.0000 0.17680  0.21680  0.90550  Biso   1.000  H
  C148     1.0000 0.03408  0.95594  0.90669  Biso   1.000  C
  H87      1.0000 0.04360  0.90690  0.93140  Biso   1.000  H
  C149     1.0000 0.82755  0.14481  0.83618  Biso   1.000  C
  H88      1.0000 0.84720  0.18400  0.83870  Biso   1.000  H
  C150     1.0000 0.88902  0.00600  0.83145  Biso   1.000  C
  H89      1.0000 0.87370  0.98530  0.85170  Biso   1.000  H
  C151     1.0000 0.09789  0.18945  0.95371  Biso   1.000  C
  H90      1.0000 0.07760  0.18260  0.96570  Biso   1.000  H
  C152     1.0000 0.89858  0.07097  0.75083  Biso   1.000  C
  H91      1.0000 0.89000  0.09440  0.71570  Biso   1.000  H
  C153     1.0000 0.80699  0.15957  0.86995  Biso   1.000  C
  H92      1.0000 0.81220  0.21020  0.89520  Biso   1.000  H
  C154     1.0000 0.83198  0.95426  0.68488  Biso   1.000  C
  H93      1.0000 0.85070  0.91500  0.70230  Biso   1.000  H
  C155     1.0000 0.98447  0.02785  0.84657  Biso   1.000  C
  C156     1.0000 0.92454  0.99820  0.85262  Biso   1.000  C
  H94      1.0000 0.93320  0.97250  0.88720  Biso   1.000  H
  C157     1.0000 0.16660  0.37492  0.95307  Biso   1.000  C
  C158     1.0000 0.99944  0.95687  0.88350  Biso   1.000  C
  H95      1.0000 0.98530  0.90830  0.89270  Biso   1.000  H
  C159     1.0000 0.94710  0.02834  0.82250  Biso   1.000  C
  C160     1.0000 0.93364  0.06337  0.77277  Biso   1.000  C
  H96      1.0000 0.94890  0.08350  0.75220  Biso   1.000  H
  Co5      1.0000 0.20575  0.47386  0.46197  Biso   1.000  Co
  O33      1.0000 0.69731  0.82140  0.48449  Biso   1.000  O
  O34      1.0000 0.27023  0.62186  0.03683  Biso   1.000  O
  O35      1.0000 0.66142  0.88697  0.41556  Biso   1.000  O
  O36      1.0000 0.25875  0.30120  0.42852  Biso   1.000  O
  O37      1.0000 0.68958  0.11347  0.42828  Biso   1.000  O
  O38      1.0000 0.24031  0.48779  0.03240  Biso   1.000  O
  O39      1.0000 0.23653  0.45019  0.40984  Biso   1.000  O
  O40      1.0000 0.66064  0.06225  0.48436  Biso   1.000  O
  N9       1.0000 0.59067  0.47461  0.41753  Biso   1.000  N
  N10      1.0000 0.34069  0.44029  0.26155  Biso   1.000  N
  C161     1.0000 0.28562  0.51289  0.10860  Biso   1.000  C
  C162     1.0000 0.63660  0.57146  0.47029  Biso   1.000  C
  H97      1.0000 0.64190  0.52060  0.49540  Biso   1.000  H
  C163     1.0000 0.60922  0.38627  0.42642  Biso   1.000  C
  C164     1.0000 0.60949  0.56233  0.42622  Biso   1.000  C
  C165     1.0000 0.55513  0.47359  0.39402  Biso   1.000  C
  C166     1.0000 0.26339  0.54297  0.05459  Biso   1.000  C
  C167     1.0000 0.32401  0.46474  0.20916  Biso   1.000  C
  C168     1.0000 0.63824  0.37530  0.40857  Biso   1.000  C
  H98      1.0000 0.64580  0.42620  0.38990  Biso   1.000  H
  C169     1.0000 0.27868  0.39773  0.36812  Biso   1.000  C
  C170     1.0000 0.64589  0.21624  0.44380  Biso   1.000  C
  C171     1.0000 0.27124  0.46954  0.32994  Biso   1.000  C
  H99      1.0000 0.25170  0.50900  0.32760  Biso   1.000  H
  C172     1.0000 0.65610  0.65467  0.47792  Biso   1.000  C
  H100     1.0000 0.67480  0.66070  0.50820  Biso   1.000  H
  C173     1.0000 0.31995  0.42687  0.29816  Biso   1.000  C
  C174     1.0000 0.62033  0.72016  0.39803  Biso   1.000  C
  H101     1.0000 0.61410  0.77190  0.37370  Biso   1.000  H
  C175     1.0000 0.37638  0.45657  0.28159  Biso   1.000  C
  C176     1.0000 0.31254  0.57069  0.13434  Biso   1.000  C
  H102     1.0000 0.31780  0.62750  0.11760  Biso   1.000  H
  C177     1.0000 0.61627  0.22723  0.46276  Biso   1.000  C
  H103     1.0000 0.60900  0.17650  0.48190  Biso   1.000  H
  C178     1.0000 0.54090  0.40340  0.35819  Biso   1.000  C
  H104     1.0000 0.55500  0.35480  0.34900  Biso   1.000  H
  C179     1.0000 0.27850  0.42961  0.13205  Biso   1.000  C
  H105     1.0000 0.26030  0.38950  0.11400  Biso   1.000  H
  C180     1.0000 0.29147  0.48451  0.29574  Biso   1.000  C
  H106     1.0000 0.28610  0.53450  0.27020  Biso   1.000  H
  C181     1.0000 0.64840  0.72985  0.44112  Biso   1.000  C
  C182     1.0000 0.25645  0.38118  0.40574  Biso   1.000  C
  C183     1.0000 0.29766  0.40372  0.18178  Biso   1.000  C
  H107     1.0000 0.29310  0.34500  0.19740  Biso   1.000  H
  C184     1.0000 0.50571  0.40344  0.33531  Biso   1.000  C
  H108     1.0000 0.49630  0.35380  0.31100  Biso   1.000  H
  C185     1.0000 0.60125  0.63629  0.38997  Biso   1.000  C
  H109     1.0000 0.58260  0.62970  0.35970  Biso   1.000  H
  C186     1.0000 0.66987  0.81638  0.44710  Biso   1.000  C
  C187     1.0000 0.65654  0.29006  0.41768  Biso   1.000  C
  H110     1.0000 0.67680  0.28320  0.40550  Biso   1.000  H
  C188     1.0000 0.53408  0.54406  0.40669  Biso   1.000  C
  H111     1.0000 0.54360  0.59310  0.43140  Biso   1.000  H
  C189     1.0000 0.32755  0.35519  0.33618  Biso   1.000  C
  H112     1.0000 0.34720  0.31600  0.33870  Biso   1.000  H
  C190     1.0000 0.38902  0.49400  0.33145  Biso   1.000  C
  H113     1.0000 0.37370  0.51470  0.35170  Biso   1.000  H
  C191     1.0000 0.59789  0.31055  0.45371  Biso   1.000  C
  H114     1.0000 0.57760  0.31740  0.46570  Biso   1.000  H
  C192     1.0000 0.39858  0.42903  0.25083  Biso   1.000  C
  H115     1.0000 0.39000  0.40560  0.21570  Biso   1.000  H
  C193     1.0000 0.30699  0.34043  0.36995  Biso   1.000  C
  H116     1.0000 0.31220  0.28980  0.39520  Biso   1.000  H
  C194     1.0000 0.33198  0.54574  0.18488  Biso   1.000  C
  H117     1.0000 0.35070  0.58500  0.20230  Biso   1.000  H
  C195     1.0000 0.48447  0.47215  0.34657  Biso   1.000  C
  C196     1.0000 0.42454  0.50180  0.35262  Biso   1.000  C
  H118     1.0000 0.43320  0.52750  0.38720  Biso   1.000  H
  C197     1.0000 0.66660  0.12508  0.45307  Biso   1.000  C
  C198     1.0000 0.49944  0.54313  0.38350  Biso   1.000  C
  H119     1.0000 0.48530  0.59170  0.39270  Biso   1.000  H
  C199     1.0000 0.44710  0.47166  0.32250  Biso   1.000  C
  C200     1.0000 0.43364  0.43663  0.27277  Biso   1.000  C
  H120     1.0000 0.44890  0.41650  0.25220  Biso   1.000  H
  Co6      1.0000 0.70575  0.97386  0.46197  Biso   1.000  Co
  O41      1.0000 0.19731  0.32140  0.48449  Biso   1.000  O
  O42      1.0000 0.77023  0.12186  0.03683  Biso   1.000  O
  O43      1.0000 0.16142  0.38697  0.41556  Biso   1.000  O
  O44      1.0000 0.75875  0.80120  0.42852  Biso   1.000  O
  O45      1.0000 0.18958  0.61347  0.42828  Biso   1.000  O
  O46      1.0000 0.74031  0.98779  0.03240  Biso   1.000  O
  O47      1.0000 0.73653  0.95019  0.40984  Biso   1.000  O
  O48      1.0000 0.16064  0.56225  0.48436  Biso   1.000  O
  N11      1.0000 0.09067  0.97461  0.41753  Biso   1.000  N
  N12      1.0000 0.84069  0.94029  0.26155  Biso   1.000  N
  C201     1.0000 0.78562  0.01289  0.10860  Biso   1.000  C
  C202     1.0000 0.13660  0.07146  0.47029  Biso   1.000  C
  H121     1.0000 0.14190  0.02060  0.49540  Biso   1.000  H
  C203     1.0000 0.10922  0.88627  0.42642  Biso   1.000  C
  C204     1.0000 0.10949  0.06233  0.42622  Biso   1.000  C
  C205     1.0000 0.05513  0.97359  0.39402  Biso   1.000  C
  C206     1.0000 0.76339  0.04297  0.05459  Biso   1.000  C
  C207     1.0000 0.82401  0.96474  0.20916  Biso   1.000  C
  C208     1.0000 0.13824  0.87530  0.40857  Biso   1.000  C
  H122     1.0000 0.14580  0.92620  0.38990  Biso   1.000  H
  C209     1.0000 0.77868  0.89773  0.36812  Biso   1.000  C
  C210     1.0000 0.14589  0.71624  0.44380  Biso   1.000  C
  C211     1.0000 0.77124  0.96954  0.32994  Biso   1.000  C
  H123     1.0000 0.75170  0.00900  0.32760  Biso   1.000  H
  C212     1.0000 0.15610  0.15467  0.47792  Biso   1.000  C
  H124     1.0000 0.17480  0.16070  0.50820  Biso   1.000  H
  C213     1.0000 0.81995  0.92687  0.29816  Biso   1.000  C
  C214     1.0000 0.12033  0.22016  0.39803  Biso   1.000  C
  H125     1.0000 0.11410  0.27190  0.37370  Biso   1.000  H
  C215     1.0000 0.87638  0.95657  0.28159  Biso   1.000  C
  C216     1.0000 0.81254  0.07069  0.13434  Biso   1.000  C
  H126     1.0000 0.81780  0.12750  0.11760  Biso   1.000  H
  C217     1.0000 0.11627  0.72723  0.46276  Biso   1.000  C
  H127     1.0000 0.10900  0.67650  0.48190  Biso   1.000  H
  C218     1.0000 0.04090  0.90340  0.35819  Biso   1.000  C
  H128     1.0000 0.05500  0.85480  0.34900  Biso   1.000  H
  C219     1.0000 0.77850  0.92961  0.13205  Biso   1.000  C
  H129     1.0000 0.76030  0.88950  0.11400  Biso   1.000  H
  C220     1.0000 0.79147  0.98451  0.29574  Biso   1.000  C
  H130     1.0000 0.78610  0.03450  0.27020  Biso   1.000  H
  C221     1.0000 0.14840  0.22985  0.44112  Biso   1.000  C
  C222     1.0000 0.75645  0.88118  0.40574  Biso   1.000  C
  C223     1.0000 0.79766  0.90372  0.18178  Biso   1.000  C
  H131     1.0000 0.79310  0.84500  0.19740  Biso   1.000  H
  C224     1.0000 0.00571  0.90344  0.33531  Biso   1.000  C
  H132     1.0000 0.99630  0.85380  0.31100  Biso   1.000  H
  C225     1.0000 0.10125  0.13629  0.38997  Biso   1.000  C
  H133     1.0000 0.08260  0.12970  0.35970  Biso   1.000  H
  C226     1.0000 0.16987  0.31638  0.44710  Biso   1.000  C
  C227     1.0000 0.15654  0.79006  0.41768  Biso   1.000  C
  H134     1.0000 0.17680  0.78320  0.40550  Biso   1.000  H
  C228     1.0000 0.03408  0.04406  0.40669  Biso   1.000  C
  H135     1.0000 0.04360  0.09310  0.43140  Biso   1.000  H
  C229     1.0000 0.82755  0.85519  0.33618  Biso   1.000  C
  H136     1.0000 0.84720  0.81600  0.33870  Biso   1.000  H
  C230     1.0000 0.88902  0.99400  0.33145  Biso   1.000  C
  H137     1.0000 0.87370  0.01470  0.35170  Biso   1.000  H
  C231     1.0000 0.09789  0.81055  0.45371  Biso   1.000  C
  H138     1.0000 0.07760  0.81740  0.46570  Biso   1.000  H
  C232     1.0000 0.89858  0.92903  0.25083  Biso   1.000  C
  H139     1.0000 0.89000  0.90560  0.21570  Biso   1.000  H
  C233     1.0000 0.80699  0.84043  0.36995  Biso   1.000  C
  H140     1.0000 0.81220  0.78980  0.39520  Biso   1.000  H
  C234     1.0000 0.83198  0.04574  0.18488  Biso   1.000  C
  H141     1.0000 0.85070  0.08500  0.20230  Biso   1.000  H
  C235     1.0000 0.98447  0.97215  0.34657  Biso   1.000  C
  C236     1.0000 0.92454  0.00180  0.35262  Biso   1.000  C
  H142     1.0000 0.93320  0.02750  0.38720  Biso   1.000  H
  C237     1.0000 0.16660  0.62508  0.45307  Biso   1.000  C
  C238     1.0000 0.99944  0.04313  0.38350  Biso   1.000  C
  H143     1.0000 0.98530  0.09170  0.39270  Biso   1.000  H
  C239     1.0000 0.94710  0.97166  0.32250  Biso   1.000  C
  C240     1.0000 0.93364  0.93663  0.27277  Biso   1.000  C
  H144     1.0000 0.94890  0.91650  0.25220  Biso   1.000  H
  Co7      1.0000 0.79425  0.47386  0.03803  Biso   1.000  Co
  O49      1.0000 0.30269  0.82140  0.01551  Biso   1.000  O
  O50      1.0000 0.72977  0.62186  0.46317  Biso   1.000  O
  O51      1.0000 0.33858  0.88697  0.08444  Biso   1.000  O
  O52      1.0000 0.74125  0.30120  0.07148  Biso   1.000  O
  O53      1.0000 0.31042  0.11347  0.07172  Biso   1.000  O
  O54      1.0000 0.75969  0.48779  0.46760  Biso   1.000  O
  O55      1.0000 0.76347  0.45019  0.09016  Biso   1.000  O
  O56      1.0000 0.33936  0.06225  0.01564  Biso   1.000  O
  N13      1.0000 0.40933  0.47461  0.08247  Biso   1.000  N
  N14      1.0000 0.65931  0.44029  0.23845  Biso   1.000  N
  C241     1.0000 0.71438  0.51289  0.39140  Biso   1.000  C
  C242     1.0000 0.36340  0.57146  0.02971  Biso   1.000  C
  H145     1.0000 0.35810  0.52060  0.00460  Biso   1.000  H
  C243     1.0000 0.39078  0.38627  0.07358  Biso   1.000  C
  C244     1.0000 0.39051  0.56233  0.07378  Biso   1.000  C
  C245     1.0000 0.44487  0.47359  0.10598  Biso   1.000  C
  C246     1.0000 0.73661  0.54297  0.44541  Biso   1.000  C
  C247     1.0000 0.67599  0.46474  0.29084  Biso   1.000  C
  C248     1.0000 0.36176  0.37530  0.09143  Biso   1.000  C
  H146     1.0000 0.35420  0.42620  0.11010  Biso   1.000  H
  C249     1.0000 0.72132  0.39773  0.13188  Biso   1.000  C
  C250     1.0000 0.35411  0.21624  0.05620  Biso   1.000  C
  C251     1.0000 0.72876  0.46954  0.17006  Biso   1.000  C
  H147     1.0000 0.74830  0.50900  0.17240  Biso   1.000  H
  C252     1.0000 0.34390  0.65467  0.02208  Biso   1.000  C
  H148     1.0000 0.32520  0.66070  0.99180  Biso   1.000  H
  C253     1.0000 0.68005  0.42687  0.20184  Biso   1.000  C
  C254     1.0000 0.37967  0.72016  0.10197  Biso   1.000  C
  H149     1.0000 0.38590  0.77190  0.12630  Biso   1.000  H
  C255     1.0000 0.62362  0.45657  0.21841  Biso   1.000  C
  C256     1.0000 0.68746  0.57069  0.36566  Biso   1.000  C
  H150     1.0000 0.68220  0.62750  0.38240  Biso   1.000  H
  C257     1.0000 0.38373  0.22723  0.03724  Biso   1.000  C
  H151     1.0000 0.39100  0.17650  0.01810  Biso   1.000  H
  C258     1.0000 0.45910  0.40340  0.14181  Biso   1.000  C
  H152     1.0000 0.44500  0.35480  0.15100  Biso   1.000  H
  C259     1.0000 0.72150  0.42961  0.36795  Biso   1.000  C
  H153     1.0000 0.73970  0.38950  0.38600  Biso   1.000  H
  C260     1.0000 0.70853  0.48451  0.20426  Biso   1.000  C
  H154     1.0000 0.71390  0.53450  0.22980  Biso   1.000  H
  C261     1.0000 0.35160  0.72985  0.05888  Biso   1.000  C
  C262     1.0000 0.74355  0.38118  0.09426  Biso   1.000  C
  C263     1.0000 0.70234  0.40372  0.31822  Biso   1.000  C
  H155     1.0000 0.70690  0.34500  0.30260  Biso   1.000  H
  C264     1.0000 0.49429  0.40344  0.16469  Biso   1.000  C
  H156     1.0000 0.50370  0.35380  0.18900  Biso   1.000  H
  C265     1.0000 0.39875  0.63629  0.11003  Biso   1.000  C
  H157     1.0000 0.41740  0.62970  0.14030  Biso   1.000  H
  C266     1.0000 0.33013  0.81638  0.05290  Biso   1.000  C
  C267     1.0000 0.34346  0.29006  0.08232  Biso   1.000  C
  H158     1.0000 0.32320  0.28320  0.09450  Biso   1.000  H
  C268     1.0000 0.46592  0.54406  0.09331  Biso   1.000  C
  H159     1.0000 0.45640  0.59310  0.06860  Biso   1.000  H
  C269     1.0000 0.67245  0.35519  0.16382  Biso   1.000  C
  H160     1.0000 0.65280  0.31600  0.16130  Biso   1.000  H
  C270     1.0000 0.61098  0.49400  0.16855  Biso   1.000  C
  H161     1.0000 0.62630  0.51470  0.14830  Biso   1.000  H
  C271     1.0000 0.40211  0.31055  0.04629  Biso   1.000  C
  H162     1.0000 0.42240  0.31740  0.03430  Biso   1.000  H
  C272     1.0000 0.60142  0.42903  0.24917  Biso   1.000  C
  H163     1.0000 0.61000  0.40560  0.28430  Biso   1.000  H
  C273     1.0000 0.69301  0.34043  0.13005  Biso   1.000  C
  H164     1.0000 0.68780  0.28980  0.10480  Biso   1.000  H
  C274     1.0000 0.66802  0.54574  0.31512  Biso   1.000  C
  H165     1.0000 0.64930  0.58500  0.29770  Biso   1.000  H
  C275     1.0000 0.51553  0.47215  0.15343  Biso   1.000  C
  C276     1.0000 0.57546  0.50180  0.14738  Biso   1.000  C
  H166     1.0000 0.56680  0.52750  0.11280  Biso   1.000  H
  C277     1.0000 0.33340  0.12508  0.04693  Biso   1.000  C
  C278     1.0000 0.50056  0.54313  0.11650  Biso   1.000  C
  H167     1.0000 0.51470  0.59170  0.10730  Biso   1.000  H
  C279     1.0000 0.55290  0.47166  0.17750  Biso   1.000  C
  C280     1.0000 0.56636  0.43663  0.22723  Biso   1.000  C
  H168     1.0000 0.55110  0.41650  0.24780  Biso   1.000  H
  Co8      1.0000 0.29425  0.97386  0.03803  Biso   1.000  Co
  O57      1.0000 0.80269  0.32140  0.01551  Biso   1.000  O
  O58      1.0000 0.22977  0.12186  0.46317  Biso   1.000  O
  O59      1.0000 0.83858  0.38697  0.08444  Biso   1.000  O
  O60      1.0000 0.24125  0.80120  0.07148  Biso   1.000  O
  O61      1.0000 0.81042  0.61347  0.07172  Biso   1.000  O
  O62      1.0000 0.25969  0.98779  0.46760  Biso   1.000  O
  O63      1.0000 0.26347  0.95019  0.09016  Biso   1.000  O
  O64      1.0000 0.83936  0.56225  0.01564  Biso   1.000  O
  N15      1.0000 0.90933  0.97461  0.08247  Biso   1.000  N
  N16      1.0000 0.15931  0.94029  0.23845  Biso   1.000  N
  C281     1.0000 0.21438  0.01289  0.39140  Biso   1.000  C
  C282     1.0000 0.86340  0.07146  0.02971  Biso   1.000  C
  H169     1.0000 0.85810  0.02060  0.00460  Biso   1.000  H
  C283     1.0000 0.89078  0.88627  0.07358  Biso   1.000  C
  C284     1.0000 0.89051  0.06233  0.07378  Biso   1.000  C
  C285     1.0000 0.94487  0.97359  0.10598  Biso   1.000  C
  C286     1.0000 0.23661  0.04297  0.44541  Biso   1.000  C
  C287     1.0000 0.17599  0.96474  0.29084  Biso   1.000  C
  C288     1.0000 0.86176  0.87530  0.09143  Biso   1.000  C
  H170     1.0000 0.85420  0.92620  0.11010  Biso   1.000  H
  C289     1.0000 0.22132  0.89773  0.13188  Biso   1.000  C
  C290     1.0000 0.85411  0.71624  0.05620  Biso   1.000  C
  C291     1.0000 0.22876  0.96954  0.17006  Biso   1.000  C
  H171     1.0000 0.24830  0.00900  0.17240  Biso   1.000  H
  C292     1.0000 0.84390  0.15467  0.02208  Biso   1.000  C
  H172     1.0000 0.82520  0.16070  0.99180  Biso   1.000  H
  C293     1.0000 0.18005  0.92687  0.20184  Biso   1.000  C
  C294     1.0000 0.87967  0.22016  0.10197  Biso   1.000  C
  H173     1.0000 0.88590  0.27190  0.12630  Biso   1.000  H
  C295     1.0000 0.12362  0.95657  0.21841  Biso   1.000  C
  C296     1.0000 0.18746  0.07069  0.36566  Biso   1.000  C
  H174     1.0000 0.18220  0.12750  0.38240  Biso   1.000  H
  C297     1.0000 0.88373  0.72723  0.03724  Biso   1.000  C
  H175     1.0000 0.89100  0.67650  0.01810  Biso   1.000  H
  C298     1.0000 0.95910  0.90340  0.14181  Biso   1.000  C
  H176     1.0000 0.94500  0.85480  0.15100  Biso   1.000  H
  C299     1.0000 0.22150  0.92961  0.36795  Biso   1.000  C
  H177     1.0000 0.23970  0.88950  0.38600  Biso   1.000  H
  C300     1.0000 0.20853  0.98451  0.20426  Biso   1.000  C
  H178     1.0000 0.21390  0.03450  0.22980  Biso   1.000  H
  C301     1.0000 0.85160  0.22985  0.05888  Biso   1.000  C
  C302     1.0000 0.24355  0.88118  0.09426  Biso   1.000  C
  C303     1.0000 0.20234  0.90372  0.31822  Biso   1.000  C
  H179     1.0000 0.20690  0.84500  0.30260  Biso   1.000  H
  C304     1.0000 0.99429  0.90344  0.16469  Biso   1.000  C
  H180     1.0000 0.00370  0.85380  0.18900  Biso   1.000  H
  C305     1.0000 0.89875  0.13629  0.11003  Biso   1.000  C
  H181     1.0000 0.91740  0.12970  0.14030  Biso   1.000  H
  C306     1.0000 0.83013  0.31638  0.05290  Biso   1.000  C
  C307     1.0000 0.84346  0.79006  0.08232  Biso   1.000  C
  H182     1.0000 0.82320  0.78320  0.09450  Biso   1.000  H
  C308     1.0000 0.96592  0.04406  0.09331  Biso   1.000  C
  H183     1.0000 0.95640  0.09310  0.06860  Biso   1.000  H
  C309     1.0000 0.17245  0.85519  0.16382  Biso   1.000  C
  H184     1.0000 0.15280  0.81600  0.16130  Biso   1.000  H
  C310     1.0000 0.11098  0.99400  0.16855  Biso   1.000  C
  H185     1.0000 0.12630  0.01470  0.14830  Biso   1.000  H
  C311     1.0000 0.90211  0.81055  0.04629  Biso   1.000  C
  H186     1.0000 0.92240  0.81740  0.03430  Biso   1.000  H
  C312     1.0000 0.10142  0.92903  0.24917  Biso   1.000  C
  H187     1.0000 0.11000  0.90560  0.28430  Biso   1.000  H
  C313     1.0000 0.19301  0.84043  0.13005  Biso   1.000  C
  H188     1.0000 0.18780  0.78980  0.10480  Biso   1.000  H
  C314     1.0000 0.16802  0.04574  0.31512  Biso   1.000  C
  H189     1.0000 0.14930  0.08500  0.29770  Biso   1.000  H
  C315     1.0000 0.01553  0.97215  0.15343  Biso   1.000  C
  C316     1.0000 0.07546  0.00180  0.14738  Biso   1.000  C
  H190     1.0000 0.06680  0.02750  0.11280  Biso   1.000  H
  C317     1.0000 0.83340  0.62508  0.04693  Biso   1.000  C
  C318     1.0000 0.00056  0.04313  0.11650  Biso   1.000  C
  H191     1.0000 0.01470  0.09170  0.10730  Biso   1.000  H
  C319     1.0000 0.05290  0.97166  0.17750  Biso   1.000  C
  C320     1.0000 0.06636  0.93663  0.22723  Biso   1.000  C
  H192     1.0000 0.05110  0.91650  0.24780  Biso   1.000  H
  Co9      1.0000 0.75000  0.75000  0.50000  Biso   1.000  Co
  Co10     1.0000 0.25000  0.75000  0.00000  Biso   1.000  Co
  Co11     1.0000 0.25000  0.25000  0.50000  Biso   1.000  Co
  Co12     1.0000 0.75000  0.25000  0.00000  Biso   1.000  Co
