data_image0
_cell_length_a       22.4105
_cell_length_b       22.5156
_cell_length_c       22.274
_cell_angle_alpha    100.141
_cell_angle_beta     64.2652
_cell_angle_gamma    66.7532

_symmetry_space_group_name_H-M    "P 1"
_symmetry_int_tables_number       1

loop_
  _symmetry_equiv_pos_as_xyz
  'x, y, z'

loop_
  _atom_site_label
  _atom_site_occupancy
  _atom_site_fract_x
  _atom_site_fract_y
  _atom_site_fract_z
  _atom_site_thermal_displace_type
  _atom_site_B_iso_or_equiv
  _atom_site_type_symbol
  O1       1.0000 0.40923  0.59722  0.60587  Biso   1.000  O
  O2       1.0000 0.49774  0.50147  0.60770  Biso   1.000  O
  C1       1.0000 0.43637  0.56613  0.64069  Biso   1.000  C
  O3       1.0000 0.39241  0.50198  0.52952  Biso   1.000  O
  O4       1.0000 0.48981  0.40533  0.52150  Biso   1.000  O
  C2       1.0000 0.41985  0.44082  0.53392  Biso   1.000  C
  Cu1      1.0000 0.45058  0.54897  0.50247  Biso   1.000  Cu
  Cu2      1.0000 0.55887  0.44196  0.50259  Biso   1.000  Cu
  O5       1.0000 0.51044  0.48818  0.39788  Biso   1.000  O
  O6       1.0000 0.60208  0.39408  0.39860  Biso   1.000  O
  O7       1.0000 0.52037  0.58486  0.48129  Biso   1.000  O
  O8       1.0000 0.61572  0.49044  0.47784  Biso   1.000  O
  C3       1.0000 0.57312  0.42398  0.36449  Biso   1.000  C
  C4       1.0000 0.58915  0.55065  0.47096  Biso   1.000  C
  H1       1.0000 0.48533  0.84522  0.91844  Biso   1.000  H
  C5       1.0000 0.55116  0.89320  0.87726  Biso   1.000  C
  C6       1.0000 0.56455  0.93121  0.83590  Biso   1.000  C
  H2       1.0000 0.60705  0.94579  0.82798  Biso   1.000  H
  C7       1.0000 0.52148  0.95293  0.80616  Biso   1.000  C
  H3       1.0000 0.53157  0.98328  0.77452  Biso   1.000  H
  C8       1.0000 0.46471  0.93715  0.81841  Biso   1.000  C
  C9       1.0000 0.45346  0.89743  0.85798  Biso   1.000  C
  H4       1.0000 0.41253  0.88098  0.86498  Biso   1.000  H
  C10      1.0000 0.49604  0.87592  0.88746  Biso   1.000  C
  C11      1.0000 0.34497  0.97313  0.82283  Biso   1.000  C
  H5       1.0000 0.31526  0.99006  0.88152  Biso   1.000  H
  C12      1.0000 0.31160  0.95958  0.78703  Biso   1.000  C
  C13      1.0000 0.35134  0.94062  0.71100  Biso   1.000  C
  H6       1.0000 0.32711  0.92886  0.68125  Biso   1.000  H
  C14      1.0000 0.42541  0.93244  0.67322  Biso   1.000  C
  C15      1.0000 0.46004  0.93710  0.71092  Biso   1.000  C
  H7       1.0000 0.52035  0.92200  0.68284  Biso   1.000  H
  C16      1.0000 0.42104  0.95480  0.78450  Biso   1.000  C
  H8       1.0000 0.04455  0.77663  0.94405  Biso   1.000  H
  C17      1.0000 0.99766  0.87226  0.03296  Biso   1.000  C
  C18      1.0000 0.94131  0.91493  0.11217  Biso   1.000  C
  H9       1.0000 0.93716  0.96265  0.13907  Biso   1.000  H
  C19      1.0000 0.88701  0.89876  0.15155  Biso   1.000  C
  H10      1.0000 0.83958  0.93528  0.20787  Biso   1.000  H
  C20      1.0000 0.88901  0.83996  0.11698  Biso   1.000  C
  C21      1.0000 0.94905  0.79475  0.04379  Biso   1.000  C
  H11      1.0000 0.95093  0.74857  0.01670  Biso   1.000  H
  C22      1.0000 0.00174  0.81113  0.00185  Biso   1.000  C
  C23      1.0000 0.77574  0.84084  0.21837  Biso   1.000  C
  H12      1.0000 0.79710  0.84394  0.25325  Biso   1.000  H
  C24      1.0000 0.70609  0.84150  0.24337  Biso   1.000  C
  C25      1.0000 0.67882  0.84052  0.19801  Biso   1.000  C
  H13      1.0000 0.62386  0.84376  0.21715  Biso   1.000  H
  C26      1.0000 0.71999  0.83921  0.12951  Biso   1.000  C
  C27      1.0000 0.78925  0.83584  0.10518  Biso   1.000  C
  H14      1.0000 0.82026  0.83638  0.05252  Biso   1.000  H
  C28      1.0000 0.81809  0.83649  0.14809  Biso   1.000  C
  H15      1.0000 0.38618  0.06445  0.17029  Biso   1.000  H
  C29      1.0000 0.48902  0.07003  0.12255  Biso   1.000  C
  C30      1.0000 0.51764  0.11404  0.11351  Biso   1.000  C
  H16      1.0000 0.57970  0.09311  0.08282  Biso   1.000  H
  C31      1.0000 0.46728  0.18594  0.14356  Biso   1.000  C
  H17      1.0000 0.49142  0.21929  0.13735  Biso   1.000  H
  C32      1.0000 0.38767  0.21479  0.18222  Biso   1.000  C
  C33      1.0000 0.35850  0.17116  0.19365  Biso   1.000  C
  H18      1.0000 0.29617  0.19327  0.22455  Biso   1.000  H
  C34      1.0000 0.40933  0.09853  0.16356  Biso   1.000  C
  C35      1.0000 0.27963  0.32709  0.28854  Biso   1.000  C
  H19      1.0000 0.26607  0.29538  0.31679  Biso   1.000  H
  C36      1.0000 0.24601  0.39935  0.32563  Biso   1.000  C
  C37      1.0000 0.27593  0.43515  0.28778  Biso   1.000  C
  H20      1.0000 0.25676  0.48947  0.31717  Biso   1.000  H
  C38      1.0000 0.33452  0.39813  0.21219  Biso   1.000  C
  C39      1.0000 0.35806  0.32870  0.17676  Biso   1.000  C
  H21      1.0000 0.40086  0.29907  0.11826  Biso   1.000  H
  C40      1.0000 0.33676  0.29195  0.21538  Biso   1.000  C
  H22      1.0000 0.67038  0.43040  0.86280  Biso   1.000  H
  C41      1.0000 0.66096  0.47206  0.96292  Biso   1.000  C
  C42      1.0000 0.69179  0.49817  0.99399  Biso   1.000  C
  H23      1.0000 0.66913  0.51226  0.05159  Biso   1.000  H
  C43      1.0000 0.75059  0.50821  0.95219  Biso   1.000  C
  H24      1.0000 0.77060  0.53277  0.97880  Biso   1.000  H
  C44      1.0000 0.77743  0.49506  0.87946  Biso   1.000  C
  C45      1.0000 0.75035  0.46435  0.84695  Biso   1.000  C
  H25      1.0000 0.76852  0.45584  0.79102  Biso   1.000  H
  C46      1.0000 0.69334  0.45166  0.88828  Biso   1.000  C
  C47      1.0000 0.76837  0.60628  0.89072  Biso   1.000  C
  H26      1.0000 0.71455  0.62777  0.94285  Biso   1.000  H
  C48      1.0000 0.78975  0.65086  0.86671  Biso   1.000  C
  C49      1.0000 0.85755  0.62340  0.79863  Biso   1.000  C
  H27      1.0000 0.87380  0.65892  0.77963  Biso   1.000  H
  C50      1.0000 0.90232  0.55095  0.75362  Biso   1.000  C
  C51      1.0000 0.87804  0.50653  0.77843  Biso   1.000  C
  H28      1.0000 0.91038  0.45032  0.74395  Biso   1.000  H
  C52      1.0000 0.81142  0.53471  0.84816  Biso   1.000  C
  O9       1.0000 0.52116  0.95017  0.09813  Biso   1.000  O
  O10      1.0000 0.61391  0.97262  0.02698  Biso   1.000  O
  C53      1.0000 0.54422  0.99371  0.08186  Biso   1.000  C
  O11      1.0000 0.62862  0.84240  0.09970  Biso   1.000  O
  O12      1.0000 0.72407  0.86127  0.02788  Biso   1.000  O
  C54      1.0000 0.69068  0.84559  0.08230  Biso   1.000  C
  Cu3      1.0000 0.58658  0.84735  0.03889  Biso   1.000  Cu
  Cu4      1.0000 0.69420  0.87335  0.95857  Biso   1.000  Cu
  O13      1.0000 0.66871  0.74797  0.97212  Biso   1.000  O
  O14      1.0000 0.75798  0.77107  0.89707  Biso   1.000  O
  O15      1.0000 0.55509  0.86124  0.97098  Biso   1.000  O
  O16      1.0000 0.64552  0.88733  0.90357  Biso   1.000  O
  C55      1.0000 0.73658  0.72703  0.91400  Biso   1.000  C
  C56      1.0000 0.58871  0.87633  0.91644  Biso   1.000  C
  H29      1.0000 0.90678  0.07688  0.96872  Biso   1.000  H
  C57      1.0000 0.95660  0.11071  0.02084  Biso   1.000  C
  C58      1.0000 0.93931  0.16337  0.07961  Biso   1.000  C
  H30      1.0000 0.98443  0.15964  0.08801  Biso   1.000  H
  C59      1.0000 0.86369  0.22205  0.12826  Biso   1.000  C
  H31      1.0000 0.85197  0.26355  0.17240  Biso   1.000  H
  C60      1.0000 0.80442  0.22819  0.11923  Biso   1.000  C
  C61      1.0000 0.82195  0.17446  0.06156  Biso   1.000  C
  H32      1.0000 0.77691  0.17566  0.05435  Biso   1.000  H
  C62      1.0000 0.89700  0.11715  0.01246  Biso   1.000  C
  C63      1.0000 0.68286  0.31610  0.13660  Biso   1.000  C
  H33      1.0000 0.71083  0.29191  0.07796  Biso   1.000  H
  C64      1.0000 0.60677  0.37310  0.17969  Biso   1.000  C
  C65      1.0000 0.57198  0.40773  0.25379  Biso   1.000  C
  H34      1.0000 0.51230  0.45242  0.28752  Biso   1.000  H
  C66      1.0000 0.61230  0.38471  0.28548  Biso   1.000  C
  C67      1.0000 0.68843  0.32598  0.24240  Biso   1.000  C
  H35      1.0000 0.71972  0.30707  0.26732  Biso   1.000  H
  C68      1.0000 0.72413  0.29137  0.16736  Biso   1.000  C
  H36      1.0000 0.35168  0.11224  0.57810  Biso   1.000  H
  C69      1.0000 0.46662  0.08768  0.50269  Biso   1.000  C
  C70      1.0000 0.51254  0.11440  0.47336  Biso   1.000  C
  H37      1.0000 0.57488  0.07882  0.43383  Biso   1.000  H
  C71      1.0000 0.47882  0.18613  0.49112  Biso   1.000  C
  H38      1.0000 0.51576  0.20453  0.46278  Biso   1.000  H
  C72      1.0000 0.39904  0.23230  0.54158  Biso   1.000  C
  C73      1.0000 0.35397  0.20515  0.57385  Biso   1.000  C
  H39      1.0000 0.29209  0.23966  0.61555  Biso   1.000  H
  C74      1.0000 0.38741  0.13294  0.55302  Biso   1.000  C
  C75      1.0000 0.28970  0.34234  0.56552  Biso   1.000  C
  H40      1.0000 0.26069  0.31390  0.56583  Biso   1.000  H
  C76      1.0000 0.25732  0.41014  0.56882  Biso   1.000  C
  C77      1.0000 0.29849  0.44384  0.56095  Biso   1.000  C
  H41      1.0000 0.27528  0.49532  0.55953  Biso   1.000  H
  C78      1.0000 0.37154  0.40941  0.55023  Biso   1.000  C
  C79      1.0000 0.40175  0.34248  0.54957  Biso   1.000  C
  H42      1.0000 0.45787  0.31628  0.54246  Biso   1.000  H
  C80      1.0000 0.36186  0.30791  0.55531  Biso   1.000  C
  H43      1.0000 0.85608  0.49366  0.56504  Biso   1.000  H
  C81      1.0000 0.91729  0.53086  0.49440  Biso   1.000  C
  C82      1.0000 0.92245  0.55895  0.44364  Biso   1.000  C
  H44      1.0000 0.96901  0.56855  0.41764  Biso   1.000  H
  C83      1.0000 0.87003  0.57215  0.42366  Biso   1.000  C
  H45      1.0000 0.87715  0.59174  0.38166  Biso   1.000  H
  C84      1.0000 0.80963  0.56069  0.45719  Biso   1.000  C
  C85      1.0000 0.80524  0.53227  0.50815  Biso   1.000  C
  H46      1.0000 0.75770  0.52488  0.53760  Biso   1.000  H
  C86      1.0000 0.86014  0.51572  0.52507  Biso   1.000  C
  C87      1.0000 0.70520  0.55163  0.45180  Biso   1.000  C
  H47      1.0000 0.72434  0.50291  0.45900  Biso   1.000  H
  C88      1.0000 0.63747  0.58208  0.45316  Biso   1.000  C
  C89      1.0000 0.61370  0.64410  0.44233  Biso   1.000  C
  H48      1.0000 0.55983  0.66933  0.44506  Biso   1.000  H
  C90      1.0000 0.65701  0.67593  0.43204  Biso   1.000  C
  C91      1.0000 0.72279  0.64605  0.43375  Biso   1.000  C
  H49      1.0000 0.75294  0.67363  0.43171  Biso   1.000  H
  C92      1.0000 0.74675  0.58465  0.44441  Biso   1.000  C
  H50      1.0000 0.51112  0.43081  0.88184  Biso   1.000  H
  C93      1.0000 0.40065  0.51315  0.97868  Biso   1.000  C
  C94      1.0000 0.33231  0.57624  0.00694  Biso   1.000  C
  H51      1.0000 0.28883  0.60372  0.06546  Biso   1.000  H
  C95      1.0000 0.31941  0.60512  0.96091  Biso   1.000  C
  H52      1.0000 0.26382  0.65332  0.98511  Biso   1.000  H
  C96      1.0000 0.37719  0.57382  0.88634  Biso   1.000  C
  C97      1.0000 0.44525  0.50955  0.85837  Biso   1.000  C
  H53      1.0000 0.49306  0.48398  0.80143  Biso   1.000  H
  C98      1.0000 0.45596  0.47889  0.90409  Biso   1.000  C
  C99      1.0000 0.40598  0.57132  0.76362  Biso   1.000  C
  H54      1.0000 0.44106  0.51392  0.73898  Biso   1.000  H
  C100     1.0000 0.39662  0.60580  0.71977  Biso   1.000  C
  C101     1.0000 0.34737  0.67841  0.75089  Biso   1.000  C
  H55      1.0000 0.33977  0.70470  0.71639  Biso   1.000  H
  C102     1.0000 0.30901  0.71736  0.82502  Biso   1.000  C
  C103     1.0000 0.32077  0.68360  0.86834  Biso   1.000  C
  H56      1.0000 0.29246  0.71565  0.92560  Biso   1.000  H
  C104     1.0000 0.36780  0.60992  0.83860  Biso   1.000  C
  O17      1.0000 0.08974  0.03644  0.98541  Biso   1.000  O
  O18      1.0000 0.04050  0.00201  0.91955  Biso   1.000  O
  C105     1.0000 0.03064  0.04922  0.97299  Biso   1.000  C
  O19      1.0000 0.24704  0.93421  0.88911  Biso   1.000  O
  O20      1.0000 0.19558  0.95132  0.81570  Biso   1.000  O
  C106     1.0000 0.24721  0.94937  0.83100  Biso   1.000  C
  Cu5      1.0000 0.15668  0.93730  0.96396  Biso   1.000  Cu
  Cu6      1.0000 0.13657  0.90806  0.85797  Biso   1.000  Cu
  O21      1.0000 0.21931  0.83370  0.92667  Biso   1.000  O
  O22      1.0000 0.23491  0.81839  0.81358  Biso   1.000  O
  O23      1.0000 0.06320  0.93527  0.02227  Biso   1.000  O
  O24      1.0000 0.08165  0.86909  0.91613  Biso   1.000  O
  C107     1.0000 0.25230  0.79364  0.85686  Biso   1.000  C
  C108     1.0000 0.04991  0.89308  0.98812  Biso   1.000  C
  O25      1.0000 0.54457  0.50774  0.08352  Biso   1.000  O
  O26      1.0000 0.59248  0.41183  0.97644  Biso   1.000  O
  C109     1.0000 0.59661  0.46354  0.00829  Biso   1.000  C
  O27      1.0000 0.49506  0.45868  0.18805  Biso   1.000  O
  O28      1.0000 0.59407  0.35829  0.07773  Biso   1.000  O
  C110     1.0000 0.56331  0.39783  0.14683  Biso   1.000  C
  Cu7      1.0000 0.44954  0.50725  0.14069  Biso   1.000  Cu
  Cu8      1.0000 0.53068  0.37904  0.03685  Biso   1.000  Cu
  O29      1.0000 0.36688  0.48679  0.18265  Biso   1.000  O
  O30      1.0000 0.45716  0.36578  0.11263  Biso   1.000  O
  O31      1.0000 0.41722  0.53565  0.07675  Biso   1.000  O
  O32      1.0000 0.45518  0.42017  0.01151  Biso   1.000  O
  C111     1.0000 0.38724  0.41950  0.16805  Biso   1.000  C
  C112     1.0000 0.42160  0.48902  0.02714  Biso   1.000  C
  O33      1.0000 0.45006  0.90441  0.55018  Biso   1.000  O
  O34      1.0000 0.54396  0.90343  0.56824  Biso   1.000  O
  C113     1.0000 0.47466  0.91227  0.59330  Biso   1.000  C
  O35      1.0000 0.56733  0.77751  0.42852  Biso   1.000  O
  O36      1.0000 0.66167  0.78025  0.44339  Biso   1.000  O
  C114     1.0000 0.62831  0.74712  0.43235  Biso   1.000  C
  Cu9      1.0000 0.51401  0.87721  0.44458  Biso   1.000  Cu
  Cu10     1.0000 0.61969  0.88142  0.46737  Biso   1.000  Cu
  O37      1.0000 0.58898  0.85685  0.34373  Biso   1.000  O
  O38      1.0000 0.68359  0.85358  0.36186  Biso   1.000  O
  O39      1.0000 0.47043  0.97896  0.47038  Biso   1.000  O
  O40      1.0000 0.56692  0.98071  0.48274  Biso   1.000  O
  C115     1.0000 0.65783  0.84968  0.31945  Biso   1.000  C
  C116     1.0000 0.50305  0.01200  0.48405  Biso   1.000  C
  O41      1.0000 0.98856  0.56690  0.65391  Biso   1.000  O
  O42      1.0000 0.00912  0.45490  0.63594  Biso   1.000  O
  C117     1.0000 0.97082  0.52284  0.67807  Biso   1.000  C
  O43      1.0000 0.99489  0.55826  0.52633  Biso   1.000  O
  O44      1.0000 0.00434  0.45035  0.51418  Biso   1.000  O
  C118     1.0000 0.97501  0.51253  0.51254  Biso   1.000  C
  Cu11     1.0000 0.07033  0.54030  0.55338  Biso   1.000  Cu
  Cu12     1.0000 0.08780  0.41279  0.53064  Biso   1.000  Cu
  O45      1.0000 0.14992  0.49809  0.44803  Biso   1.000  O
  O46      1.0000 0.16784  0.38700  0.43003  Biso   1.000  O
  O47      1.0000 0.15333  0.50294  0.57078  Biso   1.000  O
  O48      1.0000 0.16461  0.39450  0.55574  Biso   1.000  O
  C119     1.0000 0.18499  0.43061  0.40510  Biso   1.000  C
  C120     1.0000 0.18679  0.43855  0.56750  Biso   1.000  C
