data_image0
_cell_length_a       12.3342
_cell_length_b       12.3731
_cell_length_c       8.8709
_cell_angle_alpha    75.4778
_cell_angle_beta     78.9579
_cell_angle_gamma    63.3879

_symmetry_space_group_name_H-M    "P 1"
_symmetry_int_tables_number       1

loop_
  _symmetry_equiv_pos_as_xyz
  'x, y, z'

loop_
  _atom_site_label
  _atom_site_occupancy
  _atom_site_fract_x
  _atom_site_fract_y
  _atom_site_fract_z
  _atom_site_thermal_displace_type
  _atom_site_B_iso_or_equiv
  _atom_site_type_symbol
  C1       1.0000 0.97498  0.38904  0.39648  Biso   1.000  C
  C2       1.0000 0.01109  0.56772  0.30254  Biso   1.000  C
  C3       1.0000 0.86204  0.54411  0.19693  Biso   1.000  C
  C4       1.0000 0.04002  0.45413  0.39728  Biso   1.000  C
  H1       1.0000 0.11846  0.41311  0.46366  Biso   1.000  H
  C5       1.0000 0.92313  0.61282  0.20017  Biso   1.000  C
  H2       1.0000 0.90067  0.70232  0.12563  Biso   1.000  H
  C6       1.0000 0.88298  0.43672  0.30213  Biso   1.000  C
  H3       1.0000 0.83202  0.38447  0.30503  Biso   1.000  H
  C7       1.0000 0.13948  0.68915  0.29613  Biso   1.000  C
  C8       1.0000 0.07997  0.63401  0.30113  Biso   1.000  C
  C9       1.0000 0.65010  0.64433  0.09637  Biso   1.000  C
  C10      1.0000 0.75459  0.59666  0.12006  Biso   1.000  C
  C11      1.0000 0.08784  0.15471  0.42316  Biso   1.000  C
  C12      1.0000 0.03153  0.25998  0.43262  Biso   1.000  C
  O1       1.0000 0.24749  0.95908  0.46253  Biso   1.000  O
  O2       1.0000 0.17249  0.04302  0.22336  Biso   1.000  O
  C13      1.0000 0.16478  0.04312  0.37314  Biso   1.000  C
  O3       1.0000 0.48237  0.90692  0.33274  Biso   1.000  O
  O4       1.0000 0.40033  0.01915  0.10298  Biso   1.000  O
  C14      1.0000 0.47563  0.99202  0.20651  Biso   1.000  C
  Cu1      1.0000 0.37634  0.81896  0.38958  Biso   1.000  Cu
  Cu2      1.0000 0.30621  0.92857  0.10832  Biso   1.000  Cu
  O5       1.0000 0.49303  0.69260  0.28205  Biso   1.000  O
  O6       1.0000 0.45860  0.80340  0.03534  Biso   1.000  O
  O7       1.0000 0.26283  0.74696  0.40287  Biso   1.000  O
  O8       1.0000 0.22458  0.82174  0.14617  Biso   1.000  O
  C15      1.0000 0.52377  0.70549  0.13155  Biso   1.000  C
  C16      1.0000 0.21079  0.75523  0.28217  Biso   1.000  C
  C17      1.0000 0.80625  0.26610  0.15493  Biso   1.000  C
  C18      1.0000 0.80291  0.26576  0.88381  Biso   1.000  C
  C19      1.0000 0.69849  0.16868  0.08674  Biso   1.000  C
  C20      1.0000 0.84084  0.29941  0.99677  Biso   1.000  C
  H4       1.0000 0.89585  0.35083  0.96224  Biso   1.000  H
  C21      1.0000 0.73195  0.20071  0.93099  Biso   1.000  C
  H5       1.0000 0.70177  0.17523  0.84413  Biso   1.000  H
  C22      1.0000 0.73573  0.20127  0.19704  Biso   1.000  C
  H6       1.0000 0.70838  0.17664  0.31927  Biso   1.000  H
  C23      1.0000 0.84460  0.30681  0.57420  Biso   1.000  C
  C24      1.0000 0.83199  0.29436  0.71603  Biso   1.000  C
  C25      1.0000 0.55613  0.05181  0.17288  Biso   1.000  C
  C26      1.0000 0.62198  0.10423  0.13507  Biso   1.000  C
  C27      1.0000 0.84650  0.30785  0.41211  Biso   1.000  C
  C28      1.0000 0.83616  0.29540  0.28489  Biso   1.000  C
