data_image0
_cell_length_a       19.5862
_cell_length_b       18.1769
_cell_length_c       26.7593
_cell_angle_alpha    106.744
_cell_angle_beta     82.4028
_cell_angle_gamma    117.123

_symmetry_space_group_name_H-M    "P 1"
_symmetry_int_tables_number       1

loop_
  _symmetry_equiv_pos_as_xyz
  'x, y, z'

loop_
  _atom_site_label
  _atom_site_occupancy
  _atom_site_fract_x
  _atom_site_fract_y
  _atom_site_fract_z
  _atom_site_thermal_displace_type
  _atom_site_B_iso_or_equiv
  _atom_site_type_symbol
  C1       1.0000 0.38173  0.01958  0.69909  Biso   1.000  C
  C2       1.0000 0.25305  0.01858  0.63635  Biso   1.000  C
  C3       1.0000 0.30871  0.09150  0.67230  Biso   1.000  C
  H1       1.0000 0.30605  0.15166  0.67883  Biso   1.000  H
  C4       1.0000 0.36854  0.09230  0.70172  Biso   1.000  C
  H2       1.0000 0.40427  0.15234  0.72806  Biso   1.000  H
  C5       1.0000 0.74744  0.01269  0.69603  Biso   1.000  C
  H3       1.0000 0.74617  0.06878  0.72337  Biso   1.000  H
  C6       1.0000 0.81960  0.02803  0.66863  Biso   1.000  C
  H4       1.0000 0.86492  0.09264  0.67770  Biso   1.000  H
  C7       1.0000 0.23585  0.25521  0.33719  Biso   1.000  C
  C8       1.0000 0.24152  0.18193  0.34161  Biso   1.000  C
  H5       1.0000 0.27270  0.15516  0.31178  Biso   1.000  H
  C9       1.0000 0.20847  0.13964  0.38339  Biso   1.000  C
  H6       1.0000 0.21711  0.08444  0.38199  Biso   1.000  H
  C10      1.0000 0.16566  0.16529  0.42594  Biso   1.000  C
  C11      1.0000 0.15983  0.23832  0.42174  Biso   1.000  C
  H7       1.0000 0.12844  0.26439  0.45192  Biso   1.000  H
  C12      1.0000 0.19285  0.28067  0.37999  Biso   1.000  C
  H8       1.0000 0.18371  0.33568  0.38195  Biso   1.000  H
  C13      1.0000 0.32585  0.94784  0.66305  Biso   1.000  C
  H9       1.0000 0.32653  0.88670  0.65643  Biso   1.000  H
  C14      1.0000 0.26682  0.94704  0.63398  Biso   1.000  C
  H10      1.0000 0.22998  0.88640  0.60867  Biso   1.000  H
  C15      1.0000 0.67984  0.93274  0.69044  Biso   1.000  C
  C16      1.0000 0.83541  0.96519  0.63106  Biso   1.000  C
  C17      1.0000 0.76846  0.88423  0.62449  Biso   1.000  C
  H11      1.0000 0.77247  0.82988  0.59664  Biso   1.000  H
  C18      1.0000 0.69502  0.86852  0.65236  Biso   1.000  C
  H12      1.0000 0.64967  0.80393  0.64359  Biso   1.000  H
  C19      1.0000 0.81317  0.76387  0.32424  Biso   1.000  C
  C20      1.0000 0.84532  0.85260  0.34740  Biso   1.000  C
  H13      1.0000 0.83155  0.89284  0.33190  Biso   1.000  H
  C21      1.0000 0.89711  0.89337  0.39020  Biso   1.000  C
  H14      1.0000 0.91940  0.96193  0.40549  Biso   1.000  H
  C22      1.0000 0.92077  0.84884  0.41336  Biso   1.000  C
  C23      1.0000 0.88906  0.76056  0.39054  Biso   1.000  C
  H15      1.0000 0.90445  0.72170  0.40633  Biso   1.000  H
  C24      1.0000 0.83739  0.71963  0.34768  Biso   1.000  C
  H16      1.0000 0.81533  0.65106  0.33346  Biso   1.000  H
  C25      1.0000 0.06110  0.00928  0.54303  Biso   1.000  C
  C26      1.0000 0.91730  0.98561  0.60160  Biso   1.000  C
  C27      1.0000 0.98511  0.00661  0.57920  Biso   1.000  C
  C28      1.0000 0.02228  0.92889  0.49758  Biso   1.000  C
  C29      1.0000 0.97641  0.89278  0.45954  Biso   1.000  C
  C30      1.0000 0.12931  0.11867  0.47198  Biso   1.000  C
  C31      1.0000 0.09977  0.08072  0.50947  Biso   1.000  C
  C32      1.0000 0.18502  0.01511  0.60350  Biso   1.000  C
  C33      1.0000 0.12945  0.00972  0.57640  Biso   1.000  C
  O1       1.0000 0.57195  0.96522  0.85595  Biso   1.000  O
  O2       1.0000 0.46302  0.83661  0.82969  Biso   1.000  O
  C34      1.0000 0.52223  0.88149  0.86248  Biso   1.000  C
  O3       1.0000 0.49155  0.06122  0.87117  Biso   1.000  O
  O4       1.0000 0.38682  0.93383  0.83101  Biso   1.000  O
  C35      1.0000 0.41796  0.01598  0.86639  Biso   1.000  C
  Cu1      1.0000 0.55129  0.02711  0.81366  Biso   1.000  Cu
  Cu2      1.0000 0.44582  0.88408  0.77809  Biso   1.000  Cu
  O5       1.0000 0.50481  0.05900  0.76626  Biso   1.000  O
  O6       1.0000 0.41543  0.92133  0.72675  Biso   1.000  O
  O7       1.0000 0.62260  0.00697  0.75956  Biso   1.000  O
  O8       1.0000 0.52828  0.86673  0.73150  Biso   1.000  O
  C36      1.0000 0.43913  0.00428  0.73299  Biso   1.000  C
  C37      1.0000 0.60440  0.93050  0.72731  Biso   1.000  C
  C38      1.0000 0.27315  0.30304  0.29001  Biso   1.000  C
  C39      1.0000 0.34332  0.39305  0.20130  Biso   1.000  C
  C40      1.0000 0.34926  0.32009  0.20550  Biso   1.000  C
  H17      1.0000 0.38077  0.29414  0.17535  Biso   1.000  H
  C41      1.0000 0.31625  0.27769  0.24724  Biso   1.000  C
  H18      1.0000 0.32546  0.22273  0.24529  Biso   1.000  H
  C42      1.0000 0.74092  0.63688  0.24418  Biso   1.000  C
  H19      1.0000 0.77056  0.60302  0.25084  Biso   1.000  H
  C43      1.0000 0.68917  0.59615  0.20137  Biso   1.000  C
  H20      1.0000 0.68127  0.53339  0.17809  Biso   1.000  H
  C44      1.0000 0.38340  0.07495  0.90234  Biso   1.000  C
  C45      1.0000 0.38299  0.14049  0.88424  Biso   1.000  C
  H21      1.0000 0.37799  0.12922  0.84265  Biso   1.000  H
  C46      1.0000 0.39806  0.22458  0.91629  Biso   1.000  C
  H22      1.0000 0.39889  0.27064  0.89785  Biso   1.000  H
  C47      1.0000 0.41689  0.25227  0.96962  Biso   1.000  C
  C48      1.0000 0.41574  0.18700  0.98838  Biso   1.000  C
  H23      1.0000 0.43089  0.20222  0.02874  Biso   1.000  H
  C49      1.0000 0.40081  0.10323  0.95612  Biso   1.000  C
  H24      1.0000 0.41004  0.06132  0.97316  Biso   1.000  H
  C50      1.0000 0.26738  0.37627  0.28559  Biso   1.000  C
  H25      1.0000 0.23611  0.40295  0.31539  Biso   1.000  H
  C51      1.0000 0.30042  0.41859  0.24383  Biso   1.000  C
  H26      1.0000 0.29171  0.47375  0.24524  Biso   1.000  H
  C52      1.0000 0.75589  0.71867  0.27688  Biso   1.000  C
  C53      1.0000 0.64817  0.63370  0.18784  Biso   1.000  C
  C54      1.0000 0.66266  0.71501  0.22021  Biso   1.000  C
  H27      1.0000 0.63295  0.74808  0.21236  Biso   1.000  H
  C55      1.0000 0.71446  0.75597  0.26299  Biso   1.000  C
  H28      1.0000 0.72070  0.81814  0.28600  Biso   1.000  H
  C56      1.0000 0.52154  0.82468  0.90339  Biso   1.000  C
  C57      1.0000 0.56877  0.84518  0.94703  Biso   1.000  C
  H29      1.0000 0.61602  0.90848  0.95681  Biso   1.000  H
  C58      1.0000 0.55804  0.78730  0.98017  Biso   1.000  C
  H30      1.0000 0.59875  0.81296  0.01150  Biso   1.000  H
  C59      1.0000 0.49886  0.70054  0.97515  Biso   1.000  C
  C60      1.0000 0.45242  0.68089  0.93178  Biso   1.000  C
  H31      1.0000 0.40471  0.61792  0.92215  Biso   1.000  H
  C61      1.0000 0.46303  0.73813  0.89905  Biso   1.000  C
  H32      1.0000 0.42145  0.71142  0.86821  Biso   1.000  H
  C62      1.0000 0.47023  0.50986  0.07238  Biso   1.000  C
  C63      1.0000 0.59246  0.58978  0.14171  Biso   1.000  C
  C64      1.0000 0.54659  0.55374  0.10367  Biso   1.000  C
  C65      1.0000 0.47242  0.57957  0.04026  Biso   1.000  C
  C66      1.0000 0.48510  0.63439  0.01165  Biso   1.000  C
  C67      1.0000 0.43992  0.34562  0.00358  Biso   1.000  C
  C68      1.0000 0.46025  0.42241  0.03144  Biso   1.000  C
  C69      1.0000 0.37967  0.43975  0.15530  Biso   1.000  C
  C70      1.0000 0.40923  0.47783  0.11787  Biso   1.000  C
