data_image0
_cell_length_a       14.8903
_cell_length_b       13.1678
_cell_length_c       12.9852
_cell_angle_alpha    90
_cell_angle_beta     105.664
_cell_angle_gamma    90

_symmetry_space_group_name_H-M    "P 1"
_symmetry_int_tables_number       1

loop_
  _symmetry_equiv_pos_as_xyz
  'x, y, z'

loop_
  _atom_site_label
  _atom_site_occupancy
  _atom_site_fract_x
  _atom_site_fract_y
  _atom_site_fract_z
  _atom_site_thermal_displace_type
  _atom_site_B_iso_or_equiv
  _atom_site_type_symbol
  Y1       1.0000 0.27100  0.43509  0.19229  Biso   1.000  Y
  Y2       1.0000 0.72899  0.56492  0.80771  Biso   1.000  Y
  Y3       1.0000 0.74160  0.43142  0.31202  Biso   1.000  Y
  Y4       1.0000 0.25840  0.56858  0.68799  Biso   1.000  Y
  Y5       1.0000 0.75840  0.93143  0.18799  Biso   1.000  Y
  Y6       1.0000 0.24160  0.06858  0.81202  Biso   1.000  Y
  Y7       1.0000 0.22900  0.93509  0.30771  Biso   1.000  Y
  Y8       1.0000 0.77100  0.06492  0.69229  Biso   1.000  Y
  O1       1.0000 0.12099  0.46055  0.23428  Biso   1.000  O
  O2       1.0000 0.87901  0.53946  0.76573  Biso   1.000  O
  O3       1.0000 0.88877  0.44224  0.26836  Biso   1.000  O
  O4       1.0000 0.11123  0.55776  0.73164  Biso   1.000  O
  O5       1.0000 0.61122  0.94224  0.23164  Biso   1.000  O
  O6       1.0000 0.38878  0.05776  0.76837  Biso   1.000  O
  O7       1.0000 0.37901  0.96055  0.26573  Biso   1.000  O
  O8       1.0000 0.62099  0.03945  0.73428  Biso   1.000  O
  O9       1.0000 0.12023  0.44705  0.06262  Biso   1.000  O
  O10      1.0000 0.87977  0.55295  0.93738  Biso   1.000  O
  O11      1.0000 0.88639  0.50344  0.42781  Biso   1.000  O
  O12      1.0000 0.11361  0.49656  0.57219  Biso   1.000  O
  O13      1.0000 0.61361  0.00344  0.07219  Biso   1.000  O
  O14      1.0000 0.38639  0.99656  0.92781  Biso   1.000  O
  O15      1.0000 0.37977  0.94706  0.43738  Biso   1.000  O
  O16      1.0000 0.62023  0.05294  0.56263  Biso   1.000  O
  O17      1.0000 0.29456  0.30958  0.07329  Biso   1.000  O
  O18      1.0000 0.70544  0.69042  0.92672  Biso   1.000  O
  O19      1.0000 0.20544  0.80958  0.42672  Biso   1.000  O
  O20      1.0000 0.79456  0.19042  0.57329  Biso   1.000  O
  O21      1.0000 0.27960  0.18028  0.95728  Biso   1.000  O
  O22      1.0000 0.72040  0.81972  0.04272  Biso   1.000  O
  O23      1.0000 0.22040  0.68028  0.54273  Biso   1.000  O
  O24      1.0000 0.77960  0.31972  0.45728  Biso   1.000  O
  O25      1.0000 0.31694  0.44956  0.38273  Biso   1.000  O
  O26      1.0000 0.68306  0.55044  0.61727  Biso   1.000  O
  O27      1.0000 0.68445  0.44300  0.12062  Biso   1.000  O
  O28      1.0000 0.31555  0.55700  0.87938  Biso   1.000  O
  O29      1.0000 0.81555  0.94300  0.37938  Biso   1.000  O
  O30      1.0000 0.18445  0.05700  0.62062  Biso   1.000  O
  O31      1.0000 0.18306  0.94956  0.11727  Biso   1.000  O
  O32      1.0000 0.81694  0.05044  0.88273  Biso   1.000  O
  O33      1.0000 0.31640  0.48123  0.55239  Biso   1.000  O
  O34      1.0000 0.68360  0.51877  0.44761  Biso   1.000  O
  O35      1.0000 0.68191  0.47576  0.95012  Biso   1.000  O
  O36      1.0000 0.31809  0.52424  0.04988  Biso   1.000  O
  O37      1.0000 0.81809  0.97576  0.54988  Biso   1.000  O
  O38      1.0000 0.18191  0.02424  0.45012  Biso   1.000  O
  O39      1.0000 0.18360  0.98123  0.94761  Biso   1.000  O
  O40      1.0000 0.81640  0.01877  0.05239  Biso   1.000  O
  O41      1.0000 0.24752  0.27594  0.26063  Biso   1.000  O
  O42      1.0000 0.75248  0.72406  0.73938  Biso   1.000  O
  O43      1.0000 0.75626  0.27067  0.24135  Biso   1.000  O
  O44      1.0000 0.24374  0.72934  0.75866  Biso   1.000  O
  O45      1.0000 0.74373  0.77067  0.25865  Biso   1.000  O
  O46      1.0000 0.25627  0.22933  0.74135  Biso   1.000  O
  O47      1.0000 0.25248  0.77594  0.23938  Biso   1.000  O
  O48      1.0000 0.74752  0.22406  0.76063  Biso   1.000  O
  O49      1.0000 0.23264  0.10877  0.28219  Biso   1.000  O
  O50      1.0000 0.76736  0.89123  0.71782  Biso   1.000  O
  O51      1.0000 0.76770  0.10203  0.22903  Biso   1.000  O
  O52      1.0000 0.23230  0.89797  0.77097  Biso   1.000  O
  O53      1.0000 0.73230  0.60203  0.27097  Biso   1.000  O
  O54      1.0000 0.26770  0.39797  0.72903  Biso   1.000  O
  O55      1.0000 0.26736  0.60877  0.21781  Biso   1.000  O
  O56      1.0000 0.73265  0.39123  0.78219  Biso   1.000  O
  O57      1.0000 0.43505  0.43394  0.24291  Biso   1.000  O
  O58      1.0000 0.56495  0.56606  0.75709  Biso   1.000  O
  O59      1.0000 0.58575  0.38689  0.27784  Biso   1.000  O
  O60      1.0000 0.41425  0.61311  0.72217  Biso   1.000  O
  O61      1.0000 0.91425  0.88689  0.22216  Biso   1.000  O
  O62      1.0000 0.08575  0.11311  0.77784  Biso   1.000  O
  O63      1.0000 0.06496  0.93394  0.25709  Biso   1.000  O
  O64      1.0000 0.93504  0.06606  0.74291  Biso   1.000  O
  C1       1.0000 0.07891  0.46587  0.13544  Biso   1.000  C
  C2       1.0000 0.92109  0.53413  0.86456  Biso   1.000  C
  C3       1.0000 0.92892  0.48627  0.35691  Biso   1.000  C
  C4       1.0000 0.07108  0.51373  0.64309  Biso   1.000  C
  C5       1.0000 0.57107  0.98627  0.14309  Biso   1.000  C
  C6       1.0000 0.42893  0.01373  0.85692  Biso   1.000  C
  C7       1.0000 0.42110  0.96587  0.36456  Biso   1.000  C
  C8       1.0000 0.57890  0.03413  0.63544  Biso   1.000  C
  C9       1.0000 0.24902  0.25813  0.99409  Biso   1.000  C
  C10      1.0000 0.75097  0.74187  0.00591  Biso   1.000  C
  C11      1.0000 0.74903  0.24187  0.49409  Biso   1.000  C
  C12      1.0000 0.25097  0.75813  0.50591  Biso   1.000  C
  C13      1.0000 0.27896  0.48488  0.45137  Biso   1.000  C
  C14      1.0000 0.72104  0.51512  0.54863  Biso   1.000  C
  C15      1.0000 0.71997  0.48007  0.05091  Biso   1.000  C
  C16      1.0000 0.28004  0.51993  0.94910  Biso   1.000  C
  C17      1.0000 0.78004  0.98007  0.44909  Biso   1.000  C
  C18      1.0000 0.21997  0.01993  0.55091  Biso   1.000  C
  C19      1.0000 0.22104  0.98488  0.04863  Biso   1.000  C
  C20      1.0000 0.77896  0.01512  0.95137  Biso   1.000  C
  C21      1.0000 0.27668  0.18526  0.26250  Biso   1.000  C
  C22      1.0000 0.72332  0.81474  0.73750  Biso   1.000  C
  C23      1.0000 0.72275  0.18205  0.23616  Biso   1.000  C
  C24      1.0000 0.27725  0.81795  0.76384  Biso   1.000  C
  C25      1.0000 0.77724  0.68205  0.26384  Biso   1.000  C
  C26      1.0000 0.22276  0.31795  0.73617  Biso   1.000  C
  C27      1.0000 0.22332  0.68526  0.23750  Biso   1.000  C
  C28      1.0000 0.77668  0.31474  0.76251  Biso   1.000  C
  C29      1.0000 0.49929  0.36860  0.25202  Biso   1.000  C
  C30      1.0000 0.50071  0.63140  0.74798  Biso   1.000  C
  C31      1.0000 0.00071  0.86860  0.24798  Biso   1.000  C
  C32      1.0000 0.99929  0.13140  0.75202  Biso   1.000  C
  H1       1.0000 0.00406  0.48821  0.11056  Biso   1.000  H
  H2       1.0000 0.99594  0.51179  0.88945  Biso   1.000  H
  H3       1.0000 0.00308  0.50955  0.37176  Biso   1.000  H
  H4       1.0000 0.99692  0.49045  0.62824  Biso   1.000  H
  H5       1.0000 0.49692  0.00955  0.12824  Biso   1.000  H
  H6       1.0000 0.50308  0.99045  0.87176  Biso   1.000  H
  H7       1.0000 0.49594  0.98821  0.38944  Biso   1.000  H
  H8       1.0000 0.50406  0.01179  0.61056  Biso   1.000  H
  H9       1.0000 0.17654  0.28368  0.95381  Biso   1.000  H
  H10      1.0000 0.82346  0.71632  0.04619  Biso   1.000  H
  H11      1.0000 0.32346  0.78368  0.54619  Biso   1.000  H
  H12      1.0000 0.67654  0.21632  0.45381  Biso   1.000  H
  H13      1.0000 0.20954  0.52120  0.42368  Biso   1.000  H
  H14      1.0000 0.79046  0.47881  0.57632  Biso   1.000  H
  H15      1.0000 0.78890  0.51803  0.07763  Biso   1.000  H
  H16      1.0000 0.21110  0.48197  0.92237  Biso   1.000  H
  H17      1.0000 0.71110  0.01803  0.42237  Biso   1.000  H
  H18      1.0000 0.28890  0.98197  0.57763  Biso   1.000  H
  H19      1.0000 0.29046  0.02119  0.07632  Biso   1.000  H
  H20      1.0000 0.70954  0.97881  0.92368  Biso   1.000  H
  H21      1.0000 0.34541  0.17161  0.24635  Biso   1.000  H
  H22      1.0000 0.65459  0.82839  0.75365  Biso   1.000  H
  H23      1.0000 0.64862  0.17364  0.23792  Biso   1.000  H
  H24      1.0000 0.35138  0.82636  0.76208  Biso   1.000  H
  H25      1.0000 0.85138  0.67364  0.26208  Biso   1.000  H
  H26      1.0000 0.14862  0.32636  0.73792  Biso   1.000  H
  H27      1.0000 0.15459  0.67161  0.25365  Biso   1.000  H
  H28      1.0000 0.84541  0.32839  0.74635  Biso   1.000  H
  H29      1.0000 0.47749  0.28779  0.23577  Biso   1.000  H
  H30      1.0000 0.52251  0.71221  0.76424  Biso   1.000  H
  H31      1.0000 0.02251  0.78779  0.26423  Biso   1.000  H
  H32      1.0000 0.97750  0.21221  0.73577  Biso   1.000  H
