data_image0
_cell_length_a       10.175
_cell_length_b       21.481
_cell_length_c       10.493
_cell_angle_alpha    90
_cell_angle_beta     93.144
_cell_angle_gamma    90

_symmetry_space_group_name_H-M    "P 1"
_symmetry_int_tables_number       1

loop_
  _symmetry_equiv_pos_as_xyz
  'x, y, z'

loop_
  _atom_site_label
  _atom_site_occupancy
  _atom_site_fract_x
  _atom_site_fract_y
  _atom_site_fract_z
  _atom_site_thermal_displace_type
  _atom_site_B_iso_or_equiv
  _atom_site_type_symbol
  Zn1      1.0000 0.48930  0.42656  0.32090  Biso   1.000  Zn
  Zn2      1.0000 0.52820  0.65311  0.48500  Biso   1.000  Zn
  Zn3      1.0000 0.97600  0.47007  0.01560  Biso   1.000  Zn
  Zn4      1.0000 0.01450  0.69784  0.18350  Biso   1.000  Zn
  O1       1.0000 0.52730  0.55300  0.42020  Biso   1.000  O
  O2       1.0000 0.47060  0.46000  0.49560  Biso   1.000  O
  O3       1.0000 0.98220  0.57070  0.08550  Biso   1.000  O
  O4       1.0000 0.03480  0.66340  0.01900  Biso   1.000  O
  N1       1.0000 0.84550  0.45180  0.14690  Biso   1.000  N
  N2       1.0000 0.85970  0.39990  0.22360  Biso   1.000  N
  N3       1.0000 0.75140  0.38850  0.29140  Biso   1.000  N
  N4       1.0000 0.67090  0.43350  0.25540  Biso   1.000  N
  N5       1.0000 0.45660  0.33690  0.35920  Biso   1.000  N
  N6       1.0000 0.37220  0.30510  0.28150  Biso   1.000  N
  N7       1.0000 0.37330  0.24820  0.32700  Biso   1.000  N
  N8       1.0000 0.45470  0.24320  0.43280  Biso   1.000  N
  N9       1.0000 0.35570  0.45040  0.18750  Biso   1.000  N
  N10      1.0000 0.36810  0.43830  0.06390  Biso   1.000  N
  N11      1.0000 0.25480  0.45060  0.99750  Biso   1.000  N
  N12      1.0000 0.16530  0.46160  0.08690  Biso   1.000  N
  N13      1.0000 0.95230  0.28850  0.85070  Biso   1.000  N
  N14      1.0000 0.86300  0.32270  0.78010  Biso   1.000  N
  N15      1.0000 0.86090  0.37930  0.82230  Biso   1.000  N
  N16      1.0000 0.95060  0.38400  0.92240  Biso   1.000  N
  N17      1.0000 0.84070  0.68600  0.25270  Biso   1.000  N
  N18      1.0000 0.73830  0.72990  0.22360  Biso   1.000  N
  N19      1.0000 0.64070  0.71990  0.28200  Biso   1.000  N
  N20      1.0000 0.66820  0.67100  0.35930  Biso   1.000  N
  N21      1.0000 0.15410  0.66990  0.31320  Biso   1.000  N
  N22      1.0000 0.13140  0.68030  0.43980  Biso   1.000  N
  N23      1.0000 0.24160  0.67930  0.50240  Biso   1.000  N
  N24      1.0000 0.33840  0.65820  0.42510  Biso   1.000  N
  N25      1.0000 0.55400  0.60600  0.64320  Biso   1.000  N
  H1       1.0000 0.63870  0.59690  0.65660  Biso   1.000  H
  H2       1.0000 0.52960  0.62920  0.70810  Biso   1.000  H
  N26      1.0000 0.94900  0.52390  0.84900  Biso   1.000  N
  H3       1.0000 0.98770  0.50470  0.78570  Biso   1.000  H
  H4       1.0000 0.86380  0.52650  0.82770  Biso   1.000  H
  C1       1.0000 0.72300  0.47390  0.16900  Biso   1.000  C
  C2       1.0000 0.65600  0.53130  0.11400  Biso   1.000  C
  H5       1.0000 0.57000  0.53500  0.14650  Biso   1.000  H
  H6       1.0000 0.70730  0.56740  0.13740  Biso   1.000  H
  H7       1.0000 0.64790  0.52790  0.02250  Biso   1.000  H
  C3       1.0000 0.50300  0.29860  0.44700  Biso   1.000  C
  C4       1.0000 0.59700  0.31780  0.55140  Biso   1.000  C
  H8       1.0000 0.61910  0.36090  0.54140  Biso   1.000  H
  H9       1.0000 0.55800  0.31190  0.63170  Biso   1.000  H
  H10      1.0000 0.67570  0.29310  0.54930  Biso   1.000  H
  C5       1.0000 0.22490  0.46670  0.19390  Biso   1.000  C
  C6       1.0000 0.15900  0.48370  0.31200  Biso   1.000  C
  H11      1.0000 0.22330  0.48490  0.38300  Biso   1.000  H
  H12      1.0000 0.11880  0.52390  0.30190  Biso   1.000  H
  H13      1.0000 0.09310  0.45330  0.32880  Biso   1.000  H
  C7       1.0000 0.00600  0.32730  0.94100  Biso   1.000  C
  C8       1.0000 0.10900  0.30920  0.04000  Biso   1.000  C
  H14      1.0000 0.12940  0.26590  0.03060  Biso   1.000  H
  H15      1.0000 0.18630  0.33380  0.02980  Biso   1.000  H
  H16      1.0000 0.07670  0.31640  0.12290  Biso   1.000  H
  C9       1.0000 0.78490  0.65260  0.33760  Biso   1.000  C
  C10      1.0000 0.85200  0.60240  0.40300  Biso   1.000  C
  H17      1.0000 0.93760  0.59730  0.37070  Biso   1.000  H
  H18      1.0000 0.86060  0.61150  0.49280  Biso   1.000  H
  H19      1.0000 0.80220  0.56470  0.38990  Biso   1.000  H
  C11      1.0000 0.27400  0.65920  0.30400  Biso   1.000  C
  C12      1.0000 0.33700  0.64290  0.18400  Biso   1.000  C
  H20      1.0000 0.42970  0.63690  0.20100  Biso   1.000  H
  H21      1.0000 0.29860  0.60520  0.14930  Biso   1.000  H
  H22      1.0000 0.32290  0.67600  0.12310  Biso   1.000  H
  C13      1.0000 0.49900  0.51850  0.50500  Biso   1.000  C
  C14      1.0000 0.47300  0.54520  0.63830  Biso   1.000  C
  H23      1.0000 0.37940  0.55630  0.63900  Biso   1.000  H
  C15      1.0000 0.50300  0.50010  0.74660  Biso   1.000  C
  H24      1.0000 0.44870  0.46390  0.73560  Biso   1.000  H
  H25      1.0000 0.59430  0.48800  0.74670  Biso   1.000  H
  H26      1.0000 0.48690  0.51980  0.82630  Biso   1.000  H
  C16      1.0000 0.01000  0.60770  0.99600  Biso   1.000  C
  C17      1.0000 0.00200  0.58520  0.86200  Biso   1.000  C
  H27      1.0000 0.95100  0.61430  0.80670  Biso   1.000  H
  C18      1.0000 0.14000  0.57670  0.81400  Biso   1.000  C
  H28      1.0000 0.18560  0.61580  0.81860  Biso   1.000  H
  H29      1.0000 0.18700  0.54680  0.86700  Biso   1.000  H
  H30      1.0000 0.13360  0.56230  0.72770  Biso   1.000  H
  Zn5      1.0000 0.51070  0.92656  0.67910  Biso   1.000  Zn
  Zn6      1.0000 0.47180  0.15311  0.51500  Biso   1.000  Zn
  Zn7      1.0000 0.02400  0.97007  0.98440  Biso   1.000  Zn
  Zn8      1.0000 0.98550  0.19784  0.81650  Biso   1.000  Zn
  O5       1.0000 0.47270  0.05300  0.57980  Biso   1.000  O
  O6       1.0000 0.52940  0.96000  0.50440  Biso   1.000  O
  O7       1.0000 0.01780  0.07070  0.91450  Biso   1.000  O
  O8       1.0000 0.96520  0.16340  0.98100  Biso   1.000  O
  N27      1.0000 0.15450  0.95180  0.85310  Biso   1.000  N
  N28      1.0000 0.14030  0.89990  0.77640  Biso   1.000  N
  N29      1.0000 0.24860  0.88850  0.70860  Biso   1.000  N
  N30      1.0000 0.32910  0.93350  0.74460  Biso   1.000  N
  N31      1.0000 0.54340  0.83690  0.64080  Biso   1.000  N
  N32      1.0000 0.62780  0.80510  0.71850  Biso   1.000  N
  N33      1.0000 0.62670  0.74820  0.67300  Biso   1.000  N
  N34      1.0000 0.54530  0.74320  0.56720  Biso   1.000  N
  N35      1.0000 0.64430  0.95040  0.81250  Biso   1.000  N
  N36      1.0000 0.63190  0.93830  0.93610  Biso   1.000  N
  N37      1.0000 0.74520  0.95060  0.00250  Biso   1.000  N
  N38      1.0000 0.83470  0.96160  0.91310  Biso   1.000  N
  N39      1.0000 0.04770  0.78850  0.14930  Biso   1.000  N
  N40      1.0000 0.13700  0.82270  0.21990  Biso   1.000  N
  N41      1.0000 0.13910  0.87930  0.17770  Biso   1.000  N
  N42      1.0000 0.04940  0.88400  0.07760  Biso   1.000  N
  N43      1.0000 0.15930  0.18600  0.74730  Biso   1.000  N
  N44      1.0000 0.26170  0.22990  0.77640  Biso   1.000  N
  N45      1.0000 0.35930  0.21990  0.71800  Biso   1.000  N
  N46      1.0000 0.33180  0.17100  0.64070  Biso   1.000  N
  N47      1.0000 0.84590  0.16990  0.68680  Biso   1.000  N
  N48      1.0000 0.86860  0.18030  0.56020  Biso   1.000  N
  N49      1.0000 0.75840  0.17930  0.49760  Biso   1.000  N
  N50      1.0000 0.66160  0.15820  0.57490  Biso   1.000  N
  N51      1.0000 0.44600  0.10600  0.35680  Biso   1.000  N
  H31      1.0000 0.36130  0.09690  0.34340  Biso   1.000  H
  H32      1.0000 0.47040  0.12920  0.29190  Biso   1.000  H
  N52      1.0000 0.05100  0.02390  0.15100  Biso   1.000  N
  H33      1.0000 0.01230  0.00470  0.21430  Biso   1.000  H
  H34      1.0000 0.13620  0.02650  0.17230  Biso   1.000  H
  C19      1.0000 0.27700  0.97390  0.83100  Biso   1.000  C
  C20      1.0000 0.34400  0.03130  0.88600  Biso   1.000  C
  H35      1.0000 0.43000  0.03500  0.85350  Biso   1.000  H
  H36      1.0000 0.29270  0.06740  0.86260  Biso   1.000  H
  H37      1.0000 0.35210  0.02790  0.97750  Biso   1.000  H
  C21      1.0000 0.49700  0.79860  0.55300  Biso   1.000  C
  C22      1.0000 0.40300  0.81780  0.44860  Biso   1.000  C
  H38      1.0000 0.38090  0.86090  0.45860  Biso   1.000  H
  H39      1.0000 0.44200  0.81190  0.36830  Biso   1.000  H
  H40      1.0000 0.32430  0.79310  0.45070  Biso   1.000  H
  C23      1.0000 0.77510  0.96670  0.80610  Biso   1.000  C
  C24      1.0000 0.84100  0.98370  0.68800  Biso   1.000  C
  H41      1.0000 0.77670  0.98490  0.61700  Biso   1.000  H
  H42      1.0000 0.88120  0.02390  0.69810  Biso   1.000  H
  H43      1.0000 0.90690  0.95330  0.67120  Biso   1.000  H
  C25      1.0000 0.99400  0.82730  0.05900  Biso   1.000  C
  C26      1.0000 0.89100  0.80920  0.96000  Biso   1.000  C
  H44      1.0000 0.87060  0.76590  0.96940  Biso   1.000  H
  H45      1.0000 0.81370  0.83380  0.97020  Biso   1.000  H
  H46      1.0000 0.92330  0.81640  0.87710  Biso   1.000  H
  C27      1.0000 0.21510  0.15260  0.66240  Biso   1.000  C
  C28      1.0000 0.14800  0.10240  0.59700  Biso   1.000  C
  H47      1.0000 0.06240  0.09730  0.62930  Biso   1.000  H
  H48      1.0000 0.13940  0.11150  0.50720  Biso   1.000  H
  H49      1.0000 0.19780  0.06470  0.61010  Biso   1.000  H
  C29      1.0000 0.72600  0.15920  0.69600  Biso   1.000  C
  C30      1.0000 0.66300  0.14290  0.81600  Biso   1.000  C
  H50      1.0000 0.57030  0.13690  0.79900  Biso   1.000  H
  H51      1.0000 0.70140  0.10520  0.85070  Biso   1.000  H
  H52      1.0000 0.67710  0.17600  0.87690  Biso   1.000  H
  C31      1.0000 0.50100  0.01850  0.49500  Biso   1.000  C
  C32      1.0000 0.52700  0.04520  0.36170  Biso   1.000  C
  H53      1.0000 0.62060  0.05630  0.36100  Biso   1.000  H
  C33      1.0000 0.49700  0.00010  0.25340  Biso   1.000  C
  H54      1.0000 0.55130  0.96390  0.26440  Biso   1.000  H
  H55      1.0000 0.40570  0.98800  0.25330  Biso   1.000  H
  H56      1.0000 0.51310  0.01980  0.17370  Biso   1.000  H
  C34      1.0000 0.99000  0.10770  0.00400  Biso   1.000  C
  C35      1.0000 0.99800  0.08520  0.13800  Biso   1.000  C
  H57      1.0000 0.04900  0.11430  0.19330  Biso   1.000  H
  C36      1.0000 0.86000  0.07670  0.18600  Biso   1.000  C
  H58      1.0000 0.81440  0.11580  0.18140  Biso   1.000  H
  H59      1.0000 0.81300  0.04680  0.13300  Biso   1.000  H
  H60      1.0000 0.86640  0.06230  0.27230  Biso   1.000  H
