data_image0
_cell_length_a       11.565
_cell_length_b       17.7233
_cell_length_c       17.7233
_cell_angle_alpha    83.8894
_cell_angle_beta     70.9578
_cell_angle_gamma    70.9577

_symmetry_space_group_name_H-M    P 1
_symmetry_int_tables_number       1

loop_
  _symmetry_equiv_pos_as_xyz
  'x, y, z'

loop_
  _atom_site_label
  _atom_site_occupancy
  _atom_site_fract_x
  _atom_site_fract_y
  _atom_site_fract_z
  _atom_site_thermal_displace_type
  _atom_site_B_iso_or_equiv
  _atom_site_type_symbol
  Co1      1.0000 0.57740  0.22520  0.67080  Biso   1.000  Co
  Co2      1.0000 0.45770  0.41220  0.66760  Biso   1.000  Co
  Co3      1.0000 0.97340  0.27480  0.82920  Biso   1.000  Co
  Co4      1.0000 0.03750  0.08780  0.83240  Biso   1.000  Co
  Co5      1.0000 0.24820  0.32920  0.72520  Biso   1.000  Co
  Co6      1.0000 0.12530  0.33240  0.91220  Biso   1.000  Co
  Co7      1.0000 0.80260  0.17080  0.77480  Biso   1.000  Co
  Co8      1.0000 0.86990  0.16760  0.58780  Biso   1.000  Co
  Co9      1.0000 0.42260  0.77480  0.32920  Biso   1.000  Co
  Co10     1.0000 0.54230  0.58780  0.33240  Biso   1.000  Co
  Co11     1.0000 0.02660  0.72520  0.17080  Biso   1.000  Co
  Co12     1.0000 0.96250  0.91220  0.16760  Biso   1.000  Co
  Co13     1.0000 0.75180  0.67080  0.27480  Biso   1.000  Co
  Co14     1.0000 0.87470  0.66760  0.08780  Biso   1.000  Co
  Co15     1.0000 0.19740  0.82920  0.22520  Biso   1.000  Co
  Co16     1.0000 0.13010  0.83240  0.41220  Biso   1.000  Co
  Co17     1.0000 0.50000  0.50000  0.50000  Biso   1.000  Co
  Co18     1.0000 0.00000  0.00000  0.00000  Biso   1.000  Co
  Co19     1.0000 0.00000  0.50000  0.00000  Biso   1.000  Co
  Co20     1.0000 0.00000  0.00000  0.50000  Biso   1.000  Co
  H1       1.0000 0.42880  0.30700  0.60040  Biso   1.000  H
  H2       1.0000 0.48900  0.39020  0.90480  Biso   1.000  H
  H3       1.0000 0.61050  0.41260  0.84980  Biso   1.000  H
  H4       1.0000 0.48450  0.44000  0.82640  Biso   1.000  H
  H5       1.0000 0.11360  0.55360  0.55340  Biso   1.000  H
  H6       1.0000 0.23750  0.51150  0.48570  Biso   1.000  H
  H7       1.0000 0.13110  0.46950  0.52270  Biso   1.000  H
  H8       1.0000 0.85020  0.29650  0.43150  Biso   1.000  H
  H9       1.0000 0.73610  0.27610  0.41990  Biso   1.000  H
  H10      1.0000 0.73830  0.36470  0.41070  Biso   1.000  H
  H11      1.0000 0.60200  0.59960  0.71580  Biso   1.000  H
  H12      1.0000 0.47620  0.66260  0.70820  Biso   1.000  H
  H13      1.0000 0.60540  0.65160  0.63800  Biso   1.000  H
  H14      1.0000 0.83620  0.19300  0.89960  Biso   1.000  H
  H15      1.0000 0.28400  0.10980  0.59520  Biso   1.000  H
  H16      1.0000 0.37290  0.08740  0.65020  Biso   1.000  H
  H17      1.0000 0.25090  0.06000  0.67360  Biso   1.000  H
  H18      1.0000 0.72060  0.94640  0.94660  Biso   1.000  H
  H19      1.0000 0.73470  0.98850  0.01430  Biso   1.000  H
  H20      1.0000 0.62330  0.03050  0.97730  Biso   1.000  H
  H21      1.0000 0.07820  0.20350  0.06850  Biso   1.000  H
  H22      1.0000 0.93210  0.22390  0.08010  Biso   1.000  H
  H23      1.0000 0.01370  0.13530  0.08930  Biso   1.000  H
  H24      1.0000 0.41740  0.90040  0.78420  Biso   1.000  H
  H25      1.0000 0.34700  0.83740  0.79180  Biso   1.000  H
  H26      1.0000 0.39500  0.84840  0.86200  Biso   1.000  H
  H27      1.0000 0.02920  0.39960  0.80700  Biso   1.000  H
  H28      1.0000 0.39380  0.09520  0.89020  Biso   1.000  H
  H29      1.0000 0.46030  0.15020  0.91260  Biso   1.000  H
  H30      1.0000 0.31090  0.17360  0.94000  Biso   1.000  H
  H31      1.0000 0.66700  0.44660  0.05360  Biso   1.000  H
  H32      1.0000 0.72320  0.51430  0.01150  Biso   1.000  H
  H33      1.0000 0.65380  0.47730  0.96950  Biso   1.000  H
  H34      1.0000 0.28170  0.56850  0.79650  Biso   1.000  H
  H35      1.0000 0.15600  0.58010  0.77610  Biso   1.000  H
  H36      1.0000 0.14900  0.58930  0.86470  Biso   1.000  H
  H37      1.0000 0.31780  0.28420  0.09960  Biso   1.000  H
  H38      1.0000 0.18440  0.29180  0.16260  Biso   1.000  H
  H39      1.0000 0.24340  0.36200  0.15160  Biso   1.000  H
  H40      1.0000 0.73580  0.10040  0.69300  Biso   1.000  H
  H41      1.0000 0.87920  0.40480  0.60980  Biso   1.000  H
  H42      1.0000 0.02310  0.34980  0.58740  Biso   1.000  H
  H43      1.0000 0.92450  0.32640  0.56000  Biso   1.000  H
  H44      1.0000 0.66720  0.05340  0.44640  Biso   1.000  H
  H45      1.0000 0.74900  0.98570  0.48850  Biso   1.000  H
  H46      1.0000 0.60060  0.02270  0.53050  Biso   1.000  H
  H47      1.0000 0.14670  0.93150  0.70350  Biso   1.000  H
  H48      1.0000 0.01220  0.91990  0.72390  Biso   1.000  H
  H49      1.0000 0.10300  0.91070  0.63530  Biso   1.000  H
  H50      1.0000 0.20160  0.21580  0.40040  Biso   1.000  H
  H51      1.0000 0.13880  0.20820  0.33740  Biso   1.000  H
  H52      1.0000 0.25700  0.13800  0.34840  Biso   1.000  H
  H53      1.0000 0.57120  0.69300  0.39960  Biso   1.000  H
  H54      1.0000 0.51100  0.60980  0.09520  Biso   1.000  H
  H55      1.0000 0.38950  0.58740  0.15020  Biso   1.000  H
  H56      1.0000 0.51550  0.56000  0.17360  Biso   1.000  H
  H57      1.0000 0.88640  0.44640  0.44660  Biso   1.000  H
  H58      1.0000 0.76250  0.48850  0.51430  Biso   1.000  H
  H59      1.0000 0.86890  0.53050  0.47730  Biso   1.000  H
  H60      1.0000 0.14980  0.70350  0.56850  Biso   1.000  H
  H61      1.0000 0.26390  0.72390  0.58010  Biso   1.000  H
  H62      1.0000 0.26170  0.63530  0.58930  Biso   1.000  H
  H63      1.0000 0.39800  0.40040  0.28420  Biso   1.000  H
  H64      1.0000 0.52380  0.33740  0.29180  Biso   1.000  H
  H65      1.0000 0.39460  0.34840  0.36200  Biso   1.000  H
  H66      1.0000 0.16380  0.80700  0.10040  Biso   1.000  H
  H67      1.0000 0.71600  0.89020  0.40480  Biso   1.000  H
  H68      1.0000 0.62710  0.91260  0.34980  Biso   1.000  H
  H69      1.0000 0.74910  0.94000  0.32640  Biso   1.000  H
  H70      1.0000 0.27940  0.05360  0.05340  Biso   1.000  H
  H71      1.0000 0.26530  0.01150  0.98570  Biso   1.000  H
  H72      1.0000 0.37670  0.96950  0.02270  Biso   1.000  H
  H73      1.0000 0.92180  0.79650  0.93150  Biso   1.000  H
  H74      1.0000 0.06790  0.77610  0.91990  Biso   1.000  H
  H75      1.0000 0.98630  0.86470  0.91070  Biso   1.000  H
  H76      1.0000 0.58260  0.09960  0.21580  Biso   1.000  H
  H77      1.0000 0.65300  0.16260  0.20820  Biso   1.000  H
  H78      1.0000 0.60500  0.15160  0.13800  Biso   1.000  H
  H79      1.0000 0.97080  0.60040  0.19300  Biso   1.000  H
  H80      1.0000 0.60620  0.90480  0.10980  Biso   1.000  H
  H81      1.0000 0.53970  0.84980  0.08740  Biso   1.000  H
  H82      1.0000 0.68910  0.82640  0.06000  Biso   1.000  H
  H83      1.0000 0.33300  0.55340  0.94640  Biso   1.000  H
  H84      1.0000 0.27680  0.48570  0.98850  Biso   1.000  H
  H85      1.0000 0.34620  0.52270  0.03050  Biso   1.000  H
  H86      1.0000 0.71830  0.43150  0.20350  Biso   1.000  H
  H87      1.0000 0.84400  0.41990  0.22390  Biso   1.000  H
  H88      1.0000 0.85100  0.41070  0.13530  Biso   1.000  H
  H89      1.0000 0.68220  0.71580  0.90040  Biso   1.000  H
  H90      1.0000 0.81560  0.70820  0.83740  Biso   1.000  H
  H91      1.0000 0.75660  0.63800  0.84840  Biso   1.000  H
  H92      1.0000 0.26420  0.89960  0.30700  Biso   1.000  H
  H93      1.0000 0.12080  0.59520  0.39020  Biso   1.000  H
  H94      1.0000 0.97690  0.65020  0.41260  Biso   1.000  H
  H95      1.0000 0.07550  0.67360  0.44000  Biso   1.000  H
  H96      1.0000 0.33280  0.94660  0.55360  Biso   1.000  H
  H97      1.0000 0.25100  0.01430  0.51150  Biso   1.000  H
  H98      1.0000 0.39940  0.97730  0.46950  Biso   1.000  H
  H99      1.0000 0.85330  0.06850  0.29650  Biso   1.000  H
  H100     1.0000 0.98780  0.08010  0.27610  Biso   1.000  H
  H101     1.0000 0.89700  0.08930  0.36470  Biso   1.000  H
  H102     1.0000 0.79840  0.78420  0.59960  Biso   1.000  H
  H103     1.0000 0.86120  0.79180  0.66260  Biso   1.000  H
  H104     1.0000 0.74300  0.86200  0.65160  Biso   1.000  H
  C1       1.0000 0.58260  0.32190  0.80330  Biso   1.000  C
  C2       1.0000 0.53780  0.39780  0.85060  Biso   1.000  C
  C3       1.0000 0.23950  0.46200  0.59500  Biso   1.000  C
  C4       1.0000 0.17470  0.50270  0.53390  Biso   1.000  C
  C5       1.0000 0.68720  0.32820  0.52740  Biso   1.000  C
  C6       1.0000 0.75940  0.31580  0.43940  Biso   1.000  C
  C7       1.0000 0.52350  0.56320  0.64580  Biso   1.000  C
  C8       1.0000 0.55510  0.62470  0.67910  Biso   1.000  C
  C9       1.0000 0.20780  0.17810  0.69670  Biso   1.000  C
  C10      1.0000 0.28620  0.10220  0.64940  Biso   1.000  C
  C11      1.0000 0.79650  0.03800  0.90500  Biso   1.000  C
  C12      1.0000 0.71130  0.99730  0.96610  Biso   1.000  C
  C13      1.0000 0.04280  0.17180  0.97260  Biso   1.000  C
  C14      1.0000 0.01460  0.18420  0.06060  Biso   1.000  C
  C15      1.0000 0.23250  0.93680  0.85420  Biso   1.000  C
  C16      1.0000 0.35890  0.87530  0.82090  Biso   1.000  C
  C17      1.0000 0.38590  0.19670  0.82190  Biso   1.000  C
  C18      1.0000 0.38840  0.14940  0.89780  Biso   1.000  C
  C19      1.0000 0.83450  0.40500  0.96200  Biso   1.000  C
  C20      1.0000 0.70860  0.46610  0.00270  Biso   1.000  C
  C21      1.0000 0.21460  0.47260  0.82820  Biso   1.000  C
  C22      1.0000 0.19880  0.56060  0.81580  Biso   1.000  C
  C23      1.0000 0.16930  0.35420  0.06320  Biso   1.000  C
  C24      1.0000 0.23420  0.32090  0.12470  Biso   1.000  C
  C25      1.0000 0.90450  0.30330  0.67810  Biso   1.000  C
  C26      1.0000 0.93560  0.35060  0.60220  Biso   1.000  C
  C27      1.0000 0.70150  0.09500  0.53800  Biso   1.000  C
  C28      1.0000 0.67740  0.03390  0.49730  Biso   1.000  C
  C29      1.0000 0.01540  0.02740  0.67180  Biso   1.000  C
  C30      1.0000 0.07520  0.93940  0.68420  Biso   1.000  C
  C31      1.0000 0.08670  0.14580  0.43680  Biso   1.000  C
  C32      1.0000 0.17980  0.17910  0.37530  Biso   1.000  C
  C33      1.0000 0.41740  0.67810  0.19670  Biso   1.000  C
  C34      1.0000 0.46220  0.60220  0.14940  Biso   1.000  C
  C35      1.0000 0.76050  0.53800  0.40500  Biso   1.000  C
  C36      1.0000 0.82530  0.49730  0.46610  Biso   1.000  C
  C37      1.0000 0.31280  0.67180  0.47260  Biso   1.000  C
  C38      1.0000 0.24060  0.68420  0.56060  Biso   1.000  C
  C39      1.0000 0.47650  0.43680  0.35420  Biso   1.000  C
  C40      1.0000 0.44490  0.37530  0.32090  Biso   1.000  C
  C41      1.0000 0.79220  0.82190  0.30330  Biso   1.000  C
  C42      1.0000 0.71380  0.89780  0.35060  Biso   1.000  C
  C43      1.0000 0.20350  0.96200  0.09500  Biso   1.000  C
  C44      1.0000 0.28870  0.00270  0.03390  Biso   1.000  C
  C45      1.0000 0.95720  0.82820  0.02740  Biso   1.000  C
  C46      1.0000 0.98540  0.81580  0.93940  Biso   1.000  C
  C47      1.0000 0.76750  0.06320  0.14580  Biso   1.000  C
  C48      1.0000 0.64110  0.12470  0.17910  Biso   1.000  C
  C49      1.0000 0.61410  0.80330  0.17810  Biso   1.000  C
  C50      1.0000 0.61160  0.85060  0.10220  Biso   1.000  C
  C51      1.0000 0.16550  0.59500  0.03800  Biso   1.000  C
  C52      1.0000 0.29140  0.53390  0.99730  Biso   1.000  C
  C53      1.0000 0.78540  0.52740  0.17180  Biso   1.000  C
  C54      1.0000 0.80120  0.43940  0.18420  Biso   1.000  C
  C55      1.0000 0.83070  0.64580  0.93680  Biso   1.000  C
  C56      1.0000 0.76580  0.67910  0.87530  Biso   1.000  C
  C57      1.0000 0.09550  0.69670  0.32190  Biso   1.000  C
  C58      1.0000 0.06440  0.64940  0.39780  Biso   1.000  C
  C59      1.0000 0.29850  0.90500  0.46200  Biso   1.000  C
  C60      1.0000 0.32260  0.96610  0.50270  Biso   1.000  C
  C61      1.0000 0.98460  0.97260  0.32820  Biso   1.000  C
  C62      1.0000 0.92480  0.06060  0.31580  Biso   1.000  C
  C63      1.0000 0.91330  0.85420  0.56320  Biso   1.000  C
  C64      1.0000 0.82020  0.82090  0.62470  Biso   1.000  C
  O1       1.0000 0.42760  0.30960  0.64820  Biso   1.000  O
  O2       1.0000 0.56370  0.32610  0.73570  Biso   1.000  O
  O3       1.0000 0.18390  0.41850  0.64370  Biso   1.000  O
  O4       1.0000 0.34330  0.47480  0.59460  Biso   1.000  O
  O5       1.0000 0.71460  0.27100  0.57400  Biso   1.000  O
  O6       1.0000 0.60320  0.39420  0.55180  Biso   1.000  O
  O7       1.0000 0.50170  0.50640  0.69120  Biso   1.000  O
  O8       1.0000 0.52540  0.56900  0.57400  Biso   1.000  O
  O9       1.0000 0.63470  0.25790  0.83170  Biso   1.000  O
  O10      1.0000 0.88540  0.19040  0.85180  Biso   1.000  O
  O11      1.0000 0.12550  0.17390  0.76430  Biso   1.000  O
  O12      1.0000 0.74610  0.08150  0.85630  Biso   1.000  O
  O13      1.0000 0.91270  0.02520  0.90540  Biso   1.000  O
  O14      1.0000 0.05960  0.22900  0.92600  Biso   1.000  O
  O15      1.0000 0.04920  0.10580  0.94820  Biso   1.000  O
  O16      1.0000 0.19930  0.99360  0.80880  Biso   1.000  O
  O17      1.0000 0.16840  0.93100  0.92600  Biso   1.000  O
  O18      1.0000 0.22430  0.24210  0.66830  Biso   1.000  O
  O19      1.0000 0.07580  0.35180  0.80960  Biso   1.000  O
  O20      1.0000 0.29940  0.26430  0.82610  Biso   1.000  O
  O21      1.0000 0.82760  0.35630  0.91850  Biso   1.000  O
  O22      1.0000 0.93790  0.40540  0.97480  Biso   1.000  O
  O23      1.0000 0.28860  0.42600  0.77100  Biso   1.000  O
  O24      1.0000 0.15500  0.44820  0.89420  Biso   1.000  O
  O25      1.0000 0.19290  0.30880  0.00640  Biso   1.000  O
  O26      1.0000 0.09940  0.42600  0.06900  Biso   1.000  O
  O27      1.0000 0.46640  0.16830  0.75790  Biso   1.000  O
  O28      1.0000 0.73720  0.14820  0.69040  Biso   1.000  O
  O29      1.0000 0.88980  0.23570  0.67390  Biso   1.000  O
  O30      1.0000 0.60240  0.14370  0.58150  Biso   1.000  O
  O31      1.0000 0.81810  0.09460  0.52520  Biso   1.000  O
  O32      1.0000 0.98560  0.07400  0.72900  Biso   1.000  O
  O33      1.0000 0.99740  0.05180  0.60580  Biso   1.000  O
  O34      1.0000 0.00810  0.19120  0.49360  Biso   1.000  O
  O35      1.0000 0.09440  0.07400  0.43100  Biso   1.000  O
  O36      1.0000 0.89260  0.33170  0.74210  Biso   1.000  O
  O37      1.0000 0.57240  0.69040  0.35180  Biso   1.000  O
  O38      1.0000 0.43630  0.67390  0.26430  Biso   1.000  O
  O39      1.0000 0.81610  0.58150  0.35630  Biso   1.000  O
  O40      1.0000 0.65670  0.52520  0.40540  Biso   1.000  O
  O41      1.0000 0.28540  0.72900  0.42600  Biso   1.000  O
  O42      1.0000 0.39680  0.60580  0.44820  Biso   1.000  O
  O43      1.0000 0.49830  0.49360  0.30880  Biso   1.000  O
  O44      1.0000 0.47460  0.43100  0.42600  Biso   1.000  O
  O45      1.0000 0.36530  0.74210  0.16830  Biso   1.000  O
  O46      1.0000 0.11460  0.80960  0.14820  Biso   1.000  O
  O47      1.0000 0.87450  0.82610  0.23570  Biso   1.000  O
  O48      1.0000 0.25390  0.91850  0.14370  Biso   1.000  O
  O49      1.0000 0.08730  0.97480  0.09460  Biso   1.000  O
  O50      1.0000 0.94040  0.77100  0.07400  Biso   1.000  O
  O51      1.0000 0.95080  0.89420  0.05180  Biso   1.000  O
  O52      1.0000 0.80070  0.00640  0.19120  Biso   1.000  O
  O53      1.0000 0.83160  0.06900  0.07400  Biso   1.000  O
  O54      1.0000 0.77570  0.75790  0.33170  Biso   1.000  O
  O55      1.0000 0.92420  0.64820  0.19040  Biso   1.000  O
  O56      1.0000 0.70060  0.73570  0.17390  Biso   1.000  O
  O57      1.0000 0.17240  0.64370  0.08150  Biso   1.000  O
  O58      1.0000 0.06210  0.59460  0.02520  Biso   1.000  O
  O59      1.0000 0.71140  0.57400  0.22900  Biso   1.000  O
  O60      1.0000 0.84500  0.55180  0.10580  Biso   1.000  O
  O61      1.0000 0.80710  0.69120  0.99360  Biso   1.000  O
  O62      1.0000 0.90060  0.57400  0.93100  Biso   1.000  O
  O63      1.0000 0.53360  0.83170  0.24210  Biso   1.000  O
  O64      1.0000 0.26280  0.85180  0.30960  Biso   1.000  O
  O65      1.0000 0.11020  0.76430  0.32610  Biso   1.000  O
  O66      1.0000 0.39760  0.85630  0.41850  Biso   1.000  O
  O67      1.0000 0.18190  0.90540  0.47480  Biso   1.000  O
  O68      1.0000 0.01440  0.92600  0.27100  Biso   1.000  O
  O69      1.0000 0.00260  0.94820  0.39420  Biso   1.000  O
  O70      1.0000 0.99190  0.80880  0.50640  Biso   1.000  O
  O71      1.0000 0.90560  0.92600  0.56900  Biso   1.000  O
  O72      1.0000 0.10740  0.66830  0.25790  Biso   1.000  O
