data_image0
_cell_length_a       10.283
_cell_length_b       12.096
_cell_length_c       16.911
_cell_angle_alpha    76.07
_cell_angle_beta     72.38
_cell_angle_gamma    65.2

_symmetry_space_group_name_H-M    "P 1"
_symmetry_int_tables_number       1

loop_
  _symmetry_equiv_pos_as_xyz
  'x, y, z'

loop_
  _atom_site_label
  _atom_site_occupancy
  _atom_site_fract_x
  _atom_site_fract_y
  _atom_site_fract_z
  _atom_site_thermal_displace_type
  _atom_site_B_iso_or_equiv
  _atom_site_type_symbol
  Ga1      1.0000 0.27335  0.49810  0.76132  Biso   1.000  Ga
  Ga2      1.0000 0.53427  0.00087  0.74472  Biso   1.000  Ga
  Ga3      1.0000 0.85725  0.59352  0.89893  Biso   1.000  Ga
  Ga4      1.0000 0.34526  0.90775  0.60375  Biso   1.000  Ga
  Ga5      1.0000 0.85072  0.73977  0.69607  Biso   1.000  Ga
  Ga6      1.0000 0.28706  0.75935  0.80608  Biso   1.000  Ga
  P1       1.0000 0.11510  0.59935  0.93639  Biso   1.000  P
  P2       1.0000 0.00100  0.45861  0.73743  Biso   1.000  P
  P3       1.0000 0.19700  0.04184  0.76537  Biso   1.000  P
  P4       1.0000 0.65060  0.90897  0.56652  Biso   1.000  P
  P5       1.0000 0.57180  0.75124  0.84528  Biso   1.000  P
  P6       1.0000 0.17010  0.74404  0.65691  Biso   1.000  P
  P7       1.0000 0.56020  0.25554  0.73445  Biso   1.000  P
  O1       1.0000 0.66870  0.71270  0.75990  Biso   1.000  O
  O2       1.0000 0.14270  0.78490  0.74120  Biso   1.000  O
  O3       1.0000 0.15910  0.70920  0.90400  Biso   1.000  O
  O4       1.0000 0.52070  0.89190  0.84160  Biso   1.000  O
  O5       1.0000 0.25530  0.60290  0.66100  Biso   1.000  O
  O6       1.0000 0.54460  0.86800  0.54280  Biso   1.000  O
  O7       1.0000 0.26040  0.80780  0.58690  Biso   1.000  O
  O8       1.0000 0.94490  0.64300  0.96200  Biso   1.000  O
  O9       1.0000 0.77040  0.79580  0.59860  Biso   1.000  O
  O10      1.0000 0.19780  0.92750  0.82680  Biso   1.000  O
  O11      1.0000 0.32240  0.08100  0.76210  Biso   1.000  O
  O12      1.0000 0.72230  0.97460  0.48920  Biso   1.000  O
  O13      1.0000 0.95010  0.56970  0.67420  Biso   1.000  O
  O14      1.0000 0.15830  0.51570  0.86950  Biso   1.000  O
  O15      1.0000 0.43960  0.71250  0.86720  Biso   1.000  O
  O16      1.0000 0.17940  0.52840  0.01160  Biso   1.000  O
  O17      1.0000 0.02350  0.78070  0.63360  Biso   1.000  O
  O18      1.0000 0.55260  0.13070  0.77320  Biso   1.000  O
  O19      1.0000 0.20490  0.02580  0.67550  Biso   1.000  O
  O20      1.0000 0.42360  0.35110  0.78170  Biso   1.000  O
  O21      1.0000 0.16230  0.41750  0.73930  Biso   1.000  O
  O22      1.0000 0.55330  0.99630  0.63310  Biso   1.000  O
  O23      1.0000 0.98490  0.35300  0.70850  Biso   1.000  O
  H1       1.0000 0.01450  0.28910  0.73970  Biso   1.000  H
  O24      1.0000 0.90250  0.47570  0.82660  Biso   1.000  O
  F1       1.0000 0.75270  0.91480  0.72120  Biso   1.000  F
  F2       1.0000 0.38310  0.58390  0.78180  Biso   1.000  F
  O25      1.0000 0.91170  0.70030  0.80120  Biso   1.000  O
  H2       1.0000 0.93830  0.75700  0.81180  Biso   1.000  H
  O26      1.0000 0.41260  0.80010  0.70070  Biso   1.000  O
  H3       1.0000 0.51660  0.75700  0.69790  Biso   1.000  H
  O27      1.0000 0.65500  0.68750  0.91550  Biso   1.000  O
  O28      1.0000 0.69850  0.25780  0.74890  Biso   1.000  O
  O29      1.0000 0.05330  0.14630  0.79470  Biso   1.000  O
  O30      1.0000 0.56430  0.28050  0.64110  Biso   1.000  O
  Ga7      1.0000 0.72665  0.50190  0.23868  Biso   1.000  Ga
  Ga8      1.0000 0.46573  0.99913  0.25528  Biso   1.000  Ga
  Ga9      1.0000 0.14275  0.40648  0.10107  Biso   1.000  Ga
  Ga10     1.0000 0.65474  0.09225  0.39625  Biso   1.000  Ga
  Ga11     1.0000 0.14928  0.26023  0.30393  Biso   1.000  Ga
  Ga12     1.0000 0.71294  0.24065  0.19392  Biso   1.000  Ga
  P8       1.0000 0.88490  0.40065  0.06361  Biso   1.000  P
  P9       1.0000 0.99900  0.54139  0.26257  Biso   1.000  P
  P10      1.0000 0.80300  0.95816  0.23463  Biso   1.000  P
  P11      1.0000 0.34940  0.09103  0.43348  Biso   1.000  P
  P12      1.0000 0.42820  0.24876  0.15472  Biso   1.000  P
  P13      1.0000 0.82990  0.25596  0.34309  Biso   1.000  P
  P14      1.0000 0.43980  0.74446  0.26555  Biso   1.000  P
  O31      1.0000 0.33130  0.28730  0.24010  Biso   1.000  O
  O32      1.0000 0.85730  0.21510  0.25880  Biso   1.000  O
  O33      1.0000 0.84090  0.29080  0.09600  Biso   1.000  O
  O34      1.0000 0.47930  0.10810  0.15840  Biso   1.000  O
  O35      1.0000 0.74470  0.39710  0.33900  Biso   1.000  O
  O36      1.0000 0.45540  0.13200  0.45720  Biso   1.000  O
  O37      1.0000 0.73960  0.19220  0.41310  Biso   1.000  O
  O38      1.0000 0.05510  0.35700  0.03800  Biso   1.000  O
  O39      1.0000 0.22960  0.20420  0.40140  Biso   1.000  O
  O40      1.0000 0.80220  0.07250  0.17320  Biso   1.000  O
  O41      1.0000 0.67760  0.91900  0.23790  Biso   1.000  O
  O42      1.0000 0.27770  0.02540  0.51080  Biso   1.000  O
  O43      1.0000 0.04990  0.43030  0.32580  Biso   1.000  O
  O44      1.0000 0.84170  0.48430  0.13050  Biso   1.000  O
  O45      1.0000 0.56040  0.28750  0.13280  Biso   1.000  O
  O46      1.0000 0.82060  0.47160  0.98840  Biso   1.000  O
  O47      1.0000 0.97650  0.21930  0.36640  Biso   1.000  O
  O48      1.0000 0.44740  0.86930  0.22680  Biso   1.000  O
  O49      1.0000 0.79510  0.97420  0.32450  Biso   1.000  O
  O50      1.0000 0.57640  0.64890  0.21830  Biso   1.000  O
  O51      1.0000 0.83770  0.58250  0.26070  Biso   1.000  O
  O52      1.0000 0.44670  0.00370  0.36690  Biso   1.000  O
  O53      1.0000 0.01510  0.64700  0.29150  Biso   1.000  O
  H4       1.0000 0.98550  0.71090  0.26030  Biso   1.000  H
  O54      1.0000 0.09750  0.52430  0.17340  Biso   1.000  O
  F3       1.0000 0.24730  0.08520  0.27880  Biso   1.000  F
  F4       1.0000 0.61690  0.41610  0.21820  Biso   1.000  F
  O55      1.0000 0.08830  0.29970  0.19880  Biso   1.000  O
  H5       1.0000 0.06170  0.24300  0.18820  Biso   1.000  H
  O56      1.0000 0.58740  0.19990  0.29930  Biso   1.000  O
  H6       1.0000 0.48340  0.24300  0.30210  Biso   1.000  H
  O57      1.0000 0.34500  0.31250  0.08450  Biso   1.000  O
  O58      1.0000 0.30150  0.74220  0.25110  Biso   1.000  O
  O59      1.0000 0.94670  0.85370  0.20530  Biso   1.000  O
  O60      1.0000 0.43570  0.71950  0.35890  Biso   1.000  O
