data_image0
_cell_length_a       17.672
_cell_length_b       19.85
_cell_length_c       20.915
_cell_angle_alpha    72.383
_cell_angle_beta     70.947
_cell_angle_gamma    69.724

_symmetry_space_group_name_H-M    P 1
_symmetry_int_tables_number       1

loop_
  _symmetry_equiv_pos_as_xyz
  'x, y, z'

loop_
  _atom_site_label
  _atom_site_occupancy
  _atom_site_fract_x
  _atom_site_fract_y
  _atom_site_fract_z
  _atom_site_thermal_displace_type
  _atom_site_B_iso_or_equiv
  _atom_site_type_symbol
  Zn1      1.0000 0.04175  0.72488  0.54352  Biso   1.000  Zn
  Zn2      1.0000 0.19024  0.57878  0.54210  Biso   1.000  Zn
  Zn3      1.0000 0.19333  0.70618  0.41356  Biso   1.000  Zn
  Zn4      1.0000 0.22813  0.72442  0.54735  Biso   1.000  Zn
  Zn5      1.0000 0.78295  0.14636  0.98069  Biso   1.000  Zn
  Zn6      1.0000 0.63262  0.28783  0.98601  Biso   1.000  Zn
  Zn7      1.0000 0.60667  0.14084  0.97867  Biso   1.000  Zn
  Zn8      1.0000 0.63285  0.15823  0.12030  Biso   1.000  Zn
  H1       1.0000 0.30930  0.40650  0.43170  Biso   1.000  H
  H2       1.0000 0.38860  0.32190  0.36120  Biso   1.000  H
  H3       1.0000 0.46730  0.30020  0.24350  Biso   1.000  H
  H4       1.0000 0.46990  0.47470  0.07730  Biso   1.000  H
  H5       1.0000 0.38540  0.55320  0.14820  Biso   1.000  H
  H6       1.0000 0.31180  0.57610  0.26730  Biso   1.000  H
  H7       1.0000 0.76470  0.43610  0.85640  Biso   1.000  H
  H8       1.0000 0.78270  0.55490  0.77980  Biso   1.000  H
  H9       1.0000 0.84880  0.62050  0.68580  Biso   1.000  H
  H10      1.0000 0.05370  0.44670  0.68220  Biso   1.000  H
  H11      1.0000 0.04580  0.32580  0.76320  Biso   1.000  H
  H12      1.0000 0.96250  0.25700  0.85030  Biso   1.000  H
  H13      1.0000 0.48470  0.42370  0.85510  Biso   1.000  H
  H14      1.0000 0.43280  0.54380  0.77920  Biso   1.000  H
  H15      1.0000 0.35480  0.61230  0.70010  Biso   1.000  H
  H16      1.0000 0.28450  0.43200  0.70970  Biso   1.000  H
  H17      1.0000 0.33490  0.31600  0.78750  Biso   1.000  H
  H18      1.0000 0.41720  0.24810  0.86330  Biso   1.000  H
  H19      1.0000 0.51350  0.95040  0.08090  Biso   1.000  H
  H20      1.0000 0.45430  0.85950  0.15560  Biso   1.000  H
  H21      1.0000 0.36450  0.81710  0.27020  Biso   1.000  H
  H22      1.0000 0.29010  0.92990  0.42180  Biso   1.000  H
  H23      1.0000 0.37120  0.00550  0.35470  Biso   1.000  H
  H24      1.0000 0.45020  0.05840  0.23690  Biso   1.000  H
  H25      1.0000 0.96060  0.96220  0.07320  Biso   1.000  H
  H26      1.0000 0.03820  0.87220  0.14810  Biso   1.000  H
  H27      1.0000 0.05470  0.81290  0.26940  Biso   1.000  H
  H28      1.0000 0.85190  0.84800  0.42950  Biso   1.000  H
  H29      1.0000 0.77490  0.92780  0.35710  Biso   1.000  H
  H30      1.0000 0.75830  0.99030  0.23540  Biso   1.000  H
  H31      1.0000 0.70380  0.98990  0.84520  Biso   1.000  H
  H32      1.0000 0.76570  0.92440  0.75710  Biso   1.000  H
  H33      1.0000 0.90030  0.85780  0.68150  Biso   1.000  H
  H34      1.0000 0.11460  0.89760  0.66140  Biso   1.000  H
  H35      1.0000 0.04910  0.97880  0.73890  Biso   1.000  H
  H36      1.0000 0.91940  0.03780  0.81770  Biso   1.000  H
  H37      1.0000 0.68120  0.22630  0.19960  Biso   1.000  H
  H38      1.0000 0.85070  0.26240  0.23000  Biso   1.000  H
  H39      1.0000 0.76130  0.31750  0.22380  Biso   1.000  H
  H40      1.0000 0.76820  0.23670  0.27160  Biso   1.000  H
  H41      1.0000 0.89490  0.25030  0.08100  Biso   1.000  H
  H42      1.0000 0.92960  0.20010  0.14680  Biso   1.000  H
  H43      1.0000 0.88840  0.16750  0.10950  Biso   1.000  H
  H44      1.0000 0.25340  0.85690  0.55560  Biso   1.000  H
  H45      1.0000 0.46270  0.77520  0.56810  Biso   1.000  H
  H46      1.0000 0.46110  0.82740  0.61410  Biso   1.000  H
  H47      1.0000 0.41750  0.76200  0.64890  Biso   1.000  H
  H48      1.0000 0.29630  0.94270  0.62620  Biso   1.000  H
  H49      1.0000 0.37760  0.94710  0.56410  Biso   1.000  H
  H50      1.0000 0.29330  0.95050  0.54860  Biso   1.000  H
  C1       1.0000 0.25650  0.55510  0.40190  Biso   1.000  C
  C2       1.0000 0.30600  0.49910  0.35600  Biso   1.000  C
  C3       1.0000 0.32740  0.42380  0.38320  Biso   1.000  C
  C4       1.0000 0.37430  0.37310  0.34170  Biso   1.000  C
  C5       1.0000 0.40010  0.39980  0.26980  Biso   1.000  C
  C6       1.0000 0.45120  0.35160  0.22510  Biso   1.000  C
  C7       1.0000 0.47790  0.37820  0.15520  Biso   1.000  C
  C8       1.0000 0.45200  0.45640  0.12570  Biso   1.000  C
  C9       1.0000 0.40270  0.50210  0.16750  Biso   1.000  C
  C10      1.0000 0.37510  0.47650  0.24040  Biso   1.000  C
  C11      1.0000 0.32830  0.52470  0.28580  Biso   1.000  C
  C12      1.0000 0.53450  0.32600  0.10820  Biso   1.000  C
  C13      1.0000 0.01510  0.78270  0.40360  Biso   1.000  C
  C14      1.0000 0.01330  0.58410  0.61910  Biso   1.000  C
  C15      1.0000 0.25700  0.57420  0.64320  Biso   1.000  C
  C16      1.0000 0.27230  0.80740  0.39670  Biso   1.000  C
  C17      1.0000 0.05830  0.81490  0.61850  Biso   1.000  C
  C18      1.0000 0.80040  0.29460  0.91160  Biso   1.000  C
  C19      1.0000 0.85470  0.33910  0.85930  Biso   1.000  C
  C20      1.0000 0.82080  0.41400  0.83510  Biso   1.000  C
  C21      1.0000 0.86530  0.45820  0.78130  Biso   1.000  C
  C22      1.0000 0.83700  0.53090  0.75660  Biso   1.000  C
  C23      1.0000 0.87640  0.57140  0.70420  Biso   1.000  C
  C24      1.0000 0.96010  0.54060  0.67590  Biso   1.000  C
  C25      1.0000 0.99640  0.46770  0.70130  Biso   1.000  C
  C26      1.0000 0.95110  0.42400  0.75410  Biso   1.000  C
  C27      1.0000 0.98840  0.34800  0.78070  Biso   1.000  C
  C28      1.0000 0.93860  0.30750  0.83260  Biso   1.000  C
  C29      1.0000 0.52020  0.28440  0.90900  Biso   1.000  C
  C30      1.0000 0.46390  0.32880  0.86350  Biso   1.000  C
  C31      1.0000 0.45650  0.40170  0.83900  Biso   1.000  C
  C32      1.0000 0.41030  0.44580  0.79210  Biso   1.000  C
  C33      1.0000 0.40390  0.52080  0.76490  Biso   1.000  C
  C34      1.0000 0.35720  0.56170  0.71830  Biso   1.000  C
  C35      1.0000 0.31130  0.52780  0.69680  Biso   1.000  C
  C36      1.0000 0.31370  0.45460  0.72410  Biso   1.000  C
  C37      1.0000 0.36100  0.41350  0.77420  Biso   1.000  C
  C38      1.0000 0.36570  0.33840  0.80040  Biso   1.000  C
  C39      1.0000 0.41530  0.29850  0.84450  Biso   1.000  C
  C40      1.0000 0.53290  0.06800  0.10600  Biso   1.000  C
  C41      1.0000 0.48920  0.01060  0.15430  Biso   1.000  C
  C42      1.0000 0.48850  0.95260  0.12820  Biso   1.000  C
  C43      1.0000 0.45180  0.90040  0.17160  Biso   1.000  C
  C44      1.0000 0.40870  0.90650  0.24230  Biso   1.000  C
  C45      1.0000 0.36440  0.85730  0.28590  Biso   1.000  C
  C46      1.0000 0.31990  0.86630  0.35270  Biso   1.000  C
  C47      1.0000 0.32130  0.92330  0.37650  Biso   1.000  C
  C48      1.0000 0.36660  0.96970  0.33570  Biso   1.000  C
  C49      1.0000 0.40670  0.96730  0.26750  Biso   1.000  C
  C50      1.0000 0.44910  0.01840  0.22160  Biso   1.000  C
  C51      1.0000 0.79650  0.04240  0.10130  Biso   1.000  C
  C52      1.0000 0.85170  0.98300  0.14800  Biso   1.000  C
  C53      1.0000 0.93560  0.94990  0.12130  Biso   1.000  C
  C54      1.0000 0.98250  0.89800  0.16650  Biso   1.000  C
  C55      1.0000 0.94810  0.88360  0.23920  Biso   1.000  C
  C56      1.0000 0.99770  0.83660  0.28640  Biso   1.000  C
  C57      1.0000 0.96280  0.82600  0.35570  Biso   1.000  C
  C58      1.0000 0.87670  0.85870  0.38120  Biso   1.000  C
  C59      1.0000 0.83120  0.90330  0.33890  Biso   1.000  C
  C60      1.0000 0.86550  0.91560  0.26490  Biso   1.000  C
  C61      1.0000 0.81550  0.96740  0.21790  Biso   1.000  C
  C62      1.0000 0.76430  0.07280  0.88470  Biso   1.000  C
  C63      1.0000 0.80550  0.02450  0.83490  Biso   1.000  C
  C64      1.0000 0.76030  0.98630  0.82070  Biso   1.000  C
  C65      1.0000 0.79800  0.94390  0.77150  Biso   1.000  C
  C66      1.0000 0.88460  0.92960  0.74250  Biso   1.000  C
  C67      1.0000 0.92990  0.88130  0.69450  Biso   1.000  C
  C68      1.0000 0.01430  0.86850  0.66710  Biso   1.000  C
  C69      1.0000 0.05680  0.90510  0.68270  Biso   1.000  C
  C70      1.0000 0.01800  0.95390  0.72950  Biso   1.000  C
  C71      1.0000 0.93090  0.96420  0.76170  Biso   1.000  C
  C72      1.0000 0.88940  0.01300  0.80680  Biso   1.000  C
  C73      1.0000 0.72980  0.22250  0.16250  Biso   1.000  C
  C74      1.0000 0.79450  0.26600  0.22870  Biso   1.000  C
  C75      1.0000 0.88610  0.21170  0.12260  Biso   1.000  C
  C76      1.0000 0.29980  0.82210  0.57110  Biso   1.000  C
  C77      1.0000 0.42970  0.79930  0.60690  Biso   1.000  C
  C78      1.0000 0.32810  0.92890  0.58180  Biso   1.000  C
  N1       1.0000 0.79940  0.23890  0.17120  Biso   1.000  N
  N2       1.0000 0.35400  0.84740  0.59180  Biso   1.000  N
  O1       1.0000 0.24090  0.52520  0.46750  Biso   1.000  O
  O2       1.0000 0.24090  0.62020  0.37380  Biso   1.000  O
  O3       1.0000 0.54290  0.25890  0.13450  Biso   1.000  O
  O4       1.0000 0.56930  0.35270  0.04810  Biso   1.000  O
  O5       1.0000 0.98460  0.77390  0.46760  Biso   1.000  O
  O6       1.0000 0.09500  0.75690  0.37680  Biso   1.000  O
  O7       1.0000 0.98040  0.65370  0.60380  Biso   1.000  O
  O8       1.0000 0.08620  0.54920  0.58950  Biso   1.000  O
  O9       1.0000 0.25250  0.53510  0.60920  Biso   1.000  O
  O10      1.0000 0.23990  0.64170  0.63530  Biso   1.000  O
  O11      1.0000 0.24260  0.81180  0.45960  Biso   1.000  O
  O12      1.0000 0.26640  0.76690  0.36800  Biso   1.000  O
  O13      1.0000 0.00880  0.79710  0.59860  Biso   1.000  O
  O14      1.0000 0.13460  0.79640  0.60350  Biso   1.000  O
  O15      1.0000 0.72750  0.32480  0.93080  Biso   1.000  O
  O16      1.0000 0.83840  0.22450  0.93160  Biso   1.000  O
  O17      1.0000 0.55970  0.31600  0.92210  Biso   1.000  O
  O18      1.0000 0.52580  0.21530  0.93030  Biso   1.000  O
  O19      1.0000 0.53550  0.11760  0.12880  Biso   1.000  O
  O20      1.0000 0.55450  0.06760  0.04150  Biso   1.000  O
  O21      1.0000 0.72270  0.05650  0.12380  Biso   1.000  O
  O22      1.0000 0.84130  0.06950  0.04280  Biso   1.000  O
  O23      1.0000 0.80760  0.09630  0.90510  Biso   1.000  O
  O24      1.0000 0.68380  0.08530  0.90830  Biso   1.000  O
  O25      1.0000 0.60480  0.13170  0.22950  Biso   1.000  O
  O26      1.0000 0.72690  0.20490  0.11480  Biso   1.000  O
  O27      1.0000 0.31210  0.75750  0.57310  Biso   1.000  O
  O28      1.0000 0.16120  0.68470  0.51330  Biso   1.000  O
  O29      1.0000 0.66380  0.18270  0.01600  Biso   1.000  O
  Zn9      1.0000 0.95825  0.27512  0.45648  Biso   1.000  Zn
  Zn10     1.0000 0.80976  0.42122  0.45790  Biso   1.000  Zn
  Zn11     1.0000 0.80667  0.29382  0.58644  Biso   1.000  Zn
  Zn12     1.0000 0.77187  0.27558  0.45265  Biso   1.000  Zn
  Zn13     1.0000 0.21705  0.85364  0.01931  Biso   1.000  Zn
  Zn14     1.0000 0.36738  0.71217  0.01399  Biso   1.000  Zn
  Zn15     1.0000 0.39333  0.85916  0.02133  Biso   1.000  Zn
  Zn16     1.0000 0.36715  0.84177  0.87970  Biso   1.000  Zn
  H51      1.0000 0.69070  0.59350  0.56830  Biso   1.000  H
  H52      1.0000 0.61140  0.67810  0.63880  Biso   1.000  H
  H53      1.0000 0.53270  0.69980  0.75650  Biso   1.000  H
  H54      1.0000 0.53010  0.52530  0.92270  Biso   1.000  H
  H55      1.0000 0.61460  0.44680  0.85180  Biso   1.000  H
  H56      1.0000 0.68820  0.42390  0.73270  Biso   1.000  H
  H57      1.0000 0.23530  0.56390  0.14360  Biso   1.000  H
  H58      1.0000 0.21730  0.44510  0.22020  Biso   1.000  H
  H59      1.0000 0.15120  0.37950  0.31420  Biso   1.000  H
  H60      1.0000 0.94630  0.55330  0.31780  Biso   1.000  H
  H61      1.0000 0.95420  0.67420  0.23680  Biso   1.000  H
  H62      1.0000 0.03750  0.74300  0.14970  Biso   1.000  H
  H63      1.0000 0.51530  0.57630  0.14490  Biso   1.000  H
  H64      1.0000 0.56720  0.45620  0.22080  Biso   1.000  H
  H65      1.0000 0.64520  0.38770  0.29990  Biso   1.000  H
  H66      1.0000 0.71550  0.56800  0.29030  Biso   1.000  H
  H67      1.0000 0.66510  0.68400  0.21250  Biso   1.000  H
  H68      1.0000 0.58280  0.75190  0.13670  Biso   1.000  H
  H69      1.0000 0.48650  0.04960  0.91910  Biso   1.000  H
  H70      1.0000 0.54570  0.14050  0.84440  Biso   1.000  H
  H71      1.0000 0.63550  0.18290  0.72980  Biso   1.000  H
  H72      1.0000 0.70990  0.07010  0.57820  Biso   1.000  H
  H73      1.0000 0.62880  0.99450  0.64530  Biso   1.000  H
  H74      1.0000 0.54980  0.94160  0.76310  Biso   1.000  H
  H75      1.0000 0.03940  0.03780  0.92680  Biso   1.000  H
  H76      1.0000 0.96180  0.12780  0.85190  Biso   1.000  H
  H77      1.0000 0.94530  0.18710  0.73060  Biso   1.000  H
  H78      1.0000 0.14810  0.15200  0.57050  Biso   1.000  H
  H79      1.0000 0.22510  0.07220  0.64290  Biso   1.000  H
  H80      1.0000 0.24170  0.00970  0.76460  Biso   1.000  H
  H81      1.0000 0.29620  0.01010  0.15480  Biso   1.000  H
  H82      1.0000 0.23430  0.07560  0.24290  Biso   1.000  H
  H83      1.0000 0.09970  0.14220  0.31850  Biso   1.000  H
  H84      1.0000 0.88540  0.10240  0.33860  Biso   1.000  H
  H85      1.0000 0.95090  0.02120  0.26110  Biso   1.000  H
  H86      1.0000 0.08060  0.96220  0.18230  Biso   1.000  H
  H87      1.0000 0.31880  0.77370  0.80040  Biso   1.000  H
  H88      1.0000 0.14930  0.73760  0.77000  Biso   1.000  H
  H89      1.0000 0.23870  0.68250  0.77620  Biso   1.000  H
  H90      1.0000 0.23180  0.76330  0.72840  Biso   1.000  H
  H91      1.0000 0.10510  0.74970  0.91900  Biso   1.000  H
  H92      1.0000 0.07040  0.79990  0.85320  Biso   1.000  H
  H93      1.0000 0.11160  0.83250  0.89050  Biso   1.000  H
  H94      1.0000 0.74660  0.14310  0.44440  Biso   1.000  H
  H95      1.0000 0.53730  0.22480  0.43190  Biso   1.000  H
  H96      1.0000 0.53890  0.17260  0.38590  Biso   1.000  H
  H97      1.0000 0.58250  0.23800  0.35110  Biso   1.000  H
  H98      1.0000 0.70370  0.05730  0.37380  Biso   1.000  H
  H99      1.0000 0.62240  0.05290  0.43590  Biso   1.000  H
  H100     1.0000 0.70670  0.04950  0.45140  Biso   1.000  H
  C79      1.0000 0.74350  0.44490  0.59810  Biso   1.000  C
  C80      1.0000 0.69400  0.50090  0.64400  Biso   1.000  C
  C81      1.0000 0.67260  0.57620  0.61680  Biso   1.000  C
  C82      1.0000 0.62570  0.62690  0.65830  Biso   1.000  C
  C83      1.0000 0.59990  0.60020  0.73020  Biso   1.000  C
  C84      1.0000 0.54880  0.64840  0.77490  Biso   1.000  C
  C85      1.0000 0.52210  0.62180  0.84480  Biso   1.000  C
  C86      1.0000 0.54800  0.54360  0.87430  Biso   1.000  C
  C87      1.0000 0.59730  0.49790  0.83250  Biso   1.000  C
  C88      1.0000 0.62490  0.52350  0.75960  Biso   1.000  C
  C89      1.0000 0.67170  0.47530  0.71420  Biso   1.000  C
  C90      1.0000 0.46550  0.67400  0.89180  Biso   1.000  C
  C91      1.0000 0.98490  0.21730  0.59640  Biso   1.000  C
  C92      1.0000 0.98670  0.41590  0.38090  Biso   1.000  C
  C93      1.0000 0.74300  0.42580  0.35680  Biso   1.000  C
  C94      1.0000 0.72770  0.19260  0.60330  Biso   1.000  C
  C95      1.0000 0.94170  0.18510  0.38150  Biso   1.000  C
  C96      1.0000 0.19960  0.70540  0.08840  Biso   1.000  C
  C97      1.0000 0.14530  0.66090  0.14070  Biso   1.000  C
  C98      1.0000 0.17920  0.58600  0.16490  Biso   1.000  C
  C99      1.0000 0.13470  0.54180  0.21870  Biso   1.000  C
  C100     1.0000 0.16300  0.46910  0.24340  Biso   1.000  C
  C101     1.0000 0.12360  0.42860  0.29580  Biso   1.000  C
  C102     1.0000 0.03990  0.45940  0.32410  Biso   1.000  C
  C103     1.0000 0.00360  0.53230  0.29870  Biso   1.000  C
  C104     1.0000 0.04890  0.57600  0.24590  Biso   1.000  C
  C105     1.0000 0.01160  0.65200  0.21930  Biso   1.000  C
  C106     1.0000 0.06140  0.69250  0.16740  Biso   1.000  C
  C107     1.0000 0.47980  0.71560  0.09100  Biso   1.000  C
  C108     1.0000 0.53610  0.67120  0.13650  Biso   1.000  C
  C109     1.0000 0.54350  0.59830  0.16100  Biso   1.000  C
  C110     1.0000 0.58970  0.55420  0.20790  Biso   1.000  C
  C111     1.0000 0.59610  0.47920  0.23510  Biso   1.000  C
  C112     1.0000 0.64280  0.43830  0.28170  Biso   1.000  C
  C113     1.0000 0.68870  0.47220  0.30320  Biso   1.000  C
  C114     1.0000 0.68630  0.54540  0.27590  Biso   1.000  C
  C115     1.0000 0.63900  0.58650  0.22580  Biso   1.000  C
  C116     1.0000 0.63430  0.66160  0.19960  Biso   1.000  C
  C117     1.0000 0.58470  0.70150  0.15550  Biso   1.000  C
  C118     1.0000 0.46710  0.93200  0.89400  Biso   1.000  C
  C119     1.0000 0.51080  0.98940  0.84570  Biso   1.000  C
  C120     1.0000 0.51150  0.04740  0.87180  Biso   1.000  C
  C121     1.0000 0.54820  0.09960  0.82840  Biso   1.000  C
  C122     1.0000 0.59130  0.09350  0.75770  Biso   1.000  C
  C123     1.0000 0.63560  0.14270  0.71410  Biso   1.000  C
  C124     1.0000 0.68010  0.13370  0.64730  Biso   1.000  C
  C125     1.0000 0.67870  0.07670  0.62350  Biso   1.000  C
  C126     1.0000 0.63340  0.03030  0.66430  Biso   1.000  C
  C127     1.0000 0.59330  0.03270  0.73250  Biso   1.000  C
  C128     1.0000 0.55090  0.98160  0.77840  Biso   1.000  C
  C129     1.0000 0.20350  0.95760  0.89870  Biso   1.000  C
  C130     1.0000 0.14830  0.01700  0.85200  Biso   1.000  C
  C131     1.0000 0.06440  0.05010  0.87870  Biso   1.000  C
  C132     1.0000 0.01750  0.10200  0.83350  Biso   1.000  C
  C133     1.0000 0.05190  0.11640  0.76080  Biso   1.000  C
  C134     1.0000 0.00230  0.16340  0.71360  Biso   1.000  C
  C135     1.0000 0.03720  0.17400  0.64430  Biso   1.000  C
  C136     1.0000 0.12330  0.14130  0.61880  Biso   1.000  C
  C137     1.0000 0.16880  0.09670  0.66110  Biso   1.000  C
  C138     1.0000 0.13450  0.08440  0.73510  Biso   1.000  C
  C139     1.0000 0.18450  0.03260  0.78210  Biso   1.000  C
  C140     1.0000 0.23570  0.92720  0.11530  Biso   1.000  C
  C141     1.0000 0.19450  0.97550  0.16510  Biso   1.000  C
  C142     1.0000 0.23970  0.01370  0.17930  Biso   1.000  C
  C143     1.0000 0.20200  0.05610  0.22850  Biso   1.000  C
  C144     1.0000 0.11540  0.07040  0.25750  Biso   1.000  C
  C145     1.0000 0.07010  0.11870  0.30550  Biso   1.000  C
  C146     1.0000 0.98570  0.13150  0.33290  Biso   1.000  C
  C147     1.0000 0.94320  0.09490  0.31730  Biso   1.000  C
  C148     1.0000 0.98200  0.04610  0.27050  Biso   1.000  C
  C149     1.0000 0.06910  0.03580  0.23830  Biso   1.000  C
  C150     1.0000 0.11060  0.98700  0.19320  Biso   1.000  C
  C151     1.0000 0.27020  0.77750  0.83750  Biso   1.000  C
  C152     1.0000 0.20550  0.73400  0.77130  Biso   1.000  C
  C153     1.0000 0.11390  0.78830  0.87740  Biso   1.000  C
  C154     1.0000 0.70020  0.17790  0.42890  Biso   1.000  C
  C155     1.0000 0.57030  0.20070  0.39310  Biso   1.000  C
  C156     1.0000 0.67190  0.07110  0.41820  Biso   1.000  C
  N3       1.0000 0.20060  0.76110  0.82880  Biso   1.000  N
  N4       1.0000 0.64600  0.15260  0.40820  Biso   1.000  N
  O30      1.0000 0.75910  0.47480  0.53250  Biso   1.000  O
  O31      1.0000 0.75910  0.37980  0.62620  Biso   1.000  O
  O32      1.0000 0.45710  0.74110  0.86550  Biso   1.000  O
  O33      1.0000 0.43070  0.64730  0.95190  Biso   1.000  O
  O34      1.0000 0.01540  0.22610  0.53240  Biso   1.000  O
  O35      1.0000 0.90500  0.24310  0.62320  Biso   1.000  O
  O36      1.0000 0.01960  0.34630  0.39620  Biso   1.000  O
  O37      1.0000 0.91380  0.45080  0.41050  Biso   1.000  O
  O38      1.0000 0.74750  0.46490  0.39080  Biso   1.000  O
  O39      1.0000 0.76010  0.35830  0.36470  Biso   1.000  O
  O40      1.0000 0.75740  0.18820  0.54040  Biso   1.000  O
  O41      1.0000 0.73360  0.23310  0.63200  Biso   1.000  O
  O42      1.0000 0.99120  0.20290  0.40140  Biso   1.000  O
  O43      1.0000 0.86540  0.20360  0.39650  Biso   1.000  O
  O44      1.0000 0.27250  0.67520  0.06920  Biso   1.000  O
  O45      1.0000 0.16160  0.77550  0.06840  Biso   1.000  O
  O46      1.0000 0.44030  0.68400  0.07790  Biso   1.000  O
  O47      1.0000 0.47420  0.78470  0.06970  Biso   1.000  O
  O48      1.0000 0.46450  0.88240  0.87120  Biso   1.000  O
  O49      1.0000 0.44550  0.93240  0.95850  Biso   1.000  O
  O50      1.0000 0.27730  0.94350  0.87620  Biso   1.000  O
  O51      1.0000 0.15870  0.93050  0.95720  Biso   1.000  O
  O52      1.0000 0.19240  0.90370  0.09490  Biso   1.000  O
  O53      1.0000 0.31620  0.91470  0.09170  Biso   1.000  O
  O54      1.0000 0.39520  0.86830  0.77050  Biso   1.000  O
  O55      1.0000 0.27310  0.79510  0.88520  Biso   1.000  O
  O56      1.0000 0.68790  0.24250  0.42690  Biso   1.000  O
  O57      1.0000 0.83880  0.31530  0.48670  Biso   1.000  O
  O58      1.0000 0.33620  0.81730  0.98400  Biso   1.000  O
