data_image0
_cell_length_a       9.8636
_cell_length_b       9.8636
_cell_length_c       30.3529
_cell_angle_alpha    90
_cell_angle_beta     90
_cell_angle_gamma    90

_symmetry_space_group_name_H-M    "P 1"
_symmetry_int_tables_number       1

loop_
  _symmetry_equiv_pos_as_xyz
  'x, y, z'

loop_
  _atom_site_label
  _atom_site_occupancy
  _atom_site_fract_x
  _atom_site_fract_y
  _atom_site_fract_z
  _atom_site_thermal_displace_type
  _atom_site_B_iso_or_equiv
  _atom_site_type_symbol
  Fe1      1.0000 0.22970  0.42060  0.09080  Biso   1.000  Fe
  Fe2      1.0000 0.40720  0.95010  0.98870  Biso   1.000  Fe
  P1       1.0000 0.44440  0.22190  0.14020  Biso   1.000  P
  P2       1.0000 0.97020  0.67580  0.94430  Biso   1.000  P
  P3       1.0000 0.37820  0.65520  0.03060  Biso   1.000  P
  O1       1.0000 0.29420  0.31440  0.03980  Biso   1.000  O
  O2       1.0000 0.31080  0.59350  0.07070  Biso   1.000  O
  O3       1.0000 0.39230  0.35740  0.12280  Biso   1.000  O
  O4       1.0000 0.97790  0.67140  0.89450  Biso   1.000  O
  O5       1.0000 0.59970  0.22840  0.14200  Biso   1.000  O
  F1       1.0000 0.07310  0.49290  0.05350  Biso   1.000  F
  O6       1.0000 0.33100  0.80250  0.02400  Biso   1.000  O
  O7       1.0000 0.00080  0.53340  0.96270  Biso   1.000  O
  O8       1.0000 0.08250  0.26360  0.99530  Biso   1.000  O
  O9       1.0000 0.37780  0.19260  0.18540  Biso   1.000  O
  F2       1.0000 0.81700  0.56500  0.03230  Biso   1.000  F
  O10      1.0000 0.83520  0.73630  0.95930  Biso   1.000  O
  O11      1.0000 0.53180  0.64460  0.03690  Biso   1.000  O
  O12      1.0000 0.39540  0.10170  0.11020  Biso   1.000  O
  O13      1.0000 0.07600  0.77890  0.96410  Biso   1.000  O
  O14      1.0000 0.33450  0.57980  0.98680  Biso   1.000  O
  Fe3      1.0000 0.77030  0.57940  0.59080  Biso   1.000  Fe
  Fe4      1.0000 0.59280  0.04990  0.48870  Biso   1.000  Fe
  P4       1.0000 0.55560  0.77810  0.64020  Biso   1.000  P
  P5       1.0000 0.02980  0.32420  0.44430  Biso   1.000  P
  P6       1.0000 0.62180  0.34480  0.53060  Biso   1.000  P
  O15      1.0000 0.70580  0.68560  0.53980  Biso   1.000  O
  O16      1.0000 0.68920  0.40650  0.57070  Biso   1.000  O
  O17      1.0000 0.60770  0.64260  0.62280  Biso   1.000  O
  O18      1.0000 0.02210  0.32860  0.39450  Biso   1.000  O
  O19      1.0000 0.40030  0.77160  0.64200  Biso   1.000  O
  F3       1.0000 0.92690  0.50710  0.55350  Biso   1.000  F
  O20      1.0000 0.66900  0.19750  0.52400  Biso   1.000  O
  O21      1.0000 0.99920  0.46660  0.46270  Biso   1.000  O
  O22      1.0000 0.91750  0.73640  0.49530  Biso   1.000  O
  O23      1.0000 0.62220  0.80740  0.68540  Biso   1.000  O
  F4       1.0000 0.18300  0.43500  0.53230  Biso   1.000  F
  O24      1.0000 0.16480  0.26370  0.45930  Biso   1.000  O
  O25      1.0000 0.46820  0.35540  0.53690  Biso   1.000  O
  O26      1.0000 0.60460  0.89830  0.61020  Biso   1.000  O
  O27      1.0000 0.92400  0.22110  0.46410  Biso   1.000  O
  O28      1.0000 0.66550  0.42020  0.48680  Biso   1.000  O
  Fe5      1.0000 0.07940  0.72970  0.84080  Biso   1.000  Fe
  Fe6      1.0000 0.54990  0.90720  0.73870  Biso   1.000  Fe
  P7       1.0000 0.27810  0.94440  0.89020  Biso   1.000  P
  P8       1.0000 0.82420  0.47020  0.69430  Biso   1.000  P
  P9       1.0000 0.84480  0.87820  0.78060  Biso   1.000  P
  O29      1.0000 0.18560  0.79420  0.78980  Biso   1.000  O
  O30      1.0000 0.90650  0.81080  0.82070  Biso   1.000  O
  O31      1.0000 0.14260  0.89230  0.87280  Biso   1.000  O
  O32      1.0000 0.82860  0.47790  0.64450  Biso   1.000  O
  O33      1.0000 0.27160  0.09970  0.89200  Biso   1.000  O
  F5       1.0000 0.00710  0.57310  0.80350  Biso   1.000  F
  O34      1.0000 0.69750  0.83100  0.77400  Biso   1.000  O
  O35      1.0000 0.96660  0.50080  0.71270  Biso   1.000  O
  O36      1.0000 0.23640  0.58250  0.74530  Biso   1.000  O
  O37      1.0000 0.30740  0.87780  0.93540  Biso   1.000  O
  F6       1.0000 0.93500  0.31700  0.78230  Biso   1.000  F
  O38      1.0000 0.76370  0.33520  0.70930  Biso   1.000  O
  O39      1.0000 0.85540  0.03180  0.78690  Biso   1.000  O
  O40      1.0000 0.39830  0.89540  0.86020  Biso   1.000  O
  O41      1.0000 0.72110  0.57600  0.71410  Biso   1.000  O
  O42      1.0000 0.92020  0.83450  0.73680  Biso   1.000  O
  Fe7      1.0000 0.92060  0.27030  0.34080  Biso   1.000  Fe
  Fe8      1.0000 0.45010  0.09280  0.23870  Biso   1.000  Fe
  P10      1.0000 0.72190  0.05560  0.39020  Biso   1.000  P
  P11      1.0000 0.17580  0.52980  0.19430  Biso   1.000  P
  P12      1.0000 0.15520  0.12180  0.28060  Biso   1.000  P
  O43      1.0000 0.81440  0.20580  0.28980  Biso   1.000  O
  O44      1.0000 0.09350  0.18920  0.32070  Biso   1.000  O
  O45      1.0000 0.85740  0.10770  0.37280  Biso   1.000  O
  O46      1.0000 0.17140  0.52210  0.14450  Biso   1.000  O
  O47      1.0000 0.72840  0.90030  0.39200  Biso   1.000  O
  F7       1.0000 0.99290  0.42690  0.30350  Biso   1.000  F
  O48      1.0000 0.30250  0.16900  0.27400  Biso   1.000  O
  O49      1.0000 0.03340  0.49920  0.21270  Biso   1.000  O
  O50      1.0000 0.76360  0.41750  0.24530  Biso   1.000  O
  O51      1.0000 0.69260  0.12220  0.43540  Biso   1.000  O
  F8       1.0000 0.06500  0.68300  0.28230  Biso   1.000  F
  O52      1.0000 0.23630  0.66480  0.20930  Biso   1.000  O
  O53      1.0000 0.14460  0.96820  0.28690  Biso   1.000  O
  O54      1.0000 0.60170  0.10460  0.36020  Biso   1.000  O
  O55      1.0000 0.27890  0.42400  0.21410  Biso   1.000  O
  O56      1.0000 0.07980  0.16550  0.23680  Biso   1.000  O
  Fe9      1.0000 0.27030  0.92060  0.65920  Biso   1.000  Fe
  Fe10     1.0000 0.09280  0.45010  0.76130  Biso   1.000  Fe
  P13      1.0000 0.05560  0.72190  0.60980  Biso   1.000  P
  P14      1.0000 0.52980  0.17580  0.80570  Biso   1.000  P
  P15      1.0000 0.12180  0.15520  0.71940  Biso   1.000  P
  O57      1.0000 0.20580  0.81440  0.71020  Biso   1.000  O
  O58      1.0000 0.18920  0.09350  0.67930  Biso   1.000  O
  O59      1.0000 0.10770  0.85740  0.62720  Biso   1.000  O
  O60      1.0000 0.52210  0.17140  0.85550  Biso   1.000  O
  O61      1.0000 0.90030  0.72840  0.60800  Biso   1.000  O
  F9       1.0000 0.42690  0.99290  0.69650  Biso   1.000  F
  O62      1.0000 0.16900  0.30250  0.72600  Biso   1.000  O
  O63      1.0000 0.49920  0.03340  0.78730  Biso   1.000  O
  O64      1.0000 0.41750  0.76360  0.75470  Biso   1.000  O
  O65      1.0000 0.12220  0.69260  0.56460  Biso   1.000  O
  F10      1.0000 0.68300  0.06500  0.71770  Biso   1.000  F
  O66      1.0000 0.66480  0.23630  0.79070  Biso   1.000  O
  O67      1.0000 0.96820  0.14460  0.71310  Biso   1.000  O
  O68      1.0000 0.10460  0.60170  0.63980  Biso   1.000  O
  O69      1.0000 0.42400  0.27890  0.78590  Biso   1.000  O
  O70      1.0000 0.16550  0.07980  0.76320  Biso   1.000  O
  Fe11     1.0000 0.72970  0.07940  0.15920  Biso   1.000  Fe
  Fe12     1.0000 0.90720  0.54990  0.26130  Biso   1.000  Fe
  P16      1.0000 0.94440  0.27810  0.10980  Biso   1.000  P
  P17      1.0000 0.47020  0.82420  0.30570  Biso   1.000  P
  P18      1.0000 0.87820  0.84480  0.21940  Biso   1.000  P
  O71      1.0000 0.79420  0.18560  0.21020  Biso   1.000  O
  O72      1.0000 0.81080  0.90650  0.17930  Biso   1.000  O
  O73      1.0000 0.89230  0.14260  0.12720  Biso   1.000  O
  O74      1.0000 0.47790  0.82860  0.35550  Biso   1.000  O
  O75      1.0000 0.09970  0.27160  0.10800  Biso   1.000  O
  F11      1.0000 0.57310  0.00710  0.19650  Biso   1.000  F
  O76      1.0000 0.83100  0.69750  0.22600  Biso   1.000  O
  O77      1.0000 0.50080  0.96660  0.28730  Biso   1.000  O
  O78      1.0000 0.58250  0.23640  0.25470  Biso   1.000  O
  O79      1.0000 0.87780  0.30740  0.06460  Biso   1.000  O
  F12      1.0000 0.31700  0.93500  0.21770  Biso   1.000  F
  O80      1.0000 0.33520  0.76370  0.29070  Biso   1.000  O
  O81      1.0000 0.03180  0.85540  0.21310  Biso   1.000  O
  O82      1.0000 0.89540  0.39830  0.13980  Biso   1.000  O
  O83      1.0000 0.57600  0.72110  0.28590  Biso   1.000  O
  O84      1.0000 0.83450  0.92020  0.26320  Biso   1.000  O
  Fe13     1.0000 0.42060  0.22970  0.90920  Biso   1.000  Fe
  Fe14     1.0000 0.95010  0.40720  0.01130  Biso   1.000  Fe
  P19      1.0000 0.22190  0.44440  0.85980  Biso   1.000  P
  P20      1.0000 0.67580  0.97020  0.05570  Biso   1.000  P
  P21      1.0000 0.65520  0.37820  0.96940  Biso   1.000  P
  O85      1.0000 0.31440  0.29420  0.96020  Biso   1.000  O
  O86      1.0000 0.59350  0.31080  0.92930  Biso   1.000  O
  O87      1.0000 0.35740  0.39230  0.87720  Biso   1.000  O
  O88      1.0000 0.67140  0.97790  0.10550  Biso   1.000  O
  O89      1.0000 0.22840  0.59970  0.85800  Biso   1.000  O
  F13      1.0000 0.49290  0.07310  0.94650  Biso   1.000  F
  O90      1.0000 0.80250  0.33100  0.97600  Biso   1.000  O
  O91      1.0000 0.53340  0.00080  0.03730  Biso   1.000  O
  O92      1.0000 0.26360  0.08250  0.00470  Biso   1.000  O
  O93      1.0000 0.19260  0.37780  0.81460  Biso   1.000  O
  F14      1.0000 0.56500  0.81700  0.96770  Biso   1.000  F
  O94      1.0000 0.73630  0.83520  0.04070  Biso   1.000  O
  O95      1.0000 0.64460  0.53180  0.96310  Biso   1.000  O
  O96      1.0000 0.10170  0.39540  0.88980  Biso   1.000  O
  O97      1.0000 0.77890  0.07600  0.03590  Biso   1.000  O
  O98      1.0000 0.57980  0.33450  0.01320  Biso   1.000  O
  Fe15     1.0000 0.57940  0.77030  0.40920  Biso   1.000  Fe
  Fe16     1.0000 0.04990  0.59280  0.51130  Biso   1.000  Fe
  P22      1.0000 0.77810  0.55560  0.35980  Biso   1.000  P
  P23      1.0000 0.32420  0.02980  0.55570  Biso   1.000  P
  P24      1.0000 0.34480  0.62180  0.46940  Biso   1.000  P
  O99      1.0000 0.68560  0.70580  0.46020  Biso   1.000  O
  O100     1.0000 0.40650  0.68920  0.42930  Biso   1.000  O
  O101     1.0000 0.64260  0.60770  0.37720  Biso   1.000  O
  O102     1.0000 0.32860  0.02210  0.60550  Biso   1.000  O
  O103     1.0000 0.77160  0.40030  0.35800  Biso   1.000  O
  F15      1.0000 0.50710  0.92690  0.44650  Biso   1.000  F
  O104     1.0000 0.19750  0.66900  0.47600  Biso   1.000  O
  O105     1.0000 0.46660  0.99920  0.53730  Biso   1.000  O
  O106     1.0000 0.73640  0.91750  0.50470  Biso   1.000  O
  O107     1.0000 0.80740  0.62220  0.31460  Biso   1.000  O
  F16      1.0000 0.43500  0.18300  0.46770  Biso   1.000  F
  O108     1.0000 0.26370  0.16480  0.54070  Biso   1.000  O
  O109     1.0000 0.35540  0.46820  0.46310  Biso   1.000  O
  O110     1.0000 0.89830  0.60460  0.38980  Biso   1.000  O
  O111     1.0000 0.22110  0.92400  0.53590  Biso   1.000  O
  O112     1.0000 0.42020  0.66550  0.51320  Biso   1.000  O
  Fe17     1.0000 0.68880  0.68880  0.00000  Biso   1.000  Fe
  P25      1.0000 0.23700  0.23700  0.00000  Biso   1.000  P
  Fe18     1.0000 0.31120  0.31120  0.50000  Biso   1.000  Fe
  P26      1.0000 0.76300  0.76300  0.50000  Biso   1.000  P
  Fe19     1.0000 0.81120  0.18880  0.75000  Biso   1.000  Fe
  P27      1.0000 0.26300  0.73700  0.75000  Biso   1.000  P
  Fe20     1.0000 0.18880  0.81120  0.25000  Biso   1.000  Fe
  P28      1.0000 0.73700  0.26300  0.25000  Biso   1.000  P
