data_image0
_cell_length_a       15.4281
_cell_length_b       15.4281
_cell_length_c       16.9746
_cell_angle_alpha    90
_cell_angle_beta     90
_cell_angle_gamma    120

_symmetry_space_group_name_H-M    "P 1"
_symmetry_int_tables_number       1

loop_
  _symmetry_equiv_pos_as_xyz
  'x, y, z'

loop_
  _atom_site_label
  _atom_site_occupancy
  _atom_site_fract_x
  _atom_site_fract_y
  _atom_site_fract_z
  _atom_site_thermal_displace_type
  _atom_site_B_iso_or_equiv
  _atom_site_type_symbol
  W1       1.0000 0.17882  0.46974  0.85138  Biso   1.000  W
  S1       1.0000 0.42710  0.80140  0.07580  Biso   1.000  S
  O1       1.0000 0.09320  0.36950  0.90610  Biso   1.000  O
  O2       1.0000 0.27330  0.42510  0.83210  Biso   1.000  O
  O3       1.0000 0.24920  0.55340  0.92630  Biso   1.000  O
  O4       1.0000 0.45070  0.78790  0.15750  Biso   1.000  O
  C1       1.0000 0.53800  0.88100  0.02740  Biso   1.000  C
  H1       1.0000 0.56360  0.94990  0.04680  Biso   1.000  H
  H2       1.0000 0.52280  0.88090  0.97000  Biso   1.000  H
  H3       1.0000 0.58580  0.86000  0.03450  Biso   1.000  H
  O5       1.0000 0.10910  0.53830  0.82950  Biso   1.000  O
  C2       1.0000 0.36900  0.87900  0.08300  Biso   1.000  C
  H4       1.0000 0.31030  0.84520  0.11610  Biso   1.000  H
  H5       1.0000 0.34710  0.88430  0.02840  Biso   1.000  H
  H6       1.0000 0.41660  0.94350  0.10190  Biso   1.000  H
  W2       1.0000 0.53026  0.70908  0.85138  Biso   1.000  W
  S2       1.0000 0.19860  0.62570  0.07580  Biso   1.000  S
  O6       1.0000 0.63050  0.72370  0.90610  Biso   1.000  O
  O7       1.0000 0.57490  0.84820  0.83210  Biso   1.000  O
  O8       1.0000 0.44660  0.69580  0.92630  Biso   1.000  O
  O9       1.0000 0.21210  0.66280  0.15750  Biso   1.000  O
  C3       1.0000 0.11900  0.65700  0.02740  Biso   1.000  C
  H7       1.0000 0.05010  0.61370  0.04680  Biso   1.000  H
  H8       1.0000 0.11910  0.64190  0.97000  Biso   1.000  H
  H9       1.0000 0.14000  0.72580  0.03450  Biso   1.000  H
  O10      1.0000 0.46170  0.57080  0.82950  Biso   1.000  O
  C4       1.0000 0.12100  0.49000  0.08300  Biso   1.000  C
  H10      1.0000 0.15480  0.46510  0.11610  Biso   1.000  H
  H11      1.0000 0.11570  0.46280  0.02840  Biso   1.000  H
  H12      1.0000 0.05650  0.47310  0.10190  Biso   1.000  H
  W3       1.0000 0.29092  0.82118  0.85138  Biso   1.000  W
  S3       1.0000 0.37430  0.57290  0.07580  Biso   1.000  S
  O11      1.0000 0.27630  0.90680  0.90610  Biso   1.000  O
  O12      1.0000 0.15180  0.72670  0.83210  Biso   1.000  O
  O13      1.0000 0.30420  0.75080  0.92630  Biso   1.000  O
  O14      1.0000 0.33720  0.54930  0.15750  Biso   1.000  O
  C5       1.0000 0.34300  0.46200  0.02740  Biso   1.000  C
  H13      1.0000 0.38630  0.43640  0.04680  Biso   1.000  H
  H14      1.0000 0.35810  0.47720  0.97000  Biso   1.000  H
  H15      1.0000 0.27420  0.41420  0.03450  Biso   1.000  H
  O15      1.0000 0.42920  0.89090  0.82950  Biso   1.000  O
  C6       1.0000 0.51000  0.63100  0.08300  Biso   1.000  C
  H16      1.0000 0.53490  0.68970  0.11610  Biso   1.000  H
  H17      1.0000 0.53720  0.65290  0.02840  Biso   1.000  H
  H18      1.0000 0.52690  0.58340  0.10190  Biso   1.000  H
  W4       1.0000 0.82118  0.53026  0.35138  Biso   1.000  W
  S4       1.0000 0.57290  0.19860  0.57580  Biso   1.000  S
  O16      1.0000 0.90680  0.63050  0.40610  Biso   1.000  O
  O17      1.0000 0.72670  0.57490  0.33210  Biso   1.000  O
  O18      1.0000 0.75080  0.44660  0.42630  Biso   1.000  O
  O19      1.0000 0.54930  0.21210  0.65750  Biso   1.000  O
  C7       1.0000 0.46200  0.11900  0.52740  Biso   1.000  C
  H19      1.0000 0.43640  0.05010  0.54680  Biso   1.000  H
  H20      1.0000 0.47720  0.11910  0.47000  Biso   1.000  H
  H21      1.0000 0.41420  0.14000  0.53450  Biso   1.000  H
  O20      1.0000 0.89090  0.46170  0.32950  Biso   1.000  O
  C8       1.0000 0.63100  0.12100  0.58300  Biso   1.000  C
  H22      1.0000 0.68970  0.15480  0.61610  Biso   1.000  H
  H23      1.0000 0.65290  0.11570  0.52840  Biso   1.000  H
  H24      1.0000 0.58340  0.05650  0.60190  Biso   1.000  H
  W5       1.0000 0.46974  0.29092  0.35138  Biso   1.000  W
  S5       1.0000 0.80140  0.37430  0.57580  Biso   1.000  S
  O21      1.0000 0.36950  0.27630  0.40610  Biso   1.000  O
  O22      1.0000 0.42510  0.15180  0.33210  Biso   1.000  O
  O23      1.0000 0.55340  0.30420  0.42630  Biso   1.000  O
  O24      1.0000 0.78790  0.33720  0.65750  Biso   1.000  O
  C9       1.0000 0.88100  0.34300  0.52740  Biso   1.000  C
  H25      1.0000 0.94990  0.38630  0.54680  Biso   1.000  H
  H26      1.0000 0.88090  0.35810  0.47000  Biso   1.000  H
  H27      1.0000 0.86000  0.27420  0.53450  Biso   1.000  H
  O25      1.0000 0.53830  0.42920  0.32950  Biso   1.000  O
  C10      1.0000 0.87900  0.51000  0.58300  Biso   1.000  C
  H28      1.0000 0.84520  0.53490  0.61610  Biso   1.000  H
  H29      1.0000 0.88430  0.53720  0.52840  Biso   1.000  H
  H30      1.0000 0.94350  0.52690  0.60190  Biso   1.000  H
  W6       1.0000 0.70908  0.17882  0.35138  Biso   1.000  W
  S6       1.0000 0.62570  0.42710  0.57580  Biso   1.000  S
  O26      1.0000 0.72370  0.09320  0.40610  Biso   1.000  O
  O27      1.0000 0.84820  0.27330  0.33210  Biso   1.000  O
  O28      1.0000 0.69580  0.24920  0.42630  Biso   1.000  O
  O29      1.0000 0.66280  0.45070  0.65750  Biso   1.000  O
  C11      1.0000 0.65700  0.53800  0.52740  Biso   1.000  C
  H31      1.0000 0.61370  0.56360  0.54680  Biso   1.000  H
  H32      1.0000 0.64190  0.52280  0.47000  Biso   1.000  H
  H33      1.0000 0.72580  0.58580  0.53450  Biso   1.000  H
  O30      1.0000 0.57080  0.10910  0.32950  Biso   1.000  O
  C12      1.0000 0.49000  0.36900  0.58300  Biso   1.000  C
  H34      1.0000 0.46510  0.31030  0.61610  Biso   1.000  H
  H35      1.0000 0.46280  0.34710  0.52840  Biso   1.000  H
  H36      1.0000 0.47310  0.41660  0.60190  Biso   1.000  H
  W7       1.0000 0.82118  0.53026  0.14862  Biso   1.000  W
  S7       1.0000 0.57290  0.19860  0.92420  Biso   1.000  S
  O31      1.0000 0.90680  0.63050  0.09390  Biso   1.000  O
  O32      1.0000 0.72670  0.57490  0.16790  Biso   1.000  O
  O33      1.0000 0.75080  0.44660  0.07370  Biso   1.000  O
  O34      1.0000 0.54930  0.21210  0.84250  Biso   1.000  O
  C13      1.0000 0.46200  0.11900  0.97260  Biso   1.000  C
  H37      1.0000 0.43640  0.05010  0.95320  Biso   1.000  H
  H38      1.0000 0.47720  0.11910  0.03000  Biso   1.000  H
  H39      1.0000 0.41420  0.14000  0.96550  Biso   1.000  H
  O35      1.0000 0.89090  0.46170  0.17050  Biso   1.000  O
  C14      1.0000 0.63100  0.12100  0.91700  Biso   1.000  C
  H40      1.0000 0.68970  0.15480  0.88390  Biso   1.000  H
  H41      1.0000 0.65290  0.11570  0.97160  Biso   1.000  H
  H42      1.0000 0.58340  0.05650  0.89810  Biso   1.000  H
  W8       1.0000 0.46974  0.29092  0.14862  Biso   1.000  W
  S8       1.0000 0.80140  0.37430  0.92420  Biso   1.000  S
  O36      1.0000 0.36950  0.27630  0.09390  Biso   1.000  O
  O37      1.0000 0.42510  0.15180  0.16790  Biso   1.000  O
  O38      1.0000 0.55340  0.30420  0.07370  Biso   1.000  O
  O39      1.0000 0.78790  0.33720  0.84250  Biso   1.000  O
  C15      1.0000 0.88100  0.34300  0.97260  Biso   1.000  C
  H43      1.0000 0.94990  0.38630  0.95320  Biso   1.000  H
  H44      1.0000 0.88090  0.35810  0.03000  Biso   1.000  H
  H45      1.0000 0.86000  0.27420  0.96550  Biso   1.000  H
  O40      1.0000 0.53830  0.42920  0.17050  Biso   1.000  O
  C16      1.0000 0.87900  0.51000  0.91700  Biso   1.000  C
  H46      1.0000 0.84520  0.53490  0.88390  Biso   1.000  H
  H47      1.0000 0.88430  0.53720  0.97160  Biso   1.000  H
  H48      1.0000 0.94350  0.52690  0.89810  Biso   1.000  H
  W9       1.0000 0.70908  0.17882  0.14862  Biso   1.000  W
  S9       1.0000 0.62570  0.42710  0.92420  Biso   1.000  S
  O41      1.0000 0.72370  0.09320  0.09390  Biso   1.000  O
  O42      1.0000 0.84820  0.27330  0.16790  Biso   1.000  O
  O43      1.0000 0.69580  0.24920  0.07370  Biso   1.000  O
  O44      1.0000 0.66280  0.45070  0.84250  Biso   1.000  O
  C17      1.0000 0.65700  0.53800  0.97260  Biso   1.000  C
  H49      1.0000 0.61370  0.56360  0.95320  Biso   1.000  H
  H50      1.0000 0.64190  0.52280  0.03000  Biso   1.000  H
  H51      1.0000 0.72580  0.58580  0.96550  Biso   1.000  H
  O45      1.0000 0.57080  0.10910  0.17050  Biso   1.000  O
  C18      1.0000 0.49000  0.36900  0.91700  Biso   1.000  C
  H52      1.0000 0.46510  0.31030  0.88390  Biso   1.000  H
  H53      1.0000 0.46280  0.34710  0.97160  Biso   1.000  H
  H54      1.0000 0.47310  0.41660  0.89810  Biso   1.000  H
  W10      1.0000 0.17882  0.46974  0.64862  Biso   1.000  W
  S10      1.0000 0.42710  0.80140  0.42420  Biso   1.000  S
  O46      1.0000 0.09320  0.36950  0.59390  Biso   1.000  O
  O47      1.0000 0.27330  0.42510  0.66790  Biso   1.000  O
  O48      1.0000 0.24920  0.55340  0.57370  Biso   1.000  O
  O49      1.0000 0.45070  0.78790  0.34250  Biso   1.000  O
  C19      1.0000 0.53800  0.88100  0.47260  Biso   1.000  C
  H55      1.0000 0.56360  0.94990  0.45320  Biso   1.000  H
  H56      1.0000 0.52280  0.88090  0.53000  Biso   1.000  H
  H57      1.0000 0.58580  0.86000  0.46550  Biso   1.000  H
  O50      1.0000 0.10910  0.53830  0.67050  Biso   1.000  O
  C20      1.0000 0.36900  0.87900  0.41700  Biso   1.000  C
  H58      1.0000 0.31030  0.84520  0.38390  Biso   1.000  H
  H59      1.0000 0.34710  0.88430  0.47160  Biso   1.000  H
  H60      1.0000 0.41660  0.94350  0.39810  Biso   1.000  H
  W11      1.0000 0.53026  0.70908  0.64862  Biso   1.000  W
  S11      1.0000 0.19860  0.62570  0.42420  Biso   1.000  S
  O51      1.0000 0.63050  0.72370  0.59390  Biso   1.000  O
  O52      1.0000 0.57490  0.84820  0.66790  Biso   1.000  O
  O53      1.0000 0.44660  0.69580  0.57370  Biso   1.000  O
  O54      1.0000 0.21210  0.66280  0.34250  Biso   1.000  O
  C21      1.0000 0.11900  0.65700  0.47260  Biso   1.000  C
  H61      1.0000 0.05010  0.61370  0.45320  Biso   1.000  H
  H62      1.0000 0.11910  0.64190  0.53000  Biso   1.000  H
  H63      1.0000 0.14000  0.72580  0.46550  Biso   1.000  H
  O55      1.0000 0.46170  0.57080  0.67050  Biso   1.000  O
  C22      1.0000 0.12100  0.49000  0.41700  Biso   1.000  C
  H64      1.0000 0.15480  0.46510  0.38390  Biso   1.000  H
  H65      1.0000 0.11570  0.46280  0.47160  Biso   1.000  H
  H66      1.0000 0.05650  0.47310  0.39810  Biso   1.000  H
  W12      1.0000 0.29092  0.82118  0.64862  Biso   1.000  W
  S12      1.0000 0.37430  0.57290  0.42420  Biso   1.000  S
  O56      1.0000 0.27630  0.90680  0.59390  Biso   1.000  O
  O57      1.0000 0.15180  0.72670  0.66790  Biso   1.000  O
  O58      1.0000 0.30420  0.75080  0.57370  Biso   1.000  O
  O59      1.0000 0.33720  0.54930  0.34250  Biso   1.000  O
  C23      1.0000 0.34300  0.46200  0.47260  Biso   1.000  C
  H67      1.0000 0.38630  0.43640  0.45320  Biso   1.000  H
  H68      1.0000 0.35810  0.47720  0.53000  Biso   1.000  H
  H69      1.0000 0.27420  0.41420  0.46550  Biso   1.000  H
  O60      1.0000 0.42920  0.89090  0.67050  Biso   1.000  O
  C24      1.0000 0.51000  0.63100  0.41700  Biso   1.000  C
  H70      1.0000 0.53490  0.68970  0.38390  Biso   1.000  H
  H71      1.0000 0.53720  0.65290  0.47160  Biso   1.000  H
  H72      1.0000 0.52690  0.58340  0.39810  Biso   1.000  H
  W13      1.0000 0.37572  0.48475  0.75000  Biso   1.000  W
  O61      1.0000 0.26990  0.54280  0.75000  Biso   1.000  O
  O62      1.0000 0.40290  0.39150  0.75000  Biso   1.000  O
  O63      1.0000 0.10910  0.38790  0.75000  Biso   1.000  O
  Na1      1.0000 0.91420  0.30960  0.75000  Biso   1.000  Na
  W14      1.0000 0.51525  0.89097  0.75000  Biso   1.000  W
  O64      1.0000 0.45720  0.72710  0.75000  Biso   1.000  O
  O65      1.0000 0.60850  0.01140  0.75000  Biso   1.000  O
  O66      1.0000 0.61210  0.72120  0.75000  Biso   1.000  O
  Na2      1.0000 0.69040  0.60460  0.75000  Biso   1.000  Na
  W15      1.0000 0.10903  0.62428  0.75000  Biso   1.000  W
  O67      1.0000 0.27290  0.73010  0.75000  Biso   1.000  O
  O68      1.0000 0.98860  0.59710  0.75000  Biso   1.000  O
  O69      1.0000 0.27880  0.89090  0.75000  Biso   1.000  O
  Na3      1.0000 0.39540  0.08580  0.75000  Biso   1.000  Na
  W16      1.0000 0.62428  0.51525  0.25000  Biso   1.000  W
  O70      1.0000 0.73010  0.45720  0.25000  Biso   1.000  O
  O71      1.0000 0.59710  0.60850  0.25000  Biso   1.000  O
  O72      1.0000 0.89090  0.61210  0.25000  Biso   1.000  O
  Na4      1.0000 0.08580  0.69040  0.25000  Biso   1.000  Na
  W17      1.0000 0.48475  0.10903  0.25000  Biso   1.000  W
  O73      1.0000 0.54280  0.27290  0.25000  Biso   1.000  O
  O74      1.0000 0.39150  0.98860  0.25000  Biso   1.000  O
  O75      1.0000 0.38790  0.27880  0.25000  Biso   1.000  O
  Na5      1.0000 0.30960  0.39540  0.25000  Biso   1.000  Na
  W18      1.0000 0.89097  0.37572  0.25000  Biso   1.000  W
  O76      1.0000 0.72710  0.26990  0.25000  Biso   1.000  O
  O77      1.0000 0.01140  0.40290  0.25000  Biso   1.000  O
  O78      1.0000 0.72120  0.10910  0.25000  Biso   1.000  O
  Na6      1.0000 0.60460  0.91420  0.25000  Biso   1.000  Na
  Ru1      1.0000 0.33333  0.66667  0.00285  Biso   1.000  Ru
  Ru2      1.0000 0.66667  0.33333  0.50285  Biso   1.000  Ru
  Ru3      1.0000 0.66667  0.33333  0.99715  Biso   1.000  Ru
  Ru4      1.0000 0.33333  0.66667  0.49715  Biso   1.000  Ru
  K1       1.0000 0.33333  0.66667  0.25000  Biso   1.000  K
  K2       1.0000 0.66667  0.33333  0.75000  Biso   1.000  K
