data_image0
_cell_length_a       12.7279
_cell_length_b       14.5331
_cell_length_c       23.2812
_cell_angle_alpha    99.815
_cell_angle_beta     92.601
_cell_angle_gamma    97.071

_symmetry_space_group_name_H-M    P 1
_symmetry_int_tables_number       1

loop_
  _symmetry_equiv_pos_as_xyz
  'x, y, z'

loop_
  _atom_site_label
  _atom_site_occupancy
  _atom_site_fract_x
  _atom_site_fract_y
  _atom_site_fract_z
  _atom_site_thermal_displace_type
  _atom_site_B_iso_or_equiv
  _atom_site_type_symbol
  Mg1      1.0000 0.49549  0.69808  0.60862  Biso   1.000  Mg
  Mg2      1.0000 0.94134  0.31208  0.07448  Biso   1.000  Mg
  Mg3      1.0000 0.50451  0.30192  0.39138  Biso   1.000  Mg
  Mg4      1.0000 0.05866  0.68792  0.92552  Biso   1.000  Mg
  Mg5      1.0000 0.50000  0.50000  0.50000  Biso   1.000  Mg
  Mg6      1.0000 0.00000  0.50000  0.00000  Biso   1.000  Mg
  Si1      1.0000 0.97304  0.77608  0.36669  Biso   1.000  Si
  Si2      1.0000 0.60107  0.75480  0.18747  Biso   1.000  Si
  Si3      1.0000 0.02696  0.22392  0.63331  Biso   1.000  Si
  Si4      1.0000 0.39893  0.24520  0.81253  Biso   1.000  Si
  H1       1.0000 0.86670  0.62200  0.41200  Biso   1.000  H
  H2       1.0000 0.72930  0.59360  0.47390  Biso   1.000  H
  H3       1.0000 0.66630  0.86210  0.47600  Biso   1.000  H
  H4       1.0000 0.80300  0.88620  0.41530  Biso   1.000  H
  H5       1.0000 0.83520  0.60830  0.30620  Biso   1.000  H
  H6       1.0000 0.83060  0.50430  0.22040  Biso   1.000  H
  H7       1.0000 0.06020  0.67860  0.16460  Biso   1.000  H
  H8       1.0000 0.07050  0.78010  0.25450  Biso   1.000  H
  H9       1.0000 0.16140  0.67900  0.34020  Biso   1.000  H
  H10      1.0000 0.28760  0.62020  0.39290  Biso   1.000  H
  H11      1.0000 0.16630  0.73080  0.54250  Biso   1.000  H
  H12      1.0000 0.03200  0.77720  0.48940  Biso   1.000  H
  H13      1.0000 0.93500  0.90090  0.28250  Biso   1.000  H
  H14      1.0000 0.97330  0.06240  0.28200  Biso   1.000  H
  H15      1.0000 0.12170  0.10020  0.44360  Biso   1.000  H
  H16      1.0000 0.08330  0.93870  0.44410  Biso   1.000  H
  H17      1.0000 0.53520  0.76720  0.30700  Biso   1.000  H
  H18      1.0000 0.51850  0.67140  0.37560  Biso   1.000  H
  H19      1.0000 0.61050  0.46230  0.26220  Biso   1.000  H
  H20      1.0000 0.63060  0.55810  0.19370  Biso   1.000  H
  H21      1.0000 0.66230  0.60490  0.10460  Biso   1.000  H
  H22      1.0000 0.79190  0.58530  0.03700  Biso   1.000  H
  H23      1.0000 0.92220  0.85520  0.09240  Biso   1.000  H
  H24      1.0000 0.79550  0.87210  0.16340  Biso   1.000  H
  H25      1.0000 0.39170  0.64100  0.18310  Biso   1.000  H
  H26      1.0000 0.25050  0.59320  0.11360  Biso   1.000  H
  H27      1.0000 0.37860  0.76380  0.01320  Biso   1.000  H
  H28      1.0000 0.52850  0.80380  0.07740  Biso   1.000  H
  H29      1.0000 0.73840  0.86530  0.28440  Biso   1.000  H
  H30      1.0000 0.74850  0.00820  0.34360  Biso   1.000  H
  H31      1.0000 0.50320  0.07100  0.24910  Biso   1.000  H
  H32      1.0000 0.49260  0.92740  0.18790  Biso   1.000  H
  H33      1.0000 0.63680  0.61940  0.70090  Biso   1.000  H
  H34      1.0000 0.73530  0.69990  0.71950  Biso   1.000  H
  H35      1.0000 0.62310  0.69480  0.79780  Biso   1.000  H
  H36      1.0000 0.62600  0.79470  0.77730  Biso   1.000  H
  H37      1.0000 0.52600  0.71540  0.75790  Biso   1.000  H
  H38      1.0000 0.03230  0.36780  0.19930  Biso   1.000  H
  H39      1.0000 0.12870  0.31090  0.20580  Biso   1.000  H
  H40      1.0000 0.17230  0.46550  0.25210  Biso   1.000  H
  H41      1.0000 0.24870  0.44510  0.20000  Biso   1.000  H
  H42      1.0000 0.15140  0.50300  0.19230  Biso   1.000  H
  H43      1.0000 0.13330  0.37800  0.58800  Biso   1.000  H
  H44      1.0000 0.27070  0.40640  0.52610  Biso   1.000  H
  H45      1.0000 0.33370  0.13790  0.52400  Biso   1.000  H
  H46      1.0000 0.19700  0.11380  0.58470  Biso   1.000  H
  H47      1.0000 0.16480  0.39170  0.69380  Biso   1.000  H
  H48      1.0000 0.16940  0.49570  0.77960  Biso   1.000  H
  H49      1.0000 0.93980  0.32140  0.83540  Biso   1.000  H
  H50      1.0000 0.92950  0.21990  0.74550  Biso   1.000  H
  H51      1.0000 0.83860  0.32100  0.65980  Biso   1.000  H
  H52      1.0000 0.71240  0.37980  0.60710  Biso   1.000  H
  H53      1.0000 0.83370  0.26920  0.45750  Biso   1.000  H
  H54      1.0000 0.96800  0.22280  0.51060  Biso   1.000  H
  H55      1.0000 0.06500  0.09910  0.71750  Biso   1.000  H
  H56      1.0000 0.02670  0.93760  0.71800  Biso   1.000  H
  H57      1.0000 0.87830  0.89980  0.55640  Biso   1.000  H
  H58      1.0000 0.91670  0.06130  0.55590  Biso   1.000  H
  H59      1.0000 0.46480  0.23280  0.69300  Biso   1.000  H
  H60      1.0000 0.48150  0.32860  0.62440  Biso   1.000  H
  H61      1.0000 0.38950  0.53770  0.73780  Biso   1.000  H
  H62      1.0000 0.36940  0.44190  0.80630  Biso   1.000  H
  H63      1.0000 0.33770  0.39510  0.89540  Biso   1.000  H
  H64      1.0000 0.20810  0.41470  0.96300  Biso   1.000  H
  H65      1.0000 0.07780  0.14480  0.90760  Biso   1.000  H
  H66      1.0000 0.20450  0.12790  0.83660  Biso   1.000  H
  H67      1.0000 0.60830  0.35900  0.81690  Biso   1.000  H
  H68      1.0000 0.74950  0.40680  0.88640  Biso   1.000  H
  H69      1.0000 0.62140  0.23620  0.98680  Biso   1.000  H
  H70      1.0000 0.47150  0.19620  0.92260  Biso   1.000  H
  H71      1.0000 0.26160  0.13470  0.71560  Biso   1.000  H
  H72      1.0000 0.25150  0.99180  0.65640  Biso   1.000  H
  H73      1.0000 0.49680  0.92900  0.75090  Biso   1.000  H
  H74      1.0000 0.50740  0.07260  0.81210  Biso   1.000  H
  H75      1.0000 0.36320  0.38060  0.29910  Biso   1.000  H
  H76      1.0000 0.26470  0.30010  0.28050  Biso   1.000  H
  H77      1.0000 0.37690  0.30520  0.20220  Biso   1.000  H
  H78      1.0000 0.37400  0.20530  0.22270  Biso   1.000  H
  H79      1.0000 0.47400  0.28460  0.24210  Biso   1.000  H
  H80      1.0000 0.96770  0.63220  0.80070  Biso   1.000  H
  H81      1.0000 0.87130  0.68910  0.79420  Biso   1.000  H
  H82      1.0000 0.82770  0.53450  0.74790  Biso   1.000  H
  H83      1.0000 0.75130  0.55490  0.80000  Biso   1.000  H
  H84      1.0000 0.84860  0.49700  0.80770  Biso   1.000  H
  C1       1.0000 0.85240  0.75640  0.40930  Biso   1.000  C
  C2       1.0000 0.82700  0.67150  0.42590  Biso   1.000  C
  C3       1.0000 0.74520  0.65330  0.46250  Biso   1.000  C
  C4       1.0000 0.68720  0.72970  0.48180  Biso   1.000  C
  C5       1.0000 0.70780  0.81310  0.46390  Biso   1.000  C
  C6       1.0000 0.78930  0.82720  0.42780  Biso   1.000  C
  C7       1.0000 0.60500  0.71410  0.52570  Biso   1.000  C
  C8       1.0000 0.95610  0.70350  0.29200  Biso   1.000  C
  C9       1.0000 0.88430  0.62190  0.27820  Biso   1.000  C
  C10      1.0000 0.88010  0.56020  0.22680  Biso   1.000  C
  C11      1.0000 0.94660  0.57810  0.18410  Biso   1.000  C
  C12      1.0000 0.01630  0.66280  0.19430  Biso   1.000  C
  C13      1.0000 0.02160  0.72380  0.24790  Biso   1.000  C
  C14      1.0000 0.94930  0.50990  0.12950  Biso   1.000  C
  C15      1.0000 0.08210  0.73550  0.40820  Biso   1.000  C
  C16      1.0000 0.16030  0.68810  0.38150  Biso   1.000  C
  C17      1.0000 0.23670  0.65370  0.41300  Biso   1.000  C
  C18      1.0000 0.24000  0.66750  0.47450  Biso   1.000  C
  C19      1.0000 0.16410  0.71710  0.50110  Biso   1.000  C
  C20      1.0000 0.08550  0.74730  0.46930  Biso   1.000  C
  C21      1.0000 0.32440  0.63490  0.50790  Biso   1.000  C
  C22      1.0000 0.00550  0.90460  0.36330  Biso   1.000  C
  C23      1.0000 0.97290  0.94140  0.31520  Biso   1.000  C
  C24      1.0000 0.99570  0.03730  0.31490  Biso   1.000  C
  C25      1.0000 0.05110  0.09650  0.36270  Biso   1.000  C
  C26      1.0000 0.08380  0.05970  0.41090  Biso   1.000  C
  C27      1.0000 0.06100  0.96380  0.41120  Biso   1.000  C
  C28      1.0000 0.07720  0.19780  0.36040  Biso   1.000  C
  C29      1.0000 0.58950  0.67610  0.24220  Biso   1.000  C
  C30      1.0000 0.55290  0.70510  0.29760  Biso   1.000  C
  C31      1.0000 0.54180  0.64820  0.33830  Biso   1.000  C
  C32      1.0000 0.56410  0.55720  0.32550  Biso   1.000  C
  C33      1.0000 0.59620  0.52550  0.27170  Biso   1.000  C
  C34      1.0000 0.60840  0.58290  0.23100  Biso   1.000  C
  C35      1.0000 0.54650  0.49290  0.36830  Biso   1.000  C
  C36      1.0000 0.71460  0.74150  0.14040  Biso   1.000  C
  C37      1.0000 0.71520  0.65630  0.10250  Biso   1.000  C
  C38      1.0000 0.79140  0.64450  0.06170  Biso   1.000  C
  C39      1.0000 0.86730  0.72090  0.05760  Biso   1.000  C
  C40      1.0000 0.86940  0.80390  0.09470  Biso   1.000  C
  C41      1.0000 0.79270  0.81410  0.13700  Biso   1.000  C
  C42      1.0000 0.94270  0.70670  0.00860  Biso   1.000  C
  C43      1.0000 0.47750  0.72590  0.13640  Biso   1.000  C
  C44      1.0000 0.39210  0.66460  0.14750  Biso   1.000  C
  C45      1.0000 0.30710  0.63780  0.10630  Biso   1.000  C
  C46      1.0000 0.30150  0.67290  0.05580  Biso   1.000  C
  C47      1.0000 0.38210  0.73570  0.04710  Biso   1.000  C
  C48      1.0000 0.47120  0.76110  0.08610  Biso   1.000  C
  C49      1.0000 0.20600  0.64120  0.01280  Biso   1.000  C
  C50      1.0000 0.61440  0.87860  0.22880  Biso   1.000  C
  C51      1.0000 0.68960  0.90710  0.27690  Biso   1.000  C
  C52      1.0000 0.69500  0.99050  0.31250  Biso   1.000  C
  C53      1.0000 0.62400  0.04910  0.30370  Biso   1.000  C
  C54      1.0000 0.54980  0.02730  0.25620  Biso   1.000  C
  C55      1.0000 0.54450  0.94300  0.21990  Biso   1.000  C
  C56      1.0000 0.62180  0.13940  0.34610  Biso   1.000  C
  C57      1.0000 0.65750  0.68840  0.71040  Biso   1.000  C
  C58      1.0000 0.60320  0.72690  0.76600  Biso   1.000  C
  C59      1.0000 0.10240  0.35780  0.18450  Biso   1.000  C
  C60      1.0000 0.17550  0.45160  0.20950  Biso   1.000  C
  C61      1.0000 0.14760  0.24360  0.59070  Biso   1.000  C
  C62      1.0000 0.17300  0.32850  0.57410  Biso   1.000  C
  C63      1.0000 0.25480  0.34670  0.53750  Biso   1.000  C
  C64      1.0000 0.31280  0.27030  0.51820  Biso   1.000  C
  C65      1.0000 0.29220  0.18690  0.53610  Biso   1.000  C
  C66      1.0000 0.21070  0.17280  0.57220  Biso   1.000  C
  C67      1.0000 0.39500  0.28590  0.47430  Biso   1.000  C
  C68      1.0000 0.04390  0.29650  0.70800  Biso   1.000  C
  C69      1.0000 0.11570  0.37810  0.72180  Biso   1.000  C
  C70      1.0000 0.11990  0.43980  0.77320  Biso   1.000  C
  C71      1.0000 0.05340  0.42190  0.81590  Biso   1.000  C
  C72      1.0000 0.98370  0.33720  0.80570  Biso   1.000  C
  C73      1.0000 0.97840  0.27620  0.75210  Biso   1.000  C
  C74      1.0000 0.05070  0.49010  0.87050  Biso   1.000  C
  C75      1.0000 0.91790  0.26450  0.59180  Biso   1.000  C
  C76      1.0000 0.83970  0.31190  0.61850  Biso   1.000  C
  C77      1.0000 0.76330  0.34630  0.58700  Biso   1.000  C
  C78      1.0000 0.76000  0.33250  0.52550  Biso   1.000  C
  C79      1.0000 0.83590  0.28290  0.49890  Biso   1.000  C
  C80      1.0000 0.91450  0.25270  0.53070  Biso   1.000  C
  C81      1.0000 0.67560  0.36510  0.49210  Biso   1.000  C
  C82      1.0000 0.99450  0.09540  0.63670  Biso   1.000  C
  C83      1.0000 0.02710  0.05860  0.68480  Biso   1.000  C
  C84      1.0000 0.00430  0.96270  0.68510  Biso   1.000  C
  C85      1.0000 0.94890  0.90350  0.63730  Biso   1.000  C
  C86      1.0000 0.91620  0.94030  0.58910  Biso   1.000  C
  C87      1.0000 0.93900  0.03620  0.58880  Biso   1.000  C
  C88      1.0000 0.92280  0.80220  0.63960  Biso   1.000  C
  C89      1.0000 0.41050  0.32390  0.75780  Biso   1.000  C
  C90      1.0000 0.44710  0.29490  0.70240  Biso   1.000  C
  C91      1.0000 0.45820  0.35180  0.66170  Biso   1.000  C
  C92      1.0000 0.43590  0.44280  0.67450  Biso   1.000  C
  C93      1.0000 0.40380  0.47450  0.72830  Biso   1.000  C
  C94      1.0000 0.39160  0.41710  0.76900  Biso   1.000  C
  C95      1.0000 0.45350  0.50710  0.63170  Biso   1.000  C
  C96      1.0000 0.28540  0.25850  0.85960  Biso   1.000  C
  C97      1.0000 0.28480  0.34370  0.89750  Biso   1.000  C
  C98      1.0000 0.20860  0.35550  0.93830  Biso   1.000  C
  C99      1.0000 0.13270  0.27910  0.94240  Biso   1.000  C
  C100     1.0000 0.13060  0.19610  0.90530  Biso   1.000  C
  C101     1.0000 0.20730  0.18590  0.86300  Biso   1.000  C
  C102     1.0000 0.05730  0.29330  0.99140  Biso   1.000  C
  C103     1.0000 0.52250  0.27410  0.86360  Biso   1.000  C
  C104     1.0000 0.60790  0.33540  0.85250  Biso   1.000  C
  C105     1.0000 0.69290  0.36220  0.89370  Biso   1.000  C
  C106     1.0000 0.69850  0.32710  0.94420  Biso   1.000  C
  C107     1.0000 0.61790  0.26430  0.95290  Biso   1.000  C
  C108     1.0000 0.52880  0.23890  0.91390  Biso   1.000  C
  C109     1.0000 0.79400  0.35880  0.98720  Biso   1.000  C
  C110     1.0000 0.38560  0.12140  0.77120  Biso   1.000  C
  C111     1.0000 0.31040  0.09290  0.72310  Biso   1.000  C
  C112     1.0000 0.30500  0.00950  0.68750  Biso   1.000  C
  C113     1.0000 0.37600  0.95090  0.69630  Biso   1.000  C
  C114     1.0000 0.45020  0.97270  0.74380  Biso   1.000  C
  C115     1.0000 0.45550  0.05700  0.78010  Biso   1.000  C
  C116     1.0000 0.37820  0.86060  0.65390  Biso   1.000  C
  C117     1.0000 0.34250  0.31160  0.28960  Biso   1.000  C
  C118     1.0000 0.39680  0.27310  0.23400  Biso   1.000  C
  C119     1.0000 0.89760  0.64220  0.81550  Biso   1.000  C
  C120     1.0000 0.82450  0.54840  0.79050  Biso   1.000  C
  O1       1.0000 0.57710  0.63380  0.53749  Biso   1.000  O
  O2       1.0000 0.57000  0.78450  0.55282  Biso   1.000  O
  O3       1.0000 0.91150  0.42580  0.12879  Biso   1.000  O
  O4       1.0000 0.99130  0.54050  0.08702  Biso   1.000  O
  O5       1.0000 0.35700  0.56030  0.48828  Biso   1.000  O
  O6       1.0000 0.35720  0.68670  0.55603  Biso   1.000  O
  O7       1.0000 0.05470  0.22950  0.31690  Biso   1.000  O
  O8       1.0000 0.13150  0.25100  0.40740  Biso   1.000  O
  O9       1.0000 0.52680  0.52770  0.42012  Biso   1.000  O
  O10      1.0000 0.55440  0.40660  0.35212  Biso   1.000  O
  O11      1.0000 0.95700  0.62610  0.98359  Biso   1.000  O
  O12      1.0000 0.98700  0.78180  0.99300  Biso   1.000  O
  O13      1.0000 0.15430  0.56250  0.01456  Biso   1.000  O
  O14      1.0000 0.18850  0.69770  0.97963  Biso   1.000  O
  O15      1.0000 0.68870  0.15590  0.39229  Biso   1.000  O
  O16      1.0000 0.55960  0.19460  0.33766  Biso   1.000  O
  O17      1.0000 0.63480  0.72630  0.66080  Biso   1.000  O
  O18      1.0000 0.07900  0.30900  0.12710  Biso   1.000  O
  O19      1.0000 0.86790  0.20770  0.11440  Biso   1.000  O
  O20      1.0000 0.42290  0.36620  0.46251  Biso   1.000  O
  O21      1.0000 0.43000  0.21550  0.44718  Biso   1.000  O
  O22      1.0000 0.08850  0.57420  0.87121  Biso   1.000  O
  O23      1.0000 0.00870  0.45950  0.91298  Biso   1.000  O
  O24      1.0000 0.64300  0.43970  0.51172  Biso   1.000  O
  O25      1.0000 0.64280  0.31330  0.44397  Biso   1.000  O
  O26      1.0000 0.94530  0.77050  0.68310  Biso   1.000  O
  O27      1.0000 0.86850  0.74900  0.59260  Biso   1.000  O
  O28      1.0000 0.47320  0.47230  0.57988  Biso   1.000  O
  O29      1.0000 0.44560  0.59340  0.64788  Biso   1.000  O
  O30      1.0000 0.04300  0.37390  0.01641  Biso   1.000  O
  O31      1.0000 0.01300  0.21820  0.00700  Biso   1.000  O
  O32      1.0000 0.84570  0.43750  0.98544  Biso   1.000  O
  O33      1.0000 0.81150  0.30230  0.02037  Biso   1.000  O
  O34      1.0000 0.31130  0.84410  0.60771  Biso   1.000  O
  O35      1.0000 0.44040  0.80540  0.66234  Biso   1.000  O
  O36      1.0000 0.36520  0.27370  0.33920  Biso   1.000  O
  O37      1.0000 0.92100  0.69100  0.87290  Biso   1.000  O
  O38      1.0000 0.13210  0.79230  0.88560  Biso   1.000  O
