data_image0
_cell_length_a       12.7239
_cell_length_b       14.4992
_cell_length_c       23.3453
_cell_angle_alpha    99.7335
_cell_angle_beta     92.689
_cell_angle_gamma    97.4756

_symmetry_space_group_name_H-M    P 1
_symmetry_int_tables_number       1

loop_
  _symmetry_equiv_pos_as_xyz
  'x, y, z'

loop_
  _atom_site_label
  _atom_site_occupancy
  _atom_site_fract_x
  _atom_site_fract_y
  _atom_site_fract_z
  _atom_site_thermal_displace_type
  _atom_site_B_iso_or_equiv
  _atom_site_type_symbol
  Co1      1.0000 0.49547  0.69604  0.60705  Biso   1.000  Co
  Co2      1.0000 0.94238  0.31543  0.07450  Biso   1.000  Co
  Co3      1.0000 0.50453  0.30396  0.39295  Biso   1.000  Co
  Co4      1.0000 0.05762  0.68457  0.92550  Biso   1.000  Co
  Co5      1.0000 0.50000  0.50000  0.50000  Biso   1.000  Co
  Co6      1.0000 0.00000  0.50000  0.00000  Biso   1.000  Co
  Si1      1.0000 0.97454  0.77957  0.36607  Biso   1.000  Si
  Si2      1.0000 0.60163  0.75575  0.18730  Biso   1.000  Si
  Si3      1.0000 0.02546  0.22043  0.63393  Biso   1.000  Si
  Si4      1.0000 0.39837  0.24425  0.81270  Biso   1.000  Si
  H1       1.0000 0.86860  0.62230  0.41310  Biso   1.000  H
  H2       1.0000 0.73090  0.59570  0.47220  Biso   1.000  H
  H3       1.0000 0.66860  0.86370  0.47500  Biso   1.000  H
  H4       1.0000 0.80500  0.88920  0.41360  Biso   1.000  H
  H5       1.0000 0.83130  0.61450  0.30490  Biso   1.000  H
  H6       1.0000 0.83150  0.50890  0.21820  Biso   1.000  H
  H7       1.0000 0.06590  0.68260  0.16590  Biso   1.000  H
  H8       1.0000 0.07470  0.78380  0.25540  Biso   1.000  H
  H9       1.0000 0.16190  0.68110  0.33910  Biso   1.000  H
  H10      1.0000 0.28700  0.62130  0.39250  Biso   1.000  H
  H11      1.0000 0.16420  0.72890  0.54170  Biso   1.000  H
  H12      1.0000 0.03360  0.78020  0.48890  Biso   1.000  H
  H13      1.0000 0.94000  0.90650  0.28270  Biso   1.000  H
  H14      1.0000 0.97480  0.06930  0.28370  Biso   1.000  H
  H15      1.0000 0.11720  0.10740  0.44650  Biso   1.000  H
  H16      1.0000 0.08240  0.94460  0.44560  Biso   1.000  H
  H17      1.0000 0.54230  0.77060  0.30800  Biso   1.000  H
  H18      1.0000 0.51870  0.67210  0.37540  Biso   1.000  H
  H19      1.0000 0.60910  0.46060  0.26140  Biso   1.000  H
  H20      1.0000 0.63030  0.55910  0.19340  Biso   1.000  H
  H21      1.0000 0.66320  0.60370  0.10340  Biso   1.000  H
  H22      1.0000 0.79190  0.58580  0.03720  Biso   1.000  H
  H23      1.0000 0.92250  0.85740  0.09400  Biso   1.000  H
  H24      1.0000 0.79820  0.87270  0.16300  Biso   1.000  H
  H25      1.0000 0.39250  0.63700  0.18110  Biso   1.000  H
  H26      1.0000 0.24920  0.59170  0.11370  Biso   1.000  H
  H27      1.0000 0.38490  0.76350  0.01140  Biso   1.000  H
  H28      1.0000 0.53090  0.80550  0.07750  Biso   1.000  H
  H29      1.0000 0.74050  0.86760  0.28260  Biso   1.000  H
  H30      1.0000 0.74800  0.01190  0.34350  Biso   1.000  H
  H31      1.0000 0.50520  0.07310  0.24610  Biso   1.000  H
  H32      1.0000 0.49420  0.92550  0.18670  Biso   1.000  H
  H33      1.0000 0.74620  0.75280  0.72220  Biso   1.000  H
  H34      1.0000 0.66950  0.83130  0.71900  Biso   1.000  H
  H35      1.0000 0.62790  0.75030  0.79910  Biso   1.000  H
  H36      1.0000 0.52730  0.73210  0.75280  Biso   1.000  H
  H37      1.0000 0.60230  0.65200  0.75470  Biso   1.000  H
  H38      1.0000 0.03200  0.36030  0.20630  Biso   1.000  H
  H39      1.0000 0.13260  0.30630  0.20810  Biso   1.000  H
  H40      1.0000 0.17920  0.46730  0.25620  Biso   1.000  H
  H41      1.0000 0.24840  0.44970  0.20090  Biso   1.000  H
  H42      1.0000 0.14740  0.50440  0.19780  Biso   1.000  H
  H43      1.0000 0.13140  0.37770  0.58690  Biso   1.000  H
  H44      1.0000 0.26910  0.40430  0.52780  Biso   1.000  H
  H45      1.0000 0.33140  0.13630  0.52500  Biso   1.000  H
  H46      1.0000 0.19500  0.11080  0.58640  Biso   1.000  H
  H47      1.0000 0.16870  0.38550  0.69510  Biso   1.000  H
  H48      1.0000 0.16850  0.49110  0.78180  Biso   1.000  H
  H49      1.0000 0.93410  0.31740  0.83410  Biso   1.000  H
  H50      1.0000 0.92530  0.21620  0.74460  Biso   1.000  H
  H51      1.0000 0.83810  0.31890  0.66090  Biso   1.000  H
  H52      1.0000 0.71300  0.37870  0.60750  Biso   1.000  H
  H53      1.0000 0.83580  0.27110  0.45830  Biso   1.000  H
  H54      1.0000 0.96640  0.21980  0.51110  Biso   1.000  H
  H55      1.0000 0.06000  0.09350  0.71730  Biso   1.000  H
  H56      1.0000 0.02520  0.93070  0.71630  Biso   1.000  H
  H57      1.0000 0.88280  0.89260  0.55350  Biso   1.000  H
  H58      1.0000 0.91760  0.05540  0.55440  Biso   1.000  H
  H59      1.0000 0.45770  0.22940  0.69200  Biso   1.000  H
  H60      1.0000 0.48130  0.32790  0.62460  Biso   1.000  H
  H61      1.0000 0.39090  0.53940  0.73860  Biso   1.000  H
  H62      1.0000 0.36970  0.44090  0.80660  Biso   1.000  H
  H63      1.0000 0.33680  0.39630  0.89660  Biso   1.000  H
  H64      1.0000 0.20810  0.41420  0.96280  Biso   1.000  H
  H65      1.0000 0.07750  0.14260  0.90600  Biso   1.000  H
  H66      1.0000 0.20180  0.12730  0.83700  Biso   1.000  H
  H67      1.0000 0.60750  0.36300  0.81890  Biso   1.000  H
  H68      1.0000 0.75080  0.40830  0.88630  Biso   1.000  H
  H69      1.0000 0.61510  0.23650  0.98860  Biso   1.000  H
  H70      1.0000 0.46910  0.19450  0.92250  Biso   1.000  H
  H71      1.0000 0.25950  0.13240  0.71740  Biso   1.000  H
  H72      1.0000 0.25200  0.98810  0.65650  Biso   1.000  H
  H73      1.0000 0.49480  0.92690  0.75390  Biso   1.000  H
  H74      1.0000 0.50580  0.07450  0.81330  Biso   1.000  H
  H75      1.0000 0.25380  0.24720  0.27780  Biso   1.000  H
  H76      1.0000 0.33050  0.16870  0.28100  Biso   1.000  H
  H77      1.0000 0.37210  0.24970  0.20090  Biso   1.000  H
  H78      1.0000 0.47270  0.26790  0.24720  Biso   1.000  H
  H79      1.0000 0.39770  0.34800  0.24530  Biso   1.000  H
  H80      1.0000 0.96800  0.63970  0.79370  Biso   1.000  H
  H81      1.0000 0.86740  0.69370  0.79190  Biso   1.000  H
  H82      1.0000 0.82080  0.53270  0.74380  Biso   1.000  H
  H83      1.0000 0.75160  0.55030  0.79910  Biso   1.000  H
  H84      1.0000 0.85260  0.49560  0.80220  Biso   1.000  H
  C1       1.0000 0.85340  0.75929  0.40779  Biso   1.000  C
  C2       1.0000 0.82830  0.67171  0.42579  Biso   1.000  C
  C3       1.0000 0.74710  0.65573  0.46112  Biso   1.000  C
  C4       1.0000 0.68820  0.72886  0.48067  Biso   1.000  C
  C5       1.0000 0.70970  0.81480  0.46254  Biso   1.000  C
  C6       1.0000 0.79130  0.83000  0.42614  Biso   1.000  C
  C7       1.0000 0.60840  0.71460  0.52370  Biso   1.000  C
  C8       1.0000 0.95730  0.70840  0.29094  Biso   1.000  C
  C9       1.0000 0.88210  0.62740  0.27778  Biso   1.000  C
  C10      1.0000 0.88090  0.56530  0.22552  Biso   1.000  C
  C11      1.0000 0.95020  0.58430  0.18419  Biso   1.000  C
  C12      1.0000 0.02030  0.66700  0.19493  Biso   1.000  C
  C13      1.0000 0.02460  0.72780  0.24821  Biso   1.000  C
  C14      1.0000 0.95130  0.51440  0.12850  Biso   1.000  C
  C15      1.0000 0.08340  0.73703  0.40782  Biso   1.000  C
  C16      1.0000 0.16090  0.68980  0.38037  Biso   1.000  C
  C17      1.0000 0.23640  0.65520  0.41226  Biso   1.000  C
  C18      1.0000 0.23950  0.66916  0.47252  Biso   1.000  C
  C19      1.0000 0.16290  0.71770  0.50035  Biso   1.000  C
  C20      1.0000 0.08620  0.74930  0.46901  Biso   1.000  C
  C21      1.0000 0.32290  0.63421  0.50677  Biso   1.000  C
  C22      1.0000 0.00790  0.91026  0.36407  Biso   1.000  C
  C23      1.0000 0.97600  0.94729  0.31598  Biso   1.000  C
  C24      1.0000 0.99660  0.04398  0.31654  Biso   1.000  C
  C25      1.0000 0.04920  0.10363  0.36519  Biso   1.000  C
  C26      1.0000 0.08120  0.06660  0.41328  Biso   1.000  C
  C27      1.0000 0.06050  0.96990  0.41272  Biso   1.000  C
  C28      1.0000 0.07120  0.20610  0.36480  Biso   1.000  C
  C29      1.0000 0.59085  0.67671  0.24315  Biso   1.000  C
  C30      1.0000 0.55660  0.70740  0.29817  Biso   1.000  C
  C31      1.0000 0.54280  0.64900  0.33849  Biso   1.000  C
  C32      1.0000 0.56380  0.55690  0.32585  Biso   1.000  C
  C33      1.0000 0.59590  0.52420  0.27111  Biso   1.000  C
  C34      1.0000 0.60870  0.58310  0.23080  Biso   1.000  C
  C35      1.0000 0.54880  0.49322  0.36943  Biso   1.000  C
  C36      1.0000 0.71600  0.74104  0.14062  Biso   1.000  C
  C37      1.0000 0.71650  0.65551  0.10193  Biso   1.000  C
  C38      1.0000 0.79200  0.64493  0.06202  Biso   1.000  C
  C39      1.0000 0.86790  0.72016  0.05805  Biso   1.000  C
  C40      1.0000 0.86980  0.80550  0.09614  Biso   1.000  C
  C41      1.0000 0.79520  0.81450  0.13681  Biso   1.000  C
  C42      1.0000 0.94320  0.71120  0.01100  Biso   1.000  C
  C43      1.0000 0.47910  0.72642  0.13683  Biso   1.000  C
  C44      1.0000 0.39220  0.66260  0.14623  Biso   1.000  C
  C45      1.0000 0.30650  0.63590  0.10623  Biso   1.000  C
  C46      1.0000 0.30230  0.67221  0.05569  Biso   1.000  C
  C47      1.0000 0.38680  0.73670  0.04577  Biso   1.000  C
  C48      1.0000 0.47320  0.76210  0.08547  Biso   1.000  C
  C49      1.0000 0.20820  0.64190  0.01229  Biso   1.000  C
  C50      1.0000 0.61470  0.87985  0.22830  Biso   1.000  C
  C51      1.0000 0.69090  0.90870  0.27550  Biso   1.000  C
  C52      1.0000 0.69590  0.99410  0.31166  Biso   1.000  C
  C53      1.0000 0.62450  0.05394  0.30143  Biso   1.000  C
  C54      1.0000 0.55170  0.03000  0.25427  Biso   1.000  C
  C55      1.0000 0.54630  0.94250  0.21858  Biso   1.000  C
  C56      1.0000 0.62040  0.14370  0.34271  Biso   1.000  C
  C57      1.0000 0.67170  0.76250  0.71430  Biso   1.000  C
  C58      1.0000 0.60060  0.72030  0.75950  Biso   1.000  C
  C59      1.0000 0.10180  0.35470  0.19000  Biso   1.000  C
  C60      1.0000 0.17650  0.45370  0.21350  Biso   1.000  C
  C61      1.0000 0.14660  0.24071  0.59221  Biso   1.000  C
  C62      1.0000 0.17170  0.32829  0.57421  Biso   1.000  C
  C63      1.0000 0.25290  0.34427  0.53888  Biso   1.000  C
  C64      1.0000 0.31180  0.27114  0.51933  Biso   1.000  C
  C65      1.0000 0.29030  0.18520  0.53746  Biso   1.000  C
  C66      1.0000 0.20870  0.17000  0.57386  Biso   1.000  C
  C67      1.0000 0.39160  0.28540  0.47630  Biso   1.000  C
  C68      1.0000 0.04270  0.29160  0.70906  Biso   1.000  C
  C69      1.0000 0.11790  0.37260  0.72222  Biso   1.000  C
  C70      1.0000 0.11910  0.43470  0.77448  Biso   1.000  C
  C71      1.0000 0.04980  0.41570  0.81581  Biso   1.000  C
  C72      1.0000 0.97970  0.33300  0.80507  Biso   1.000  C
  C73      1.0000 0.97540  0.27220  0.75179  Biso   1.000  C
  C74      1.0000 0.04870  0.48560  0.87150  Biso   1.000  C
  C75      1.0000 0.91660  0.26297  0.59218  Biso   1.000  C
  C76      1.0000 0.83910  0.31020  0.61963  Biso   1.000  C
  C77      1.0000 0.76360  0.34480  0.58774  Biso   1.000  C
  C78      1.0000 0.76050  0.33084  0.52748  Biso   1.000  C
  C79      1.0000 0.83710  0.28230  0.49965  Biso   1.000  C
  C80      1.0000 0.91380  0.25070  0.53099  Biso   1.000  C
  C81      1.0000 0.67710  0.36579  0.49323  Biso   1.000  C
  C82      1.0000 0.99210  0.08974  0.63593  Biso   1.000  C
  C83      1.0000 0.02400  0.05271  0.68402  Biso   1.000  C
  C84      1.0000 0.00340  0.95602  0.68346  Biso   1.000  C
  C85      1.0000 0.95080  0.89637  0.63481  Biso   1.000  C
  C86      1.0000 0.91880  0.93340  0.58672  Biso   1.000  C
  C87      1.0000 0.93950  0.03010  0.58728  Biso   1.000  C
  C88      1.0000 0.92880  0.79390  0.63520  Biso   1.000  C
  C89      1.0000 0.40915  0.32329  0.75685  Biso   1.000  C
  C90      1.0000 0.44340  0.29260  0.70183  Biso   1.000  C
  C91      1.0000 0.45720  0.35100  0.66151  Biso   1.000  C
  C92      1.0000 0.43620  0.44310  0.67415  Biso   1.000  C
  C93      1.0000 0.40410  0.47580  0.72889  Biso   1.000  C
  C94      1.0000 0.39130  0.41690  0.76920  Biso   1.000  C
  C95      1.0000 0.45120  0.50678  0.63057  Biso   1.000  C
  C96      1.0000 0.28400  0.25896  0.85938  Biso   1.000  C
  C97      1.0000 0.28350  0.34449  0.89807  Biso   1.000  C
  C98      1.0000 0.20800  0.35507  0.93798  Biso   1.000  C
  C99      1.0000 0.13210  0.27984  0.94195  Biso   1.000  C
  C100     1.0000 0.13020  0.19450  0.90386  Biso   1.000  C
  C101     1.0000 0.20480  0.18550  0.86319  Biso   1.000  C
  C102     1.0000 0.05680  0.28880  0.98900  Biso   1.000  C
  C103     1.0000 0.52090  0.27358  0.86317  Biso   1.000  C
  C104     1.0000 0.60780  0.33740  0.85377  Biso   1.000  C
  C105     1.0000 0.69350  0.36410  0.89377  Biso   1.000  C
  C106     1.0000 0.69770  0.32779  0.94431  Biso   1.000  C
  C107     1.0000 0.61320  0.26330  0.95423  Biso   1.000  C
  C108     1.0000 0.52680  0.23790  0.91453  Biso   1.000  C
  C109     1.0000 0.79180  0.35810  0.98771  Biso   1.000  C
  C110     1.0000 0.38530  0.12015  0.77170  Biso   1.000  C
  C111     1.0000 0.30910  0.09130  0.72450  Biso   1.000  C
  C112     1.0000 0.30410  0.00590  0.68834  Biso   1.000  C
  C113     1.0000 0.37550  0.94606  0.69857  Biso   1.000  C
  C114     1.0000 0.44830  0.97000  0.74573  Biso   1.000  C
  C115     1.0000 0.45370  0.05750  0.78142  Biso   1.000  C
  C116     1.0000 0.37960  0.85630  0.65729  Biso   1.000  C
  C117     1.0000 0.32830  0.23750  0.28570  Biso   1.000  C
  C118     1.0000 0.39940  0.27970  0.24050  Biso   1.000  C
  C119     1.0000 0.89820  0.64530  0.81000  Biso   1.000  C
  C120     1.0000 0.82350  0.54630  0.78650  Biso   1.000  C
  O1       1.0000 0.58312  0.63328  0.53724  Biso   1.000  O
  O2       1.0000 0.56922  0.78335  0.55031  Biso   1.000  O
  O3       1.0000 0.91005  0.43101  0.12852  Biso   1.000  O
  O4       1.0000 0.99576  0.54464  0.08774  Biso   1.000  O
  O5       1.0000 0.35705  0.55947  0.48612  Biso   1.000  O
  O6       1.0000 0.35575  0.68514  0.55612  Biso   1.000  O
  O7       1.0000 0.04620  0.23730  0.31985  Biso   1.000  O
  O8       1.0000 0.11600  0.25930  0.41112  Biso   1.000  O
  O9       1.0000 0.52626  0.52820  0.41948  Biso   1.000  O
  O10      1.0000 0.55860  0.40791  0.35267  Biso   1.000  O
  O11      1.0000 0.95422  0.62963  0.98368  Biso   1.000  O
  O12      1.0000 0.99070  0.78229  0.99493  Biso   1.000  O
  O13      1.0000 0.15702  0.56248  0.01278  Biso   1.000  O
  O14      1.0000 0.18938  0.69847  0.97946  Biso   1.000  O
  O15      1.0000 0.68820  0.15914  0.38808  Biso   1.000  O
  O16      1.0000 0.55696  0.19677  0.33467  Biso   1.000  O
  O17      1.0000 0.63780  0.72100  0.65864  Biso   1.000  O
  O18      1.0000 0.08040  0.31600  0.12906  Biso   1.000  O
  O19      1.0000 0.86500  0.21770  0.11980  Biso   1.000  O
  O20      1.0000 0.41688  0.36672  0.46276  Biso   1.000  O
  O21      1.0000 0.43078  0.21665  0.44969  Biso   1.000  O
  O22      1.0000 0.08995  0.56899  0.87148  Biso   1.000  O
  O23      1.0000 0.00424  0.45536  0.91226  Biso   1.000  O
  O24      1.0000 0.64295  0.44053  0.51388  Biso   1.000  O
  O25      1.0000 0.64425  0.31486  0.44388  Biso   1.000  O
  O26      1.0000 0.95380  0.76270  0.68015  Biso   1.000  O
  O27      1.0000 0.88400  0.74070  0.58888  Biso   1.000  O
  O28      1.0000 0.47374  0.47180  0.58052  Biso   1.000  O
  O29      1.0000 0.44140  0.59209  0.64733  Biso   1.000  O
  O30      1.0000 0.04578  0.37037  0.01632  Biso   1.000  O
  O31      1.0000 0.00930  0.21771  0.00507  Biso   1.000  O
  O32      1.0000 0.84298  0.43752  0.98722  Biso   1.000  O
  O33      1.0000 0.81062  0.30153  0.02054  Biso   1.000  O
  O34      1.0000 0.31180  0.84086  0.61192  Biso   1.000  O
  O35      1.0000 0.44304  0.80323  0.66533  Biso   1.000  O
  O36      1.0000 0.36220  0.27900  0.34136  Biso   1.000  O
  O37      1.0000 0.91960  0.68400  0.87094  Biso   1.000  O
  O38      1.0000 0.13500  0.78230  0.88020  Biso   1.000  O
