data_image0
_cell_length_a       13.6691
_cell_length_b       14.569
_cell_length_c       23.6874
_cell_angle_alpha    90
_cell_angle_beta     90
_cell_angle_gamma    114.939

_symmetry_space_group_name_H-M    P 1
_symmetry_int_tables_number       1

loop_
  _symmetry_equiv_pos_as_xyz
  'x, y, z'

loop_
  _atom_site_label
  _atom_site_occupancy
  _atom_site_fract_x
  _atom_site_fract_y
  _atom_site_fract_z
  _atom_site_thermal_displace_type
  _atom_site_B_iso_or_equiv
  _atom_site_type_symbol
  Ca1      1.0000 0.01577  0.00132  0.65686  Biso   1.000  Ca
  Ca2      1.0000 0.98423  0.49868  0.15686  Biso   1.000  Ca
  Ca3      1.0000 0.98423  0.99868  0.34314  Biso   1.000  Ca
  Ca4      1.0000 0.01577  0.50132  0.84314  Biso   1.000  Ca
  Ca5      1.0000 0.00000  0.00000  0.50000  Biso   1.000  Ca
  Ca6      1.0000 0.00000  0.50000  0.00000  Biso   1.000  Ca
  Si1      1.0000 0.70684  0.37959  0.50911  Biso   1.000  Si
  Si2      1.0000 0.29316  0.12041  0.00911  Biso   1.000  Si
  Si3      1.0000 0.29316  0.62041  0.49089  Biso   1.000  Si
  Si4      1.0000 0.70684  0.87959  0.99089  Biso   1.000  Si
  H1       1.0000 0.87400  0.41740  0.59970  Biso   1.000  H
  H2       1.0000 0.96760  0.32760  0.63460  Biso   1.000  H
  H3       1.0000 0.81910  0.10630  0.51970  Biso   1.000  H
  H4       1.0000 0.72610  0.19600  0.48510  Biso   1.000  H
  H5       1.0000 0.58910  0.20750  0.58360  Biso   1.000  H
  H6       1.0000 0.40990  0.11400  0.61030  Biso   1.000  H
  H7       1.0000 0.31930  0.28710  0.50770  Biso   1.000  H
  H8       1.0000 0.49940  0.38850  0.48760  Biso   1.000  H
  H9       1.0000 0.88790  0.57130  0.48020  Biso   1.000  H
  H10      1.0000 0.95980  0.73670  0.51310  Biso   1.000  H
  H11      1.0000 0.71820  0.66040  0.62690  Biso   1.000  H
  H12      1.0000 0.64590  0.49430  0.59340  Biso   1.000  H
  H13      1.0000 0.56420  0.31990  0.40580  Biso   1.000  H
  H14      1.0000 0.59530  0.32690  0.30840  Biso   1.000  H
  H15      1.0000 0.91670  0.43700  0.33720  Biso   1.000  H
  H16      1.0000 0.88530  0.42610  0.43390  Biso   1.000  H
  H17      1.0000 0.72900  0.37700  0.18240  Biso   1.000  H
  H18      1.0000 0.07670  0.78820  0.62690  Biso   1.000  H
  H19      1.0000 0.11590  0.76030  0.68530  Biso   1.000  H
  H20      1.0000 0.25650  0.82200  0.62240  Biso   1.000  H
  H21      1.0000 0.28130  0.89740  0.67500  Biso   1.000  H
  H22      1.0000 0.24200  0.92490  0.61640  Biso   1.000  H
  H23      1.0000 0.96830  0.12850  0.76470  Biso   1.000  H
  H24      1.0000 0.87510  0.04900  0.80320  Biso   1.000  H
  H25      1.0000 0.83310  0.17990  0.77800  Biso   1.000  H
  H26      1.0000 0.74700  0.07640  0.75130  Biso   1.000  H
  H27      1.0000 0.84020  0.15590  0.71250  Biso   1.000  H
  H28      1.0000 0.12600  0.08260  0.09970  Biso   1.000  H
  H29      1.0000 0.03240  0.17240  0.13460  Biso   1.000  H
  H30      1.0000 0.18090  0.39370  0.01970  Biso   1.000  H
  H31      1.0000 0.27390  0.30400  0.98510  Biso   1.000  H
  H32      1.0000 0.41090  0.29250  0.08360  Biso   1.000  H
  H33      1.0000 0.59010  0.38600  0.11030  Biso   1.000  H
  H34      1.0000 0.68070  0.21290  0.00770  Biso   1.000  H
  H35      1.0000 0.50060  0.11150  0.98760  Biso   1.000  H
  H36      1.0000 0.11210  0.92870  0.98020  Biso   1.000  H
  H37      1.0000 0.04020  0.76330  0.01310  Biso   1.000  H
  H38      1.0000 0.28180  0.83960  0.12690  Biso   1.000  H
  H39      1.0000 0.35410  0.00570  0.09340  Biso   1.000  H
  H40      1.0000 0.43580  0.18010  0.90580  Biso   1.000  H
  H41      1.0000 0.40470  0.17310  0.80840  Biso   1.000  H
  H42      1.0000 0.08330  0.06300  0.83720  Biso   1.000  H
  H43      1.0000 0.11470  0.07390  0.93390  Biso   1.000  H
  H44      1.0000 0.27100  0.12300  0.68240  Biso   1.000  H
  H45      1.0000 0.92330  0.71180  0.12690  Biso   1.000  H
  H46      1.0000 0.88410  0.73970  0.18530  Biso   1.000  H
  H47      1.0000 0.74350  0.67800  0.12240  Biso   1.000  H
  H48      1.0000 0.71870  0.60260  0.17500  Biso   1.000  H
  H49      1.0000 0.75800  0.57510  0.11640  Biso   1.000  H
  H50      1.0000 0.03170  0.37150  0.26470  Biso   1.000  H
  H51      1.0000 0.12490  0.45100  0.30320  Biso   1.000  H
  H52      1.0000 0.16690  0.32010  0.27800  Biso   1.000  H
  H53      1.0000 0.25300  0.42360  0.25130  Biso   1.000  H
  H54      1.0000 0.15980  0.34410  0.21250  Biso   1.000  H
  H55      1.0000 0.12600  0.58260  0.40030  Biso   1.000  H
  H56      1.0000 0.03240  0.67240  0.36540  Biso   1.000  H
  H57      1.0000 0.18090  0.89370  0.48030  Biso   1.000  H
  H58      1.0000 0.27390  0.80400  0.51490  Biso   1.000  H
  H59      1.0000 0.41090  0.79250  0.41640  Biso   1.000  H
  H60      1.0000 0.59010  0.88600  0.38970  Biso   1.000  H
  H61      1.0000 0.68070  0.71290  0.49230  Biso   1.000  H
  H62      1.0000 0.50060  0.61150  0.51240  Biso   1.000  H
  H63      1.0000 0.11210  0.42870  0.51980  Biso   1.000  H
  H64      1.0000 0.04020  0.26330  0.48690  Biso   1.000  H
  H65      1.0000 0.28180  0.33960  0.37310  Biso   1.000  H
  H66      1.0000 0.35410  0.50570  0.40660  Biso   1.000  H
  H67      1.0000 0.43580  0.68010  0.59420  Biso   1.000  H
  H68      1.0000 0.40470  0.67310  0.69160  Biso   1.000  H
  H69      1.0000 0.08330  0.56300  0.66280  Biso   1.000  H
  H70      1.0000 0.11470  0.57390  0.56610  Biso   1.000  H
  H71      1.0000 0.27100  0.62300  0.81760  Biso   1.000  H
  H72      1.0000 0.92330  0.21180  0.37310  Biso   1.000  H
  H73      1.0000 0.88410  0.23970  0.31470  Biso   1.000  H
  H74      1.0000 0.74350  0.17800  0.37760  Biso   1.000  H
  H75      1.0000 0.71870  0.10260  0.32500  Biso   1.000  H
  H76      1.0000 0.75800  0.07510  0.38360  Biso   1.000  H
  H77      1.0000 0.03170  0.87150  0.23530  Biso   1.000  H
  H78      1.0000 0.12490  0.95100  0.19680  Biso   1.000  H
  H79      1.0000 0.16690  0.82010  0.22200  Biso   1.000  H
  H80      1.0000 0.25300  0.92360  0.24870  Biso   1.000  H
  H81      1.0000 0.15980  0.84410  0.28750  Biso   1.000  H
  H82      1.0000 0.87400  0.91740  0.90030  Biso   1.000  H
  H83      1.0000 0.96760  0.82760  0.86540  Biso   1.000  H
  H84      1.0000 0.81910  0.60630  0.98030  Biso   1.000  H
  H85      1.0000 0.72610  0.69600  0.01490  Biso   1.000  H
  H86      1.0000 0.58910  0.70750  0.91640  Biso   1.000  H
  H87      1.0000 0.40990  0.61400  0.88970  Biso   1.000  H
  H88      1.0000 0.31930  0.78710  0.99230  Biso   1.000  H
  H89      1.0000 0.49940  0.88850  0.01240  Biso   1.000  H
  H90      1.0000 0.88790  0.07130  0.01980  Biso   1.000  H
  H91      1.0000 0.95980  0.23670  0.98690  Biso   1.000  H
  H92      1.0000 0.71820  0.16040  0.87310  Biso   1.000  H
  H93      1.0000 0.64590  0.99430  0.90660  Biso   1.000  H
  H94      1.0000 0.56420  0.81990  0.09420  Biso   1.000  H
  H95      1.0000 0.59530  0.82690  0.19160  Biso   1.000  H
  H96      1.0000 0.91670  0.93700  0.16280  Biso   1.000  H
  H97      1.0000 0.88530  0.92610  0.06610  Biso   1.000  H
  H98      1.0000 0.72900  0.87700  0.31760  Biso   1.000  H
  H99      1.0000 0.07670  0.28820  0.87310  Biso   1.000  H
  H100     1.0000 0.11590  0.26030  0.81470  Biso   1.000  H
  H101     1.0000 0.25650  0.32200  0.87760  Biso   1.000  H
  H102     1.0000 0.28130  0.39740  0.82500  Biso   1.000  H
  H103     1.0000 0.24200  0.42490  0.88360  Biso   1.000  H
  H104     1.0000 0.96830  0.62850  0.73530  Biso   1.000  H
  H105     1.0000 0.87510  0.54900  0.69680  Biso   1.000  H
  H106     1.0000 0.83310  0.67990  0.72200  Biso   1.000  H
  H107     1.0000 0.74700  0.57640  0.74870  Biso   1.000  H
  H108     1.0000 0.84020  0.65590  0.78750  Biso   1.000  H
  C1       1.0000 0.78938  0.31632  0.53890  Biso   1.000  C
  C2       1.0000 0.86220  0.35405  0.58338  Biso   1.000  C
  C3       1.0000 0.91800  0.30055  0.60433  Biso   1.000  C
  C4       1.0000 0.90125  0.20763  0.58109  Biso   1.000  C
  C5       1.0000 0.83000  0.16930  0.53626  Biso   1.000  C
  C6       1.0000 0.77488  0.22299  0.51569  Biso   1.000  C
  C7       1.0000 0.95848  0.14699  0.60336  Biso   1.000  C
  C8       1.0000 0.56374  0.30735  0.53164  Biso   1.000  C
  C9       1.0000 0.53458  0.22471  0.56864  Biso   1.000  C
  C10      1.0000 0.42751  0.16756  0.58380  Biso   1.000  C
  C11      1.0000 0.34662  0.18880  0.56021  Biso   1.000  C
  C12      1.0000 0.37420  0.27147  0.52376  Biso   1.000  C
  C13      1.0000 0.48148  0.33065  0.51101  Biso   1.000  C
  C14      1.0000 0.23049  0.12182  0.57081  Biso   1.000  C
  C15      1.0000 0.75982  0.51416  0.53358  Biso   1.000  C
  C16      1.0000 0.85299  0.58866  0.51026  Biso   1.000  C
  C17      1.0000 0.89603  0.68752  0.52981  Biso   1.000  C
  C18      1.0000 0.84677  0.71492  0.57340  Biso   1.000  C
  C19      1.0000 0.75311  0.64238  0.59706  Biso   1.000  C
  C20      1.0000 0.71026  0.54314  0.57707  Biso   1.000  C
  C21      1.0000 0.89550  0.82153  0.59516  Biso   1.000  C
  C22      1.0000 0.72130  0.37556  0.43041  Biso   1.000  C
  C23      1.0000 0.63611  0.34430  0.39211  Biso   1.000  C
  C24      1.0000 0.65431  0.34815  0.33399  Biso   1.000  C
  C25      1.0000 0.75899  0.38317  0.31374  Biso   1.000  C
  C26      1.0000 0.84501  0.41295  0.35112  Biso   1.000  C
  C27      1.0000 0.82617  0.40764  0.40858  Biso   1.000  C
  C28      1.0000 0.78519  0.39190  0.25247  Biso   1.000  C
  C29      1.0000 0.12270  0.81710  0.66037  Biso   1.000  C
  C30      1.0000 0.23490  0.86970  0.64204  Biso   1.000  C
  C31      1.0000 0.89260  0.07680  0.76446  Biso   1.000  C
  C32      1.0000 0.82250  0.12630  0.75041  Biso   1.000  C
  C33      1.0000 0.21062  0.18368  0.03890  Biso   1.000  C
  C34      1.0000 0.13780  0.14595  0.08338  Biso   1.000  C
  C35      1.0000 0.08200  0.19945  0.10433  Biso   1.000  C
  C36      1.0000 0.09875  0.29237  0.08109  Biso   1.000  C
  C37      1.0000 0.17000  0.33070  0.03626  Biso   1.000  C
  C38      1.0000 0.22512  0.27701  0.01569  Biso   1.000  C
  C39      1.0000 0.04152  0.35301  0.10336  Biso   1.000  C
  C40      1.0000 0.43626  0.19265  0.03164  Biso   1.000  C
  C41      1.0000 0.46542  0.27529  0.06864  Biso   1.000  C
  C42      1.0000 0.57249  0.33244  0.08380  Biso   1.000  C
  C43      1.0000 0.65338  0.31120  0.06021  Biso   1.000  C
  C44      1.0000 0.62580  0.22853  0.02376  Biso   1.000  C
  C45      1.0000 0.51852  0.16935  0.01101  Biso   1.000  C
  C46      1.0000 0.76951  0.37818  0.07081  Biso   1.000  C
  C47      1.0000 0.24018  0.98584  0.03358  Biso   1.000  C
  C48      1.0000 0.14701  0.91134  0.01026  Biso   1.000  C
  C49      1.0000 0.10397  0.81248  0.02981  Biso   1.000  C
  C50      1.0000 0.15323  0.78508  0.07340  Biso   1.000  C
  C51      1.0000 0.24689  0.85762  0.09706  Biso   1.000  C
  C52      1.0000 0.28974  0.95686  0.07707  Biso   1.000  C
  C53      1.0000 0.10450  0.67847  0.09516  Biso   1.000  C
  C54      1.0000 0.27870  0.12444  0.93041  Biso   1.000  C
  C55      1.0000 0.36389  0.15570  0.89211  Biso   1.000  C
  C56      1.0000 0.34569  0.15185  0.83399  Biso   1.000  C
  C57      1.0000 0.24101  0.11683  0.81374  Biso   1.000  C
  C58      1.0000 0.15499  0.08705  0.85112  Biso   1.000  C
  C59      1.0000 0.17383  0.09236  0.90858  Biso   1.000  C
  C60      1.0000 0.21481  0.10810  0.75247  Biso   1.000  C
  C61      1.0000 0.87730  0.68290  0.16037  Biso   1.000  C
  C62      1.0000 0.76510  0.63030  0.14204  Biso   1.000  C
  C63      1.0000 0.10740  0.42320  0.26446  Biso   1.000  C
  C64      1.0000 0.17750  0.37370  0.25041  Biso   1.000  C
  C65      1.0000 0.21062  0.68368  0.46110  Biso   1.000  C
  C66      1.0000 0.13780  0.64595  0.41662  Biso   1.000  C
  C67      1.0000 0.08200  0.69945  0.39567  Biso   1.000  C
  C68      1.0000 0.09875  0.79237  0.41891  Biso   1.000  C
  C69      1.0000 0.17000  0.83070  0.46374  Biso   1.000  C
  C70      1.0000 0.22512  0.77701  0.48431  Biso   1.000  C
  C71      1.0000 0.04152  0.85301  0.39664  Biso   1.000  C
  C72      1.0000 0.43626  0.69265  0.46836  Biso   1.000  C
  C73      1.0000 0.46542  0.77529  0.43136  Biso   1.000  C
  C74      1.0000 0.57249  0.83244  0.41620  Biso   1.000  C
  C75      1.0000 0.65338  0.81120  0.43979  Biso   1.000  C
  C76      1.0000 0.62580  0.72853  0.47624  Biso   1.000  C
  C77      1.0000 0.51852  0.66935  0.48899  Biso   1.000  C
  C78      1.0000 0.76951  0.87818  0.42919  Biso   1.000  C
  C79      1.0000 0.24018  0.48584  0.46642  Biso   1.000  C
  C80      1.0000 0.14701  0.41134  0.48974  Biso   1.000  C
  C81      1.0000 0.10397  0.31248  0.47019  Biso   1.000  C
  C82      1.0000 0.15323  0.28508  0.42660  Biso   1.000  C
  C83      1.0000 0.24689  0.35762  0.40294  Biso   1.000  C
  C84      1.0000 0.28974  0.45686  0.42293  Biso   1.000  C
  C85      1.0000 0.10450  0.17847  0.40484  Biso   1.000  C
  C86      1.0000 0.27870  0.62444  0.56959  Biso   1.000  C
  C87      1.0000 0.36389  0.65570  0.60789  Biso   1.000  C
  C88      1.0000 0.34569  0.65185  0.66601  Biso   1.000  C
  C89      1.0000 0.24101  0.61683  0.68626  Biso   1.000  C
  C90      1.0000 0.15499  0.58705  0.64888  Biso   1.000  C
  C91      1.0000 0.17383  0.59236  0.59142  Biso   1.000  C
  C92      1.0000 0.21481  0.60810  0.74753  Biso   1.000  C
  C93      1.0000 0.87730  0.18290  0.33963  Biso   1.000  C
  C94      1.0000 0.76510  0.13030  0.35796  Biso   1.000  C
  C95      1.0000 0.10740  0.92320  0.23554  Biso   1.000  C
  C96      1.0000 0.17750  0.87370  0.24959  Biso   1.000  C
  C97      1.0000 0.78938  0.81632  0.96110  Biso   1.000  C
  C98      1.0000 0.86220  0.85405  0.91662  Biso   1.000  C
  C99      1.0000 0.91800  0.80055  0.89567  Biso   1.000  C
  C100     1.0000 0.90125  0.70763  0.91891  Biso   1.000  C
  C101     1.0000 0.83000  0.66930  0.96374  Biso   1.000  C
  C102     1.0000 0.77488  0.72299  0.98431  Biso   1.000  C
  C103     1.0000 0.95848  0.64699  0.89664  Biso   1.000  C
  C104     1.0000 0.56374  0.80735  0.96836  Biso   1.000  C
  C105     1.0000 0.53458  0.72471  0.93136  Biso   1.000  C
  C106     1.0000 0.42751  0.66756  0.91620  Biso   1.000  C
  C107     1.0000 0.34662  0.68880  0.93979  Biso   1.000  C
  C108     1.0000 0.37420  0.77147  0.97624  Biso   1.000  C
  C109     1.0000 0.48148  0.83065  0.98899  Biso   1.000  C
  C110     1.0000 0.23049  0.62182  0.92919  Biso   1.000  C
  C111     1.0000 0.75982  0.01416  0.96642  Biso   1.000  C
  C112     1.0000 0.85299  0.08866  0.98974  Biso   1.000  C
  C113     1.0000 0.89603  0.18752  0.97019  Biso   1.000  C
  C114     1.0000 0.84677  0.21492  0.92660  Biso   1.000  C
  C115     1.0000 0.75311  0.14238  0.90294  Biso   1.000  C
  C116     1.0000 0.71026  0.04314  0.92293  Biso   1.000  C
  C117     1.0000 0.89550  0.32153  0.90484  Biso   1.000  C
  C118     1.0000 0.72130  0.87556  0.06959  Biso   1.000  C
  C119     1.0000 0.63611  0.84430  0.10789  Biso   1.000  C
  C120     1.0000 0.65431  0.84815  0.16601  Biso   1.000  C
  C121     1.0000 0.75899  0.88317  0.18626  Biso   1.000  C
  C122     1.0000 0.84501  0.91295  0.14888  Biso   1.000  C
  C123     1.0000 0.82617  0.90764  0.09142  Biso   1.000  C
  C124     1.0000 0.78519  0.89190  0.24753  Biso   1.000  C
  C125     1.0000 0.12270  0.31710  0.83963  Biso   1.000  C
  C126     1.0000 0.23490  0.36970  0.85796  Biso   1.000  C
  C127     1.0000 0.89260  0.57680  0.73554  Biso   1.000  C
  C128     1.0000 0.82250  0.62630  0.74959  Biso   1.000  C
  O1       1.0000 0.01316  0.17290  0.64744  Biso   1.000  O
  O2       1.0000 0.94679  0.06745  0.57669  Biso   1.000  O
  O3       1.0000 0.16900  0.10199  0.52915  Biso   1.000  O
  O4       1.0000 0.19985  0.08789  0.62017  Biso   1.000  O
  O5       1.0000 0.85183  0.84496  0.63586  Biso   1.000  O
  O6       1.0000 0.98213  0.88459  0.57228  Biso   1.000  O
  O7       1.0000 0.87741  0.41743  0.23617  Biso   1.000  O
  O8       1.0000 0.70335  0.37141  0.21792  Biso   1.000  O
  O9       1.0000 0.08337  0.88090  0.68986  Biso   1.000  O
  O10      1.0000 0.88463  0.99612  0.72665  Biso   1.000  O
  O11      1.0000 0.98684  0.32710  0.14744  Biso   1.000  O
  O12      1.0000 0.05321  0.43255  0.07669  Biso   1.000  O
  O13      1.0000 0.83100  0.39801  0.02915  Biso   1.000  O
  O14      1.0000 0.80015  0.41211  0.12017  Biso   1.000  O
  O15      1.0000 0.14817  0.65504  0.13586  Biso   1.000  O
  O16      1.0000 0.01787  0.61541  0.07228  Biso   1.000  O
  O17      1.0000 0.12259  0.08257  0.73617  Biso   1.000  O
  O18      1.0000 0.29665  0.12859  0.71792  Biso   1.000  O
  O19      1.0000 0.91663  0.61910  0.18986  Biso   1.000  O
  O20      1.0000 0.11537  0.50388  0.22665  Biso   1.000  O
  O21      1.0000 0.98684  0.82710  0.35256  Biso   1.000  O
  O22      1.0000 0.05321  0.93255  0.42331  Biso   1.000  O
  O23      1.0000 0.83100  0.89801  0.47085  Biso   1.000  O
  O24      1.0000 0.80015  0.91211  0.37983  Biso   1.000  O
  O25      1.0000 0.14817  0.15504  0.36414  Biso   1.000  O
  O26      1.0000 0.01787  0.11541  0.42772  Biso   1.000  O
  O27      1.0000 0.12259  0.58257  0.76383  Biso   1.000  O
  O28      1.0000 0.29665  0.62859  0.78208  Biso   1.000  O
  O29      1.0000 0.91663  0.11910  0.31014  Biso   1.000  O
  O30      1.0000 0.11537  0.00388  0.27335  Biso   1.000  O
  O31      1.0000 0.01316  0.67290  0.85256  Biso   1.000  O
  O32      1.0000 0.94679  0.56745  0.92331  Biso   1.000  O
  O33      1.0000 0.16900  0.60199  0.97085  Biso   1.000  O
  O34      1.0000 0.19985  0.58789  0.87983  Biso   1.000  O
  O35      1.0000 0.85183  0.34496  0.86414  Biso   1.000  O
  O36      1.0000 0.98213  0.38459  0.92772  Biso   1.000  O
  O37      1.0000 0.87741  0.91743  0.26383  Biso   1.000  O
  O38      1.0000 0.70335  0.87141  0.28208  Biso   1.000  O
  O39      1.0000 0.08337  0.38090  0.81014  Biso   1.000  O
  O40      1.0000 0.88463  0.49612  0.77335  Biso   1.000  O
