data_image0
_cell_length_a       9.15705
_cell_length_b       9.157
_cell_length_c       33.3706
_cell_angle_alpha    94.307
_cell_angle_beta     94.307
_cell_angle_gamma    116.913

_symmetry_space_group_name_H-M    P 1
_symmetry_int_tables_number       1

loop_
  _symmetry_equiv_pos_as_xyz
  'x, y, z'

loop_
  _atom_site_label
  _atom_site_occupancy
  _atom_site_fract_x
  _atom_site_fract_y
  _atom_site_fract_z
  _atom_site_thermal_displace_type
  _atom_site_B_iso_or_equiv
  _atom_site_type_symbol
  Cs1      1.0000 0.88502  0.32486  0.64098  Biso   1.000  Cs
  Cs2      1.0000 0.75596  0.81612  0.64098  Biso   1.000  Cs
  Cs3      1.0000 0.67514  0.11498  0.85902  Biso   1.000  Cs
  Cs4      1.0000 0.18388  0.24404  0.85902  Biso   1.000  Cs
  Cs5      1.0000 0.11498  0.67514  0.35902  Biso   1.000  Cs
  Cs6      1.0000 0.24404  0.18388  0.35902  Biso   1.000  Cs
  Cs7      1.0000 0.32486  0.88502  0.14098  Biso   1.000  Cs
  Cs8      1.0000 0.81612  0.75596  0.14098  Biso   1.000  Cs
  Cs9      1.0000 0.27934  0.52934  0.55868  Biso   1.000  Cs
  Cs10     1.0000 0.47066  0.72066  0.94132  Biso   1.000  Cs
  Cs11     1.0000 0.72066  0.47066  0.44132  Biso   1.000  Cs
  Cs12     1.0000 0.52934  0.27934  0.05868  Biso   1.000  Cs
  Ag1      1.0000 0.91895  0.10983  0.47706  Biso   1.000  Ag
  Ag2      1.0000 0.30649  0.23469  0.64894  Biso   1.000  Ag
  Ag3      1.0000 0.55811  0.86723  0.47706  Biso   1.000  Ag
  Ag4      1.0000 0.34245  0.91425  0.64894  Biso   1.000  Ag
  Ag5      1.0000 0.89017  0.08105  0.02294  Biso   1.000  Ag
  Ag6      1.0000 0.76531  0.69351  0.85106  Biso   1.000  Ag
  Ag7      1.0000 0.13277  0.44189  0.02294  Biso   1.000  Ag
  Ag8      1.0000 0.08575  0.65755  0.85106  Biso   1.000  Ag
  Ag9      1.0000 0.08105  0.89017  0.52294  Biso   1.000  Ag
  Ag10     1.0000 0.69351  0.76531  0.35106  Biso   1.000  Ag
  Ag11     1.0000 0.44189  0.13277  0.52294  Biso   1.000  Ag
  Ag12     1.0000 0.65755  0.08575  0.35106  Biso   1.000  Ag
  Ag13     1.0000 0.10983  0.91895  0.97706  Biso   1.000  Ag
  Ag14     1.0000 0.23469  0.30649  0.14894  Biso   1.000  Ag
  Ag15     1.0000 0.86723  0.55811  0.97706  Biso   1.000  Ag
  Ag16     1.0000 0.91425  0.34245  0.14894  Biso   1.000  Ag
  Ag17     1.0000 0.77931  0.52931  0.55862  Biso   1.000  Ag
  Ag18     1.0000 0.47069  0.22069  0.94138  Biso   1.000  Ag
  Ag19     1.0000 0.22069  0.47069  0.44138  Biso   1.000  Ag
  Ag20     1.0000 0.52931  0.77931  0.05862  Biso   1.000  Ag
  Ag21     1.0000 0.87500  0.12500  0.75000  Biso   1.000  Ag
  Ag22     1.0000 0.12500  0.87500  0.25000  Biso   1.000  Ag
  Ag23     1.0000 0.37500  0.62500  0.75000  Biso   1.000  Ag
  Ag24     1.0000 0.62500  0.37500  0.25000  Biso   1.000  Ag
  C1       1.0000 0.50510  0.34510  0.61540  Biso   1.000  C
  C2       1.0000 0.86750  0.28010  0.51120  Biso   1.000  C
  C3       1.0000 0.94310  0.93790  0.43560  Biso   1.000  C
  C4       1.0000 0.13950  0.16310  0.69120  Biso   1.000  C
  C5       1.0000 0.11030  0.77030  0.61540  Biso   1.000  C
  C6       1.0000 0.64370  0.73110  0.51120  Biso   1.000  C
  C7       1.0000 0.49250  0.99770  0.43560  Biso   1.000  C
  C8       1.0000 0.55170  0.02810  0.69120  Biso   1.000  C
  C9       1.0000 0.65490  0.49490  0.88460  Biso   1.000  C
  C10      1.0000 0.71990  0.13250  0.98880  Biso   1.000  C
  C11      1.0000 0.06210  0.05690  0.06440  Biso   1.000  C
  C12      1.0000 0.83690  0.86050  0.80880  Biso   1.000  C
  C13      1.0000 0.22970  0.88970  0.88460  Biso   1.000  C
  C14      1.0000 0.26890  0.35630  0.98880  Biso   1.000  C
  C15      1.0000 0.00230  0.50750  0.06440  Biso   1.000  C
  C16      1.0000 0.97190  0.44830  0.80880  Biso   1.000  C
  C17      1.0000 0.49490  0.65490  0.38460  Biso   1.000  C
  C18      1.0000 0.13250  0.71990  0.48880  Biso   1.000  C
  C19      1.0000 0.05690  0.06210  0.56440  Biso   1.000  C
  C20      1.0000 0.86050  0.83690  0.30880  Biso   1.000  C
  C21      1.0000 0.88970  0.22970  0.38460  Biso   1.000  C
  C22      1.0000 0.35630  0.26890  0.48880  Biso   1.000  C
  C23      1.0000 0.50750  0.00230  0.56440  Biso   1.000  C
  C24      1.0000 0.44830  0.97190  0.30880  Biso   1.000  C
  C25      1.0000 0.34510  0.50510  0.11540  Biso   1.000  C
  C26      1.0000 0.28010  0.86750  0.01120  Biso   1.000  C
  C27      1.0000 0.93790  0.94310  0.93560  Biso   1.000  C
  C28      1.0000 0.16310  0.13950  0.19120  Biso   1.000  C
  C29      1.0000 0.77030  0.11030  0.11540  Biso   1.000  C
  C30      1.0000 0.73110  0.64370  0.01120  Biso   1.000  C
  C31      1.0000 0.99770  0.49250  0.93560  Biso   1.000  C
  C32      1.0000 0.02810  0.55170  0.19120  Biso   1.000  C
  C33      1.0000 0.34120  0.59120  0.68240  Biso   1.000  C
  C34      1.0000 0.40880  0.65880  0.81760  Biso   1.000  C
  C35      1.0000 0.65880  0.40880  0.31760  Biso   1.000  C
  C36      1.0000 0.59120  0.34120  0.18240  Biso   1.000  C
  N1       1.0000 0.60840  0.41940  0.59700  Biso   1.000  N
  N2       1.0000 0.82970  0.36790  0.52960  Biso   1.000  N
  N3       1.0000 0.95530  0.85830  0.41200  Biso   1.000  N
  N4       1.0000 0.04300  0.14500  0.71340  Biso   1.000  N
  N5       1.0000 0.98860  0.67760  0.59700  Biso   1.000  N
  N6       1.0000 0.69990  0.66170  0.52960  Biso   1.000  N
  N7       1.0000 0.45670  0.05370  0.41200  Biso   1.000  N
  N8       1.0000 0.67040  0.06840  0.71340  Biso   1.000  N
  N9       1.0000 0.58060  0.39160  0.90300  Biso   1.000  N
  N10      1.0000 0.63210  0.17030  0.97040  Biso   1.000  N
  N11      1.0000 0.14170  0.04470  0.08800  Biso   1.000  N
  N12      1.0000 0.85500  0.95700  0.78660  Biso   1.000  N
  N13      1.0000 0.32240  0.01140  0.90300  Biso   1.000  N
  N14      1.0000 0.33830  0.30010  0.97040  Biso   1.000  N
  N15      1.0000 0.94630  0.54330  0.08800  Biso   1.000  N
  N16      1.0000 0.93160  0.32960  0.78660  Biso   1.000  N
  N17      1.0000 0.39160  0.58060  0.40300  Biso   1.000  N
  N18      1.0000 0.17030  0.63210  0.47040  Biso   1.000  N
  N19      1.0000 0.04470  0.14170  0.58800  Biso   1.000  N
  N20      1.0000 0.95700  0.85500  0.28660  Biso   1.000  N
  N21      1.0000 0.01140  0.32240  0.40300  Biso   1.000  N
  N22      1.0000 0.30010  0.33830  0.47040  Biso   1.000  N
  N23      1.0000 0.54330  0.94630  0.58800  Biso   1.000  N
  N24      1.0000 0.32960  0.93160  0.28660  Biso   1.000  N
  N25      1.0000 0.41940  0.60840  0.09700  Biso   1.000  N
  N26      1.0000 0.36790  0.82970  0.02960  Biso   1.000  N
  N27      1.0000 0.85830  0.95530  0.91200  Biso   1.000  N
  N28      1.0000 0.14500  0.04300  0.21340  Biso   1.000  N
  N29      1.0000 0.67760  0.98860  0.09700  Biso   1.000  N
  N30      1.0000 0.66170  0.69990  0.02960  Biso   1.000  N
  N31      1.0000 0.05370  0.45670  0.91200  Biso   1.000  N
  N32      1.0000 0.06840  0.67040  0.21340  Biso   1.000  N
  N33      1.0000 0.32690  0.57690  0.65380  Biso   1.000  N
  N34      1.0000 0.42310  0.67310  0.84620  Biso   1.000  N
  N35      1.0000 0.67310  0.42310  0.34620  Biso   1.000  N
  N36      1.0000 0.57690  0.32690  0.15380  Biso   1.000  N
