data_image0
_cell_length_a       15.585
_cell_length_b       19.237
_cell_length_c       25.305
_cell_angle_alpha    90
_cell_angle_beta     90
_cell_angle_gamma    90

_symmetry_space_group_name_H-M    P 1
_symmetry_int_tables_number       1

loop_
  _symmetry_equiv_pos_as_xyz
  'x, y, z'

loop_
  _atom_site_label
  _atom_site_occupancy
  _atom_site_fract_x
  _atom_site_fract_y
  _atom_site_fract_z
  _atom_site_thermal_displace_type
  _atom_site_B_iso_or_equiv
  _atom_site_type_symbol
  Zn1      1.0000 0.55378  0.33754  0.22887  Biso   1.000  Zn
  Zn2      1.0000 0.52841  0.46438  0.45049  Biso   1.000  Zn
  Zn3      1.0000 0.94622  0.66246  0.72887  Biso   1.000  Zn
  Zn4      1.0000 0.97159  0.53562  0.95049  Biso   1.000  Zn
  Zn5      1.0000 0.44622  0.83754  0.77113  Biso   1.000  Zn
  Zn6      1.0000 0.47159  0.96438  0.54951  Biso   1.000  Zn
  Zn7      1.0000 0.05378  0.16246  0.27113  Biso   1.000  Zn
  Zn8      1.0000 0.02841  0.03562  0.04951  Biso   1.000  Zn
  Zn9      1.0000 0.44622  0.66246  0.77113  Biso   1.000  Zn
  Zn10     1.0000 0.47159  0.53562  0.54951  Biso   1.000  Zn
  Zn11     1.0000 0.05378  0.33754  0.27113  Biso   1.000  Zn
  Zn12     1.0000 0.02841  0.46438  0.04951  Biso   1.000  Zn
  Zn13     1.0000 0.55378  0.16246  0.22887  Biso   1.000  Zn
  Zn14     1.0000 0.52841  0.03562  0.45049  Biso   1.000  Zn
  Zn15     1.0000 0.94622  0.83754  0.72887  Biso   1.000  Zn
  Zn16     1.0000 0.97159  0.96438  0.95049  Biso   1.000  Zn
  Zn17     1.0000 0.68421  0.25000  0.30386  Biso   1.000  Zn
  Zn18     1.0000 0.81579  0.75000  0.80386  Biso   1.000  Zn
  Zn19     1.0000 0.31579  0.75000  0.69614  Biso   1.000  Zn
  Zn20     1.0000 0.18421  0.25000  0.19614  Biso   1.000  Zn
  H1       1.0000 0.51700  0.54910  0.00560  Biso   1.000  H
  H2       1.0000 0.65300  0.31550  0.45070  Biso   1.000  H
  H3       1.0000 0.73160  0.31640  0.41200  Biso   1.000  H
  H4       1.0000 0.70650  0.38380  0.44320  Biso   1.000  H
  H5       1.0000 0.41360  0.44690  0.32040  Biso   1.000  H
  H6       1.0000 0.47180  0.50880  0.33870  Biso   1.000  H
  H7       1.0000 0.47940  0.48000  0.28090  Biso   1.000  H
  H8       1.0000 0.46630  0.35570  0.64710  Biso   1.000  H
  H9       1.0000 0.71310  0.55870  0.99870  Biso   1.000  H
  H10      1.0000 0.53150  0.50640  0.10410  Biso   1.000  H
  H11      1.0000 0.77020  0.43220  0.11700  Biso   1.000  H
  H12      1.0000 0.80330  0.38670  0.32450  Biso   1.000  H
  H13      1.0000 0.88310  0.40830  0.29050  Biso   1.000  H
  H14      1.0000 0.79630  0.38950  0.26270  Biso   1.000  H
  H15      1.0000 0.98300  0.45090  0.50560  Biso   1.000  H
  H16      1.0000 0.84700  0.68450  0.95070  Biso   1.000  H
  H17      1.0000 0.76840  0.68360  0.91200  Biso   1.000  H
  H18      1.0000 0.79350  0.61620  0.94320  Biso   1.000  H
  H19      1.0000 0.08640  0.55310  0.82040  Biso   1.000  H
  H20      1.0000 0.02820  0.49120  0.83870  Biso   1.000  H
  H21      1.0000 0.02060  0.52000  0.78090  Biso   1.000  H
  H22      1.0000 0.03370  0.64430  0.14710  Biso   1.000  H
  H23      1.0000 0.78690  0.44130  0.49870  Biso   1.000  H
  H24      1.0000 0.96850  0.49360  0.60410  Biso   1.000  H
  H25      1.0000 0.72980  0.56780  0.61700  Biso   1.000  H
  H26      1.0000 0.69670  0.61330  0.82450  Biso   1.000  H
  H27      1.0000 0.61690  0.59170  0.79050  Biso   1.000  H
  H28      1.0000 0.70370  0.61050  0.76270  Biso   1.000  H
  H29      1.0000 0.48300  0.04910  0.99440  Biso   1.000  H
  H30      1.0000 0.34700  0.81550  0.54930  Biso   1.000  H
  H31      1.0000 0.26840  0.81640  0.58800  Biso   1.000  H
  H32      1.0000 0.29350  0.88380  0.55680  Biso   1.000  H
  H33      1.0000 0.58640  0.94690  0.67960  Biso   1.000  H
  H34      1.0000 0.52820  0.00880  0.66130  Biso   1.000  H
  H35      1.0000 0.52060  0.98000  0.71910  Biso   1.000  H
  H36      1.0000 0.53370  0.85570  0.35290  Biso   1.000  H
  H37      1.0000 0.28690  0.05870  0.00130  Biso   1.000  H
  H38      1.0000 0.46850  0.00640  0.89590  Biso   1.000  H
  H39      1.0000 0.22980  0.93220  0.88300  Biso   1.000  H
  H40      1.0000 0.19670  0.88670  0.67550  Biso   1.000  H
  H41      1.0000 0.11690  0.90830  0.70950  Biso   1.000  H
  H42      1.0000 0.20370  0.88950  0.73730  Biso   1.000  H
  H43      1.0000 0.01700  0.95090  0.49440  Biso   1.000  H
  H44      1.0000 0.15300  0.18450  0.04930  Biso   1.000  H
  H45      1.0000 0.23160  0.18360  0.08800  Biso   1.000  H
  H46      1.0000 0.20650  0.11620  0.05680  Biso   1.000  H
  H47      1.0000 0.91360  0.05310  0.17960  Biso   1.000  H
  H48      1.0000 0.97180  0.99120  0.16130  Biso   1.000  H
  H49      1.0000 0.97940  0.02000  0.21910  Biso   1.000  H
  H50      1.0000 0.96630  0.14430  0.85290  Biso   1.000  H
  H51      1.0000 0.21310  0.94130  0.50130  Biso   1.000  H
  H52      1.0000 0.03150  0.99360  0.39590  Biso   1.000  H
  H53      1.0000 0.27020  0.06780  0.38300  Biso   1.000  H
  H54      1.0000 0.30330  0.11330  0.17550  Biso   1.000  H
  H55      1.0000 0.38310  0.09170  0.20950  Biso   1.000  H
  H56      1.0000 0.29630  0.11050  0.23730  Biso   1.000  H
  H57      1.0000 0.48300  0.45090  0.99440  Biso   1.000  H
  H58      1.0000 0.34700  0.68450  0.54930  Biso   1.000  H
  H59      1.0000 0.26840  0.68360  0.58800  Biso   1.000  H
  H60      1.0000 0.29350  0.61620  0.55680  Biso   1.000  H
  H61      1.0000 0.58640  0.55310  0.67960  Biso   1.000  H
  H62      1.0000 0.52820  0.49120  0.66130  Biso   1.000  H
  H63      1.0000 0.52060  0.52000  0.71910  Biso   1.000  H
  H64      1.0000 0.53370  0.64430  0.35290  Biso   1.000  H
  H65      1.0000 0.28690  0.44130  0.00130  Biso   1.000  H
  H66      1.0000 0.46850  0.49360  0.89590  Biso   1.000  H
  H67      1.0000 0.22980  0.56780  0.88300  Biso   1.000  H
  H68      1.0000 0.19670  0.61330  0.67550  Biso   1.000  H
  H69      1.0000 0.11690  0.59170  0.70950  Biso   1.000  H
  H70      1.0000 0.20370  0.61050  0.73730  Biso   1.000  H
  H71      1.0000 0.01700  0.54910  0.49440  Biso   1.000  H
  H72      1.0000 0.15300  0.31550  0.04930  Biso   1.000  H
  H73      1.0000 0.23160  0.31640  0.08800  Biso   1.000  H
  H74      1.0000 0.20650  0.38380  0.05680  Biso   1.000  H
  H75      1.0000 0.91360  0.44690  0.17960  Biso   1.000  H
  H76      1.0000 0.97180  0.50880  0.16130  Biso   1.000  H
  H77      1.0000 0.97940  0.48000  0.21910  Biso   1.000  H
  H78      1.0000 0.96630  0.35570  0.85290  Biso   1.000  H
  H79      1.0000 0.21310  0.55870  0.50130  Biso   1.000  H
  H80      1.0000 0.03150  0.50640  0.39590  Biso   1.000  H
  H81      1.0000 0.27020  0.43220  0.38300  Biso   1.000  H
  H82      1.0000 0.30330  0.38670  0.17550  Biso   1.000  H
  H83      1.0000 0.38310  0.40830  0.20950  Biso   1.000  H
  H84      1.0000 0.29630  0.38950  0.23730  Biso   1.000  H
  H85      1.0000 0.51700  0.95090  0.00560  Biso   1.000  H
  H86      1.0000 0.65300  0.18450  0.45070  Biso   1.000  H
  H87      1.0000 0.73160  0.18360  0.41200  Biso   1.000  H
  H88      1.0000 0.70650  0.11620  0.44320  Biso   1.000  H
  H89      1.0000 0.41360  0.05310  0.32040  Biso   1.000  H
  H90      1.0000 0.47180  0.99120  0.33870  Biso   1.000  H
  H91      1.0000 0.47940  0.02000  0.28090  Biso   1.000  H
  H92      1.0000 0.46630  0.14430  0.64710  Biso   1.000  H
  H93      1.0000 0.71310  0.94130  0.99870  Biso   1.000  H
  H94      1.0000 0.53150  0.99360  0.10410  Biso   1.000  H
  H95      1.0000 0.77020  0.06780  0.11700  Biso   1.000  H
  H96      1.0000 0.80330  0.11330  0.32450  Biso   1.000  H
  H97      1.0000 0.88310  0.09170  0.29050  Biso   1.000  H
  H98      1.0000 0.79630  0.11050  0.26270  Biso   1.000  H
  H99      1.0000 0.98300  0.04910  0.50560  Biso   1.000  H
  H100     1.0000 0.84700  0.81550  0.95070  Biso   1.000  H
  H101     1.0000 0.76840  0.81640  0.91200  Biso   1.000  H
  H102     1.0000 0.79350  0.88380  0.94320  Biso   1.000  H
  H103     1.0000 0.08640  0.94690  0.82040  Biso   1.000  H
  H104     1.0000 0.02820  0.00880  0.83870  Biso   1.000  H
  H105     1.0000 0.02060  0.98000  0.78090  Biso   1.000  H
  H106     1.0000 0.03370  0.85570  0.14710  Biso   1.000  H
  H107     1.0000 0.78690  0.05870  0.49870  Biso   1.000  H
  H108     1.0000 0.96850  0.00640  0.60410  Biso   1.000  H
  H109     1.0000 0.72980  0.93220  0.61700  Biso   1.000  H
  H110     1.0000 0.69670  0.88670  0.82450  Biso   1.000  H
  H111     1.0000 0.61690  0.90830  0.79050  Biso   1.000  H
  H112     1.0000 0.70370  0.88950  0.76270  Biso   1.000  H
  H113     1.0000 0.66590  0.25000  0.20990  Biso   1.000  H
  H114     1.0000 0.48520  0.25000  0.73850  Biso   1.000  H
  H115     1.0000 0.50830  0.25000  0.51240  Biso   1.000  H
  H116     1.0000 0.83410  0.75000  0.70990  Biso   1.000  H
  H117     1.0000 0.01480  0.75000  0.23850  Biso   1.000  H
  H118     1.0000 0.99170  0.75000  0.01240  Biso   1.000  H
  H119     1.0000 0.33410  0.75000  0.79010  Biso   1.000  H
  H120     1.0000 0.51480  0.75000  0.26150  Biso   1.000  H
  H121     1.0000 0.49170  0.75000  0.48760  Biso   1.000  H
  H122     1.0000 0.16590  0.25000  0.29010  Biso   1.000  H
  H123     1.0000 0.98520  0.25000  0.76150  Biso   1.000  H
  H124     1.0000 0.00830  0.25000  0.98760  Biso   1.000  H
  C1       1.0000 0.68460  0.34310  0.42580  Biso   1.000  C
  C2       1.0000 0.62730  0.36430  0.38190  Biso   1.000  C
  C3       1.0000 0.53560  0.41780  0.33490  Biso   1.000  C
  C4       1.0000 0.46930  0.46780  0.31720  Biso   1.000  C
  C5       1.0000 0.49290  0.38020  0.54660  Biso   1.000  C
  C6       1.0000 0.48880  0.31320  0.57450  Biso   1.000  C
  C7       1.0000 0.47450  0.31390  0.62940  Biso   1.000  C
  C8       1.0000 0.84470  0.48920  0.03350  Biso   1.000  C
  C9       1.0000 0.75490  0.49540  0.05380  Biso   1.000  C
  C10      1.0000 0.69700  0.53340  0.02850  Biso   1.000  C
  C11      1.0000 0.61470  0.53600  0.04540  Biso   1.000  C
  C12      1.0000 0.58710  0.50170  0.09130  Biso   1.000  C
  C13      1.0000 0.64720  0.46090  0.11620  Biso   1.000  C
  C14      1.0000 0.72990  0.45860  0.09870  Biso   1.000  C
  C15      1.0000 0.62060  0.41850  0.16360  Biso   1.000  C
  C16      1.0000 0.83340  0.37890  0.29190  Biso   1.000  C
  C17      1.0000 0.86040  0.30500  0.28880  Biso   1.000  C
  C18      1.0000 0.81540  0.65690  0.92580  Biso   1.000  C
  C19      1.0000 0.87270  0.63570  0.88190  Biso   1.000  C
  C20      1.0000 0.96440  0.58220  0.83490  Biso   1.000  C
  C21      1.0000 0.03070  0.53220  0.81720  Biso   1.000  C
  C22      1.0000 0.00710  0.61980  0.04660  Biso   1.000  C
  C23      1.0000 0.01120  0.68680  0.07450  Biso   1.000  C
  C24      1.0000 0.02550  0.68610  0.12940  Biso   1.000  C
  C25      1.0000 0.65530  0.51080  0.53350  Biso   1.000  C
  C26      1.0000 0.74510  0.50460  0.55380  Biso   1.000  C
  C27      1.0000 0.80300  0.46660  0.52850  Biso   1.000  C
  C28      1.0000 0.88530  0.46400  0.54540  Biso   1.000  C
  C29      1.0000 0.91290  0.49830  0.59130  Biso   1.000  C
  C30      1.0000 0.85280  0.53910  0.61620  Biso   1.000  C
  C31      1.0000 0.77010  0.54140  0.59870  Biso   1.000  C
  C32      1.0000 0.87940  0.58150  0.66360  Biso   1.000  C
  C33      1.0000 0.66660  0.62110  0.79190  Biso   1.000  C
  C34      1.0000 0.63960  0.69500  0.78880  Biso   1.000  C
  C35      1.0000 0.31540  0.84310  0.57420  Biso   1.000  C
  C36      1.0000 0.37270  0.86430  0.61810  Biso   1.000  C
  C37      1.0000 0.46440  0.91780  0.66510  Biso   1.000  C
  C38      1.0000 0.53070  0.96780  0.68280  Biso   1.000  C
  C39      1.0000 0.50710  0.88020  0.45340  Biso   1.000  C
  C40      1.0000 0.51120  0.81320  0.42550  Biso   1.000  C
  C41      1.0000 0.52550  0.81390  0.37060  Biso   1.000  C
  C42      1.0000 0.15530  0.98920  0.96650  Biso   1.000  C
  C43      1.0000 0.24510  0.99540  0.94620  Biso   1.000  C
  C44      1.0000 0.30300  0.03340  0.97150  Biso   1.000  C
  C45      1.0000 0.38530  0.03600  0.95460  Biso   1.000  C
  C46      1.0000 0.41290  0.00170  0.90870  Biso   1.000  C
  C47      1.0000 0.35280  0.96090  0.88380  Biso   1.000  C
  C48      1.0000 0.27010  0.95860  0.90130  Biso   1.000  C
  C49      1.0000 0.37940  0.91850  0.83640  Biso   1.000  C
  C50      1.0000 0.16660  0.87890  0.70810  Biso   1.000  C
  C51      1.0000 0.13960  0.80500  0.71120  Biso   1.000  C
  C52      1.0000 0.18460  0.15690  0.07420  Biso   1.000  C
  C53      1.0000 0.12730  0.13570  0.11810  Biso   1.000  C
  C54      1.0000 0.03560  0.08220  0.16510  Biso   1.000  C
  C55      1.0000 0.96930  0.03220  0.18280  Biso   1.000  C
  C56      1.0000 0.99290  0.11980  0.95340  Biso   1.000  C
  C57      1.0000 0.98880  0.18680  0.92550  Biso   1.000  C
  C58      1.0000 0.97450  0.18610  0.87060  Biso   1.000  C
  C59      1.0000 0.34470  0.01080  0.46650  Biso   1.000  C
  C60      1.0000 0.25490  0.00460  0.44620  Biso   1.000  C
  C61      1.0000 0.19700  0.96660  0.47150  Biso   1.000  C
  C62      1.0000 0.11470  0.96400  0.45460  Biso   1.000  C
  C63      1.0000 0.08710  0.99830  0.40870  Biso   1.000  C
  C64      1.0000 0.14720  0.03910  0.38380  Biso   1.000  C
  C65      1.0000 0.22990  0.04140  0.40130  Biso   1.000  C
  C66      1.0000 0.12060  0.08150  0.33640  Biso   1.000  C
  C67      1.0000 0.33340  0.12110  0.20810  Biso   1.000  C
  C68      1.0000 0.36040  0.19500  0.21120  Biso   1.000  C
  C69      1.0000 0.31540  0.65690  0.57420  Biso   1.000  C
  C70      1.0000 0.37270  0.63570  0.61810  Biso   1.000  C
  C71      1.0000 0.46440  0.58220  0.66510  Biso   1.000  C
  C72      1.0000 0.53070  0.53220  0.68280  Biso   1.000  C
  C73      1.0000 0.50710  0.61980  0.45340  Biso   1.000  C
  C74      1.0000 0.51120  0.68680  0.42550  Biso   1.000  C
  C75      1.0000 0.52550  0.68610  0.37060  Biso   1.000  C
  C76      1.0000 0.15530  0.51080  0.96650  Biso   1.000  C
  C77      1.0000 0.24510  0.50460  0.94620  Biso   1.000  C
  C78      1.0000 0.30300  0.46660  0.97150  Biso   1.000  C
  C79      1.0000 0.38530  0.46400  0.95460  Biso   1.000  C
  C80      1.0000 0.41290  0.49830  0.90870  Biso   1.000  C
  C81      1.0000 0.35280  0.53910  0.88380  Biso   1.000  C
  C82      1.0000 0.27010  0.54140  0.90130  Biso   1.000  C
  C83      1.0000 0.37940  0.58150  0.83640  Biso   1.000  C
  C84      1.0000 0.16660  0.62110  0.70810  Biso   1.000  C
  C85      1.0000 0.13960  0.69500  0.71120  Biso   1.000  C
  C86      1.0000 0.18460  0.34310  0.07420  Biso   1.000  C
  C87      1.0000 0.12730  0.36430  0.11810  Biso   1.000  C
  C88      1.0000 0.03560  0.41780  0.16510  Biso   1.000  C
  C89      1.0000 0.96930  0.46780  0.18280  Biso   1.000  C
  C90      1.0000 0.99290  0.38020  0.95340  Biso   1.000  C
  C91      1.0000 0.98880  0.31320  0.92550  Biso   1.000  C
  C92      1.0000 0.97450  0.31390  0.87060  Biso   1.000  C
  C93      1.0000 0.34470  0.48920  0.46650  Biso   1.000  C
  C94      1.0000 0.25490  0.49540  0.44620  Biso   1.000  C
  C95      1.0000 0.19700  0.53340  0.47150  Biso   1.000  C
  C96      1.0000 0.11470  0.53600  0.45460  Biso   1.000  C
  C97      1.0000 0.08710  0.50170  0.40870  Biso   1.000  C
  C98      1.0000 0.14720  0.46090  0.38380  Biso   1.000  C
  C99      1.0000 0.22990  0.45860  0.40130  Biso   1.000  C
  C100     1.0000 0.12060  0.41850  0.33640  Biso   1.000  C
  C101     1.0000 0.33340  0.37890  0.20810  Biso   1.000  C
  C102     1.0000 0.36040  0.30500  0.21120  Biso   1.000  C
  C103     1.0000 0.68460  0.15690  0.42580  Biso   1.000  C
  C104     1.0000 0.62730  0.13570  0.38190  Biso   1.000  C
  C105     1.0000 0.53560  0.08220  0.33490  Biso   1.000  C
  C106     1.0000 0.46930  0.03220  0.31720  Biso   1.000  C
  C107     1.0000 0.49290  0.11980  0.54660  Biso   1.000  C
  C108     1.0000 0.48880  0.18680  0.57450  Biso   1.000  C
  C109     1.0000 0.47450  0.18610  0.62940  Biso   1.000  C
  C110     1.0000 0.84470  0.01080  0.03350  Biso   1.000  C
  C111     1.0000 0.75490  0.00460  0.05380  Biso   1.000  C
  C112     1.0000 0.69700  0.96660  0.02850  Biso   1.000  C
  C113     1.0000 0.61470  0.96400  0.04540  Biso   1.000  C
  C114     1.0000 0.58710  0.99830  0.09130  Biso   1.000  C
  C115     1.0000 0.64720  0.03910  0.11620  Biso   1.000  C
  C116     1.0000 0.72990  0.04140  0.09870  Biso   1.000  C
  C117     1.0000 0.62060  0.08150  0.16360  Biso   1.000  C
  C118     1.0000 0.83340  0.12110  0.29190  Biso   1.000  C
  C119     1.0000 0.86040  0.19500  0.28880  Biso   1.000  C
  C120     1.0000 0.81540  0.84310  0.92580  Biso   1.000  C
  C121     1.0000 0.87270  0.86430  0.88190  Biso   1.000  C
  C122     1.0000 0.96440  0.91780  0.83490  Biso   1.000  C
  C123     1.0000 0.03070  0.96780  0.81720  Biso   1.000  C
  C124     1.0000 0.00710  0.88020  0.04660  Biso   1.000  C
  C125     1.0000 0.01120  0.81320  0.07450  Biso   1.000  C
  C126     1.0000 0.02550  0.81390  0.12940  Biso   1.000  C
  C127     1.0000 0.65530  0.98920  0.53350  Biso   1.000  C
  C128     1.0000 0.74510  0.99540  0.55380  Biso   1.000  C
  C129     1.0000 0.80300  0.03340  0.52850  Biso   1.000  C
  C130     1.0000 0.88530  0.03600  0.54540  Biso   1.000  C
  C131     1.0000 0.91290  0.00170  0.59130  Biso   1.000  C
  C132     1.0000 0.85280  0.96090  0.61620  Biso   1.000  C
  C133     1.0000 0.77010  0.95860  0.59870  Biso   1.000  C
  C134     1.0000 0.87940  0.91850  0.66360  Biso   1.000  C
  C135     1.0000 0.66660  0.87890  0.79190  Biso   1.000  C
  C136     1.0000 0.63960  0.80500  0.78880  Biso   1.000  C
  C137     1.0000 0.49700  0.25000  0.54850  Biso   1.000  C
  C138     1.0000 0.47300  0.25000  0.65740  Biso   1.000  C
  C139     1.0000 0.00300  0.75000  0.04850  Biso   1.000  C
  C140     1.0000 0.02700  0.75000  0.15740  Biso   1.000  C
  C141     1.0000 0.50300  0.75000  0.45150  Biso   1.000  C
  C142     1.0000 0.52700  0.75000  0.34260  Biso   1.000  C
  C143     1.0000 0.99700  0.25000  0.95150  Biso   1.000  C
  C144     1.0000 0.97300  0.25000  0.84260  Biso   1.000  C
  N1       1.0000 0.62870  0.33460  0.33430  Biso   1.000  N
  N2       1.0000 0.57010  0.36950  0.30430  Biso   1.000  N
  N3       1.0000 0.56910  0.41540  0.38390  Biso   1.000  N
  N4       1.0000 0.94090  0.28520  0.27880  Biso   1.000  N
  N5       1.0000 0.87130  0.66540  0.83430  Biso   1.000  N
  N6       1.0000 0.92990  0.63050  0.80430  Biso   1.000  N
  N7       1.0000 0.93090  0.58460  0.88390  Biso   1.000  N
  N8       1.0000 0.55910  0.71480  0.77880  Biso   1.000  N
  N9       1.0000 0.37130  0.83460  0.66570  Biso   1.000  N
  N10      1.0000 0.42990  0.86950  0.69570  Biso   1.000  N
  N11      1.0000 0.43090  0.91540  0.61610  Biso   1.000  N
  N12      1.0000 0.05910  0.78520  0.72120  Biso   1.000  N
  N13      1.0000 0.12870  0.16540  0.16570  Biso   1.000  N
  N14      1.0000 0.07010  0.13050  0.19570  Biso   1.000  N
  N15      1.0000 0.06910  0.08460  0.11610  Biso   1.000  N
  N16      1.0000 0.44090  0.21480  0.22120  Biso   1.000  N
  N17      1.0000 0.37130  0.66540  0.66570  Biso   1.000  N
  N18      1.0000 0.42990  0.63050  0.69570  Biso   1.000  N
  N19      1.0000 0.43090  0.58460  0.61610  Biso   1.000  N
  N20      1.0000 0.05910  0.71480  0.72120  Biso   1.000  N
  N21      1.0000 0.12870  0.33460  0.16570  Biso   1.000  N
  N22      1.0000 0.07010  0.36950  0.19570  Biso   1.000  N
  N23      1.0000 0.06910  0.41540  0.11610  Biso   1.000  N
  N24      1.0000 0.44090  0.28520  0.22120  Biso   1.000  N
  N25      1.0000 0.62870  0.16540  0.33430  Biso   1.000  N
  N26      1.0000 0.57010  0.13050  0.30430  Biso   1.000  N
  N27      1.0000 0.56910  0.08460  0.38390  Biso   1.000  N
  N28      1.0000 0.94090  0.21480  0.27880  Biso   1.000  N
  N29      1.0000 0.87130  0.83460  0.83430  Biso   1.000  N
  N30      1.0000 0.92990  0.86950  0.80430  Biso   1.000  N
  N31      1.0000 0.93090  0.91540  0.88390  Biso   1.000  N
  N32      1.0000 0.55910  0.78520  0.77880  Biso   1.000  N
  N33      1.0000 0.80900  0.25000  0.29610  Biso   1.000  N
  N34      1.0000 0.69100  0.75000  0.79610  Biso   1.000  N
  N35      1.0000 0.19100  0.75000  0.70390  Biso   1.000  N
  N36      1.0000 0.30900  0.25000  0.20390  Biso   1.000  N
  O1       1.0000 0.51550  0.37890  0.49830  Biso   1.000  O
  O2       1.0000 0.47580  0.43400  0.57190  Biso   1.000  O
  O3       1.0000 0.89940  0.46170  0.06210  Biso   1.000  O
  O4       1.0000 0.85950  0.51740  0.98960  Biso   1.000  O
  O5       1.0000 0.67490  0.39470  0.19290  Biso   1.000  O
  O6       1.0000 0.54350  0.41060  0.17290  Biso   1.000  O
  O7       1.0000 0.55290  0.57520  0.01850  Biso   1.000  O
  O8       1.0000 0.98450  0.62110  0.99830  Biso   1.000  O
  O9       1.0000 0.02420  0.56600  0.07190  Biso   1.000  O
  O10      1.0000 0.60060  0.53830  0.56210  Biso   1.000  O
  O11      1.0000 0.64050  0.48260  0.48960  Biso   1.000  O
  O12      1.0000 0.82510  0.60530  0.69290  Biso   1.000  O
  O13      1.0000 0.95650  0.58940  0.67290  Biso   1.000  O
  O14      1.0000 0.94710  0.42480  0.51850  Biso   1.000  O
  O15      1.0000 0.48450  0.87890  0.50170  Biso   1.000  O
  O16      1.0000 0.52420  0.93400  0.42810  Biso   1.000  O
  O17      1.0000 0.10060  0.96170  0.93790  Biso   1.000  O
  O18      1.0000 0.14050  0.01740  0.01040  Biso   1.000  O
  O19      1.0000 0.32510  0.89470  0.80710  Biso   1.000  O
  O20      1.0000 0.45650  0.91060  0.82710  Biso   1.000  O
  O21      1.0000 0.44710  0.07520  0.98150  Biso   1.000  O
  O22      1.0000 0.01550  0.12110  0.00170  Biso   1.000  O
  O23      1.0000 0.97580  0.06600  0.92810  Biso   1.000  O
  O24      1.0000 0.39940  0.03830  0.43790  Biso   1.000  O
  O25      1.0000 0.35950  0.98260  0.51040  Biso   1.000  O
  O26      1.0000 0.17490  0.10530  0.30710  Biso   1.000  O
  O27      1.0000 0.04350  0.08940  0.32710  Biso   1.000  O
  O28      1.0000 0.05290  0.92480  0.48150  Biso   1.000  O
  O29      1.0000 0.48450  0.62110  0.50170  Biso   1.000  O
  O30      1.0000 0.52420  0.56600  0.42810  Biso   1.000  O
  O31      1.0000 0.10060  0.53830  0.93790  Biso   1.000  O
  O32      1.0000 0.14050  0.48260  0.01040  Biso   1.000  O
  O33      1.0000 0.32510  0.60530  0.80710  Biso   1.000  O
  O34      1.0000 0.45650  0.58940  0.82710  Biso   1.000  O
  O35      1.0000 0.44710  0.42480  0.98150  Biso   1.000  O
  O36      1.0000 0.01550  0.37890  0.00170  Biso   1.000  O
  O37      1.0000 0.97580  0.43400  0.92810  Biso   1.000  O
  O38      1.0000 0.39940  0.46170  0.43790  Biso   1.000  O
  O39      1.0000 0.35950  0.51740  0.51040  Biso   1.000  O
  O40      1.0000 0.17490  0.39470  0.30710  Biso   1.000  O
  O41      1.0000 0.04350  0.41060  0.32710  Biso   1.000  O
  O42      1.0000 0.05290  0.57520  0.48150  Biso   1.000  O
  O43      1.0000 0.51550  0.12110  0.49830  Biso   1.000  O
  O44      1.0000 0.47580  0.06600  0.57190  Biso   1.000  O
  O45      1.0000 0.89940  0.03830  0.06210  Biso   1.000  O
  O46      1.0000 0.85950  0.98260  0.98960  Biso   1.000  O
  O47      1.0000 0.67490  0.10530  0.19290  Biso   1.000  O
  O48      1.0000 0.54350  0.08940  0.17290  Biso   1.000  O
  O49      1.0000 0.55290  0.92480  0.01850  Biso   1.000  O
  O50      1.0000 0.98450  0.87890  0.99830  Biso   1.000  O
  O51      1.0000 0.02420  0.93400  0.07190  Biso   1.000  O
  O52      1.0000 0.60060  0.96170  0.56210  Biso   1.000  O
  O53      1.0000 0.64050  0.01740  0.48960  Biso   1.000  O
  O54      1.0000 0.82510  0.89470  0.69290  Biso   1.000  O
  O55      1.0000 0.95650  0.91060  0.67290  Biso   1.000  O
  O56      1.0000 0.94710  0.07520  0.51850  Biso   1.000  O
  O57      1.0000 0.62480  0.25000  0.23480  Biso   1.000  O
  O58      1.0000 0.45460  0.25000  0.70880  Biso   1.000  O
  O59      1.0000 0.87520  0.75000  0.73480  Biso   1.000  O
  O60      1.0000 0.04540  0.75000  0.20880  Biso   1.000  O
  O61      1.0000 0.37520  0.75000  0.76520  Biso   1.000  O
  O62      1.0000 0.54540  0.75000  0.29120  Biso   1.000  O
  O63      1.0000 0.12480  0.25000  0.26520  Biso   1.000  O
  O64      1.0000 0.95460  0.25000  0.79120  Biso   1.000  O
