data_image0
_cell_length_a       10.7666
_cell_length_b       16.462
_cell_length_c       17.912
_cell_angle_alpha    90
_cell_angle_beta     91.098
_cell_angle_gamma    90

_symmetry_space_group_name_H-M    "P 1"
_symmetry_int_tables_number       1

loop_
  _symmetry_equiv_pos_as_xyz
  'x, y, z'

loop_
  _atom_site_label
  _atom_site_occupancy
  _atom_site_fract_x
  _atom_site_fract_y
  _atom_site_fract_z
  _atom_site_thermal_displace_type
  _atom_site_B_iso_or_equiv
  _atom_site_type_symbol
  Zn1      1.0000 0.07851  0.55672  0.91113  Biso   1.000  Zn
  Zn2      1.0000 0.61572  0.54334  0.91616  Biso   1.000  Zn
  P1       1.0000 0.85449  0.43135  0.91450  Biso   1.000  P
  P2       1.0000 0.15533  0.95375  0.59053  Biso   1.000  P
  O1       1.0000 0.71430  0.44564  0.91528  Biso   1.000  O
  O2       1.0000 0.92250  0.50580  0.88810  Biso   1.000  O
  O3       1.0000 0.90310  0.39830  0.98881  Biso   1.000  O
  O4       1.0000 0.85950  0.13910  0.64621  Biso   1.000  O
  O5       1.0000 0.91430  0.06860  0.74530  Biso   1.000  O
  O6       1.0000 0.95390  0.71020  0.86920  Biso   1.000  O
  O7       1.0000 0.11890  0.64100  0.83677  Biso   1.000  O
  O8       1.0000 0.06350  0.02364  0.59699  Biso   1.000  O
  O9       1.0000 0.28800  0.97970  0.60300  Biso   1.000  O
  O10      1.0000 0.13560  0.90749  0.51658  Biso   1.000  O
  C1       1.0000 0.87390  0.34830  0.84980  Biso   1.000  C
  C2       1.0000 0.96530  0.28940  0.86310  Biso   1.000  C
  H1       1.0000 0.02320  0.29690  0.90160  Biso   1.000  H
  C3       1.0000 0.97040  0.22040  0.81960  Biso   1.000  C
  H2       1.0000 0.02910  0.18050  0.83040  Biso   1.000  H
  C4       1.0000 0.88770  0.21060  0.75960  Biso   1.000  C
  C5       1.0000 0.80050  0.27040  0.74390  Biso   1.000  C
  H3       1.0000 0.74720  0.26550  0.70270  Biso   1.000  H
  C6       1.0000 0.79340  0.33810  0.79050  Biso   1.000  C
  H4       1.0000 0.73250  0.37710  0.78120  Biso   1.000  H
  C7       1.0000 0.88890  0.13300  0.71560  Biso   1.000  C
  C8       1.0000 0.12440  0.88000  0.66280  Biso   1.000  C
  C9       1.0000 0.04310  0.89670  0.71980  Biso   1.000  C
  H5       1.0000 0.00390  0.94700  0.72150  Biso   1.000  H
  C10      1.0000 0.01950  0.83970  0.77390  Biso   1.000  C
  H6       1.0000 0.96410  0.85180  0.81150  Biso   1.000  H
  C11      1.0000 0.07740  0.76440  0.77310  Biso   1.000  C
  C12      1.0000 0.16150  0.74880  0.71810  Biso   1.000  C
  H7       1.0000 0.20460  0.69980  0.71850  Biso   1.000  H
  C13      1.0000 0.18290  0.80490  0.66200  Biso   1.000  C
  H8       1.0000 0.23670  0.79210  0.62370  Biso   1.000  H
  C14      1.0000 0.04610  0.70180  0.83130  Biso   1.000  C
  Zn3      1.0000 0.42149  0.05672  0.58887  Biso   1.000  Zn
  Zn4      1.0000 0.88428  0.04334  0.58384  Biso   1.000  Zn
  P3       1.0000 0.64551  0.93135  0.58550  Biso   1.000  P
  P4       1.0000 0.34467  0.45375  0.90947  Biso   1.000  P
  O11      1.0000 0.78570  0.94564  0.58472  Biso   1.000  O
  O12      1.0000 0.57750  0.00580  0.61190  Biso   1.000  O
  O13      1.0000 0.59690  0.89830  0.51119  Biso   1.000  O
  O14      1.0000 0.64050  0.63910  0.85379  Biso   1.000  O
  O15      1.0000 0.58570  0.56860  0.75470  Biso   1.000  O
  O16      1.0000 0.54610  0.21020  0.63080  Biso   1.000  O
  O17      1.0000 0.38110  0.14100  0.66323  Biso   1.000  O
  O18      1.0000 0.43650  0.52364  0.90301  Biso   1.000  O
  O19      1.0000 0.21200  0.47970  0.89700  Biso   1.000  O
  O20      1.0000 0.36440  0.40749  0.98342  Biso   1.000  O
  C15      1.0000 0.62610  0.84830  0.65020  Biso   1.000  C
  C16      1.0000 0.53470  0.78940  0.63690  Biso   1.000  C
  H9       1.0000 0.47680  0.79690  0.59840  Biso   1.000  H
  C17      1.0000 0.52960  0.72040  0.68040  Biso   1.000  C
  H10      1.0000 0.47090  0.68050  0.66960  Biso   1.000  H
  C18      1.0000 0.61230  0.71060  0.74040  Biso   1.000  C
  C19      1.0000 0.69950  0.77040  0.75610  Biso   1.000  C
  H11      1.0000 0.75280  0.76550  0.79730  Biso   1.000  H
  C20      1.0000 0.70660  0.83810  0.70950  Biso   1.000  C
  H12      1.0000 0.76750  0.87710  0.71880  Biso   1.000  H
  C21      1.0000 0.61110  0.63300  0.78440  Biso   1.000  C
  C22      1.0000 0.37560  0.38000  0.83720  Biso   1.000  C
  C23      1.0000 0.45690  0.39670  0.78020  Biso   1.000  C
  H13      1.0000 0.49610  0.44700  0.77850  Biso   1.000  H
  C24      1.0000 0.48050  0.33970  0.72610  Biso   1.000  C
  H14      1.0000 0.53590  0.35180  0.68850  Biso   1.000  H
  C25      1.0000 0.42260  0.26440  0.72690  Biso   1.000  C
  C26      1.0000 0.33850  0.24880  0.78190  Biso   1.000  C
  H15      1.0000 0.29540  0.19980  0.78150  Biso   1.000  H
  C27      1.0000 0.31710  0.30490  0.83800  Biso   1.000  C
  H16      1.0000 0.26330  0.29210  0.87630  Biso   1.000  H
  C28      1.0000 0.45390  0.20180  0.66870  Biso   1.000  C
  Zn5      1.0000 0.92149  0.44328  0.08887  Biso   1.000  Zn
  Zn6      1.0000 0.38428  0.45666  0.08384  Biso   1.000  Zn
  P5       1.0000 0.14551  0.56865  0.08550  Biso   1.000  P
  P6       1.0000 0.84467  0.04625  0.40947  Biso   1.000  P
  O21      1.0000 0.28570  0.55436  0.08472  Biso   1.000  O
  O22      1.0000 0.07750  0.49420  0.11190  Biso   1.000  O
  O23      1.0000 0.09690  0.60170  0.01119  Biso   1.000  O
  O24      1.0000 0.14050  0.86090  0.35379  Biso   1.000  O
  O25      1.0000 0.08570  0.93140  0.25470  Biso   1.000  O
  O26      1.0000 0.04610  0.28980  0.13080  Biso   1.000  O
  O27      1.0000 0.88110  0.35900  0.16323  Biso   1.000  O
  O28      1.0000 0.93650  0.97636  0.40301  Biso   1.000  O
  O29      1.0000 0.71200  0.02030  0.39700  Biso   1.000  O
  O30      1.0000 0.86440  0.09251  0.48342  Biso   1.000  O
  C29      1.0000 0.12610  0.65170  0.15020  Biso   1.000  C
  C30      1.0000 0.03470  0.71060  0.13690  Biso   1.000  C
  H17      1.0000 0.97680  0.70310  0.09840  Biso   1.000  H
  C31      1.0000 0.02960  0.77960  0.18040  Biso   1.000  C
  H18      1.0000 0.97090  0.81950  0.16960  Biso   1.000  H
  C32      1.0000 0.11230  0.78940  0.24040  Biso   1.000  C
  C33      1.0000 0.19950  0.72960  0.25610  Biso   1.000  C
  H19      1.0000 0.25280  0.73450  0.29730  Biso   1.000  H
  C34      1.0000 0.20660  0.66190  0.20950  Biso   1.000  C
  H20      1.0000 0.26750  0.62290  0.21880  Biso   1.000  H
  C35      1.0000 0.11110  0.86700  0.28440  Biso   1.000  C
  C36      1.0000 0.87560  0.12000  0.33720  Biso   1.000  C
  C37      1.0000 0.95690  0.10330  0.28020  Biso   1.000  C
  H21      1.0000 0.99610  0.05300  0.27850  Biso   1.000  H
  C38      1.0000 0.98050  0.16030  0.22610  Biso   1.000  C
  H22      1.0000 0.03590  0.14820  0.18850  Biso   1.000  H
  C39      1.0000 0.92260  0.23560  0.22690  Biso   1.000  C
  C40      1.0000 0.83850  0.25120  0.28190  Biso   1.000  C
  H23      1.0000 0.79540  0.30020  0.28150  Biso   1.000  H
  C41      1.0000 0.81710  0.19510  0.33800  Biso   1.000  C
  H24      1.0000 0.76330  0.20790  0.37630  Biso   1.000  H
  C42      1.0000 0.95390  0.29820  0.16870  Biso   1.000  C
  Zn7      1.0000 0.57851  0.94328  0.41113  Biso   1.000  Zn
  Zn8      1.0000 0.11572  0.95666  0.41616  Biso   1.000  Zn
  P7       1.0000 0.35449  0.06865  0.41450  Biso   1.000  P
  P8       1.0000 0.65533  0.54625  0.09053  Biso   1.000  P
  O31      1.0000 0.21430  0.05436  0.41528  Biso   1.000  O
  O32      1.0000 0.42250  0.99420  0.38810  Biso   1.000  O
  O33      1.0000 0.40310  0.10170  0.48881  Biso   1.000  O
  O34      1.0000 0.35950  0.36090  0.14621  Biso   1.000  O
  O35      1.0000 0.41430  0.43140  0.24530  Biso   1.000  O
  O36      1.0000 0.45390  0.78980  0.36920  Biso   1.000  O
  O37      1.0000 0.61890  0.85900  0.33677  Biso   1.000  O
  O38      1.0000 0.56350  0.47636  0.09699  Biso   1.000  O
  O39      1.0000 0.78800  0.52030  0.10300  Biso   1.000  O
  O40      1.0000 0.63560  0.59251  0.01658  Biso   1.000  O
  C43      1.0000 0.37390  0.15170  0.34980  Biso   1.000  C
  C44      1.0000 0.46530  0.21060  0.36310  Biso   1.000  C
  H25      1.0000 0.52320  0.20310  0.40160  Biso   1.000  H
  C45      1.0000 0.47040  0.27960  0.31960  Biso   1.000  C
  H26      1.0000 0.52910  0.31950  0.33040  Biso   1.000  H
  C46      1.0000 0.38770  0.28940  0.25960  Biso   1.000  C
  C47      1.0000 0.30050  0.22960  0.24390  Biso   1.000  C
  H27      1.0000 0.24720  0.23450  0.20270  Biso   1.000  H
  C48      1.0000 0.29340  0.16190  0.29050  Biso   1.000  C
  H28      1.0000 0.23250  0.12290  0.28120  Biso   1.000  H
  C49      1.0000 0.38890  0.36700  0.21560  Biso   1.000  C
  C50      1.0000 0.62440  0.62000  0.16280  Biso   1.000  C
  C51      1.0000 0.54310  0.60330  0.21980  Biso   1.000  C
  H29      1.0000 0.50390  0.55300  0.22150  Biso   1.000  H
  C52      1.0000 0.51950  0.66030  0.27390  Biso   1.000  C
  H30      1.0000 0.46410  0.64820  0.31150  Biso   1.000  H
  C53      1.0000 0.57740  0.73560  0.27310  Biso   1.000  C
  C54      1.0000 0.66150  0.75120  0.21810  Biso   1.000  C
  H31      1.0000 0.70460  0.80020  0.21850  Biso   1.000  H
  C55      1.0000 0.68290  0.69510  0.16200  Biso   1.000  C
  H32      1.0000 0.73670  0.70790  0.12370  Biso   1.000  H
  C56      1.0000 0.54610  0.79820  0.33130  Biso   1.000  C
