data_image0
_cell_length_a       9.463
_cell_length_b       16.7534
_cell_length_c       22.3836
_cell_angle_alpha    90
_cell_angle_beta     90
_cell_angle_gamma    91.899

_symmetry_space_group_name_H-M    P 1
_symmetry_int_tables_number       1

loop_
  _symmetry_equiv_pos_as_xyz
  'x, y, z'

loop_
  _atom_site_label
  _atom_site_occupancy
  _atom_site_fract_x
  _atom_site_fract_y
  _atom_site_fract_z
  _atom_site_thermal_displace_type
  _atom_site_B_iso_or_equiv
  _atom_site_type_symbol
  U1       1.0000 0.54298  0.13558  0.25189  Biso   1.000  U
  U2       1.0000 0.90573  0.26493  0.25392  Biso   1.000  U
  U3       1.0000 0.45702  0.36442  0.75189  Biso   1.000  U
  U4       1.0000 0.09427  0.23507  0.75392  Biso   1.000  U
  U5       1.0000 0.45702  0.86442  0.74811  Biso   1.000  U
  U6       1.0000 0.09427  0.73507  0.74608  Biso   1.000  U
  U7       1.0000 0.54298  0.63558  0.24811  Biso   1.000  U
  U8       1.0000 0.90573  0.76493  0.24608  Biso   1.000  U
  Zn1      1.0000 0.84113  0.00546  0.25405  Biso   1.000  Zn
  Zn2      1.0000 0.22604  0.94958  0.24631  Biso   1.000  Zn
  Zn3      1.0000 0.15887  0.49454  0.75405  Biso   1.000  Zn
  Zn4      1.0000 0.77396  0.55042  0.74631  Biso   1.000  Zn
  Zn5      1.0000 0.15887  0.99454  0.74595  Biso   1.000  Zn
  Zn6      1.0000 0.77396  0.05042  0.75369  Biso   1.000  Zn
  Zn7      1.0000 0.84113  0.50546  0.24595  Biso   1.000  Zn
  Zn8      1.0000 0.22604  0.44958  0.25369  Biso   1.000  Zn
  H1       1.0000 0.09950  0.12510  0.25550  Biso   1.000  H
  H2       1.0000 0.18010  0.19370  0.25950  Biso   1.000  H
  H3       1.0000 0.48460  0.91220  0.25110  Biso   1.000  H
  H4       1.0000 0.42500  0.84160  0.24130  Biso   1.000  H
  H5       1.0000 0.97450  0.09030  0.15030  Biso   1.000  H
  H6       1.0000 0.95290  0.10480  0.04900  Biso   1.000  H
  H7       1.0000 0.66440  0.93090  0.15340  Biso   1.000  H
  H8       1.0000 0.63090  0.94280  0.05290  Biso   1.000  H
  H9       1.0000 0.86020  0.14420  0.96430  Biso   1.000  H
  H10      1.0000 0.85440  0.15030  0.86260  Biso   1.000  H
  H11      1.0000 0.69020  0.92290  0.95470  Biso   1.000  H
  H12      1.0000 0.69510  0.93360  0.85320  Biso   1.000  H
  H13      1.0000 0.95200  0.11060  0.35430  Biso   1.000  H
  H14      1.0000 0.92720  0.13020  0.45490  Biso   1.000  H
  H15      1.0000 0.69660  0.92360  0.35890  Biso   1.000  H
  H16      1.0000 0.66650  0.93660  0.45970  Biso   1.000  H
  H17      1.0000 0.97510  0.09760  0.54870  Biso   1.000  H
  H18      1.0000 0.96030  0.10410  0.65070  Biso   1.000  H
  H19      1.0000 0.58490  0.99680  0.54710  Biso   1.000  H
  H20      1.0000 0.57970  0.00840  0.64860  Biso   1.000  H
  H21      1.0000 0.90050  0.37490  0.75550  Biso   1.000  H
  H22      1.0000 0.81990  0.30630  0.75950  Biso   1.000  H
  H23      1.0000 0.51540  0.58780  0.75110  Biso   1.000  H
  H24      1.0000 0.57500  0.65840  0.74130  Biso   1.000  H
  H25      1.0000 0.02550  0.40970  0.65030  Biso   1.000  H
  H26      1.0000 0.04710  0.39520  0.54900  Biso   1.000  H
  H27      1.0000 0.33560  0.56910  0.65340  Biso   1.000  H
  H28      1.0000 0.36910  0.55720  0.55290  Biso   1.000  H
  H29      1.0000 0.13980  0.35580  0.46430  Biso   1.000  H
  H30      1.0000 0.14560  0.34970  0.36260  Biso   1.000  H
  H31      1.0000 0.30980  0.57710  0.45470  Biso   1.000  H
  H32      1.0000 0.30490  0.56640  0.35320  Biso   1.000  H
  H33      1.0000 0.04800  0.38940  0.85430  Biso   1.000  H
  H34      1.0000 0.07280  0.36980  0.95490  Biso   1.000  H
  H35      1.0000 0.30340  0.57640  0.85890  Biso   1.000  H
  H36      1.0000 0.33350  0.56340  0.95970  Biso   1.000  H
  H37      1.0000 0.02490  0.40240  0.04870  Biso   1.000  H
  H38      1.0000 0.03970  0.39590  0.15070  Biso   1.000  H
  H39      1.0000 0.41510  0.50320  0.04710  Biso   1.000  H
  H40      1.0000 0.42030  0.49160  0.14860  Biso   1.000  H
  H41      1.0000 0.90050  0.87490  0.74450  Biso   1.000  H
  H42      1.0000 0.81990  0.80630  0.74050  Biso   1.000  H
  H43      1.0000 0.51540  0.08780  0.74890  Biso   1.000  H
  H44      1.0000 0.57500  0.15840  0.75870  Biso   1.000  H
  H45      1.0000 0.02550  0.90970  0.84970  Biso   1.000  H
  H46      1.0000 0.04710  0.89520  0.95100  Biso   1.000  H
  H47      1.0000 0.33560  0.06910  0.84660  Biso   1.000  H
  H48      1.0000 0.36910  0.05720  0.94710  Biso   1.000  H
  H49      1.0000 0.13980  0.85580  0.03570  Biso   1.000  H
  H50      1.0000 0.14560  0.84970  0.13740  Biso   1.000  H
  H51      1.0000 0.30980  0.07710  0.04530  Biso   1.000  H
  H52      1.0000 0.30490  0.06640  0.14680  Biso   1.000  H
  H53      1.0000 0.04800  0.88940  0.64570  Biso   1.000  H
  H54      1.0000 0.07280  0.86980  0.54510  Biso   1.000  H
  H55      1.0000 0.30340  0.07640  0.64110  Biso   1.000  H
  H56      1.0000 0.33350  0.06340  0.54030  Biso   1.000  H
  H57      1.0000 0.02490  0.90240  0.45130  Biso   1.000  H
  H58      1.0000 0.03970  0.89590  0.34930  Biso   1.000  H
  H59      1.0000 0.41510  0.00320  0.45290  Biso   1.000  H
  H60      1.0000 0.42030  0.99160  0.35140  Biso   1.000  H
  H61      1.0000 0.09950  0.62510  0.24450  Biso   1.000  H
  H62      1.0000 0.18010  0.69370  0.24050  Biso   1.000  H
  H63      1.0000 0.48460  0.41220  0.24890  Biso   1.000  H
  H64      1.0000 0.42500  0.34160  0.25870  Biso   1.000  H
  H65      1.0000 0.97450  0.59030  0.34970  Biso   1.000  H
  H66      1.0000 0.95290  0.60480  0.45100  Biso   1.000  H
  H67      1.0000 0.66440  0.43090  0.34660  Biso   1.000  H
  H68      1.0000 0.63090  0.44280  0.44710  Biso   1.000  H
  H69      1.0000 0.86020  0.64420  0.53570  Biso   1.000  H
  H70      1.0000 0.85440  0.65030  0.63740  Biso   1.000  H
  H71      1.0000 0.69020  0.42290  0.54530  Biso   1.000  H
  H72      1.0000 0.69510  0.43360  0.64680  Biso   1.000  H
  H73      1.0000 0.95200  0.61060  0.14570  Biso   1.000  H
  H74      1.0000 0.92720  0.63020  0.04510  Biso   1.000  H
  H75      1.0000 0.69660  0.42360  0.14110  Biso   1.000  H
  H76      1.0000 0.66650  0.43660  0.04030  Biso   1.000  H
  H77      1.0000 0.97510  0.59760  0.95130  Biso   1.000  H
  H78      1.0000 0.96030  0.60410  0.84930  Biso   1.000  H
  H79      1.0000 0.58490  0.49680  0.95290  Biso   1.000  H
  H80      1.0000 0.57970  0.50840  0.85140  Biso   1.000  H
  C1       1.0000 0.90540  0.06005  0.13020  Biso   1.000  C
  C2       1.0000 0.89300  0.06906  0.06937  Biso   1.000  C
  C3       1.0000 0.72250  0.96650  0.13198  Biso   1.000  C
  C4       1.0000 0.70250  0.97278  0.07165  Biso   1.000  C
  C5       1.0000 0.79010  0.02435  0.03843  Biso   1.000  C
  C6       1.0000 0.77900  0.03201  0.97239  Biso   1.000  C
  C7       1.0000 0.82610  0.10028  0.94264  Biso   1.000  C
  C8       1.0000 0.82290  0.10354  0.88143  Biso   1.000  C
  C9       1.0000 0.72660  0.96945  0.93698  Biso   1.000  C
  C10      1.0000 0.72860  0.97664  0.87599  Biso   1.000  C
  C11      1.0000 0.89360  0.07532  0.37587  Biso   1.000  C
  C12      1.0000 0.87970  0.08745  0.43638  Biso   1.000  C
  C13      1.0000 0.74400  0.96539  0.37863  Biso   1.000  C
  C14      1.0000 0.72500  0.97294  0.43921  Biso   1.000  C
  C15      1.0000 0.79360  0.03506  0.46968  Biso   1.000  C
  C16      1.0000 0.78240  0.04456  0.53543  Biso   1.000  C
  C17      1.0000 0.89420  0.07798  0.56809  Biso   1.000  C
  C18      1.0000 0.88420  0.08189  0.62942  Biso   1.000  C
  C19      1.0000 0.66300  0.01865  0.56719  Biso   1.000  C
  C20      1.0000 0.66090  0.02541  0.62818  Biso   1.000  C
  C21      1.0000 0.09460  0.43995  0.63020  Biso   1.000  C
  C22      1.0000 0.10700  0.43094  0.56937  Biso   1.000  C
  C23      1.0000 0.27750  0.53350  0.63198  Biso   1.000  C
  C24      1.0000 0.29750  0.52722  0.57165  Biso   1.000  C
  C25      1.0000 0.20990  0.47565  0.53843  Biso   1.000  C
  C26      1.0000 0.22100  0.46799  0.47239  Biso   1.000  C
  C27      1.0000 0.17390  0.39972  0.44264  Biso   1.000  C
  C28      1.0000 0.17710  0.39646  0.38143  Biso   1.000  C
  C29      1.0000 0.27340  0.53055  0.43698  Biso   1.000  C
  C30      1.0000 0.27140  0.52336  0.37599  Biso   1.000  C
  C31      1.0000 0.10640  0.42468  0.87587  Biso   1.000  C
  C32      1.0000 0.12030  0.41255  0.93638  Biso   1.000  C
  C33      1.0000 0.25600  0.53461  0.87863  Biso   1.000  C
  C34      1.0000 0.27500  0.52706  0.93921  Biso   1.000  C
  C35      1.0000 0.20640  0.46494  0.96968  Biso   1.000  C
  C36      1.0000 0.21760  0.45544  0.03543  Biso   1.000  C
  C37      1.0000 0.10580  0.42202  0.06809  Biso   1.000  C
  C38      1.0000 0.11580  0.41811  0.12942  Biso   1.000  C
  C39      1.0000 0.33700  0.48135  0.06719  Biso   1.000  C
  C40      1.0000 0.33910  0.47459  0.12818  Biso   1.000  C
  C41      1.0000 0.09460  0.93995  0.86980  Biso   1.000  C
  C42      1.0000 0.10700  0.93094  0.93063  Biso   1.000  C
  C43      1.0000 0.27750  0.03350  0.86802  Biso   1.000  C
  C44      1.0000 0.29750  0.02722  0.92835  Biso   1.000  C
  C45      1.0000 0.20990  0.97565  0.96157  Biso   1.000  C
  C46      1.0000 0.22100  0.96799  0.02761  Biso   1.000  C
  C47      1.0000 0.17390  0.89972  0.05736  Biso   1.000  C
  C48      1.0000 0.17710  0.89646  0.11857  Biso   1.000  C
  C49      1.0000 0.27340  0.03055  0.06302  Biso   1.000  C
  C50      1.0000 0.27140  0.02336  0.12401  Biso   1.000  C
  C51      1.0000 0.10640  0.92468  0.62413  Biso   1.000  C
  C52      1.0000 0.12030  0.91255  0.56362  Biso   1.000  C
  C53      1.0000 0.25600  0.03461  0.62137  Biso   1.000  C
  C54      1.0000 0.27500  0.02706  0.56079  Biso   1.000  C
  C55      1.0000 0.20640  0.96494  0.53032  Biso   1.000  C
  C56      1.0000 0.21760  0.95544  0.46457  Biso   1.000  C
  C57      1.0000 0.10580  0.92202  0.43191  Biso   1.000  C
  C58      1.0000 0.11580  0.91811  0.37058  Biso   1.000  C
  C59      1.0000 0.33700  0.98135  0.43281  Biso   1.000  C
  C60      1.0000 0.33910  0.97459  0.37182  Biso   1.000  C
  C61      1.0000 0.90540  0.56005  0.36980  Biso   1.000  C
  C62      1.0000 0.89300  0.56906  0.43063  Biso   1.000  C
  C63      1.0000 0.72250  0.46650  0.36802  Biso   1.000  C
  C64      1.0000 0.70250  0.47278  0.42835  Biso   1.000  C
  C65      1.0000 0.79010  0.52435  0.46157  Biso   1.000  C
  C66      1.0000 0.77900  0.53201  0.52761  Biso   1.000  C
  C67      1.0000 0.82610  0.60028  0.55736  Biso   1.000  C
  C68      1.0000 0.82290  0.60354  0.61857  Biso   1.000  C
  C69      1.0000 0.72660  0.46945  0.56302  Biso   1.000  C
  C70      1.0000 0.72860  0.47664  0.62401  Biso   1.000  C
  C71      1.0000 0.89360  0.57532  0.12413  Biso   1.000  C
  C72      1.0000 0.87970  0.58745  0.06362  Biso   1.000  C
  C73      1.0000 0.74400  0.46539  0.12137  Biso   1.000  C
  C74      1.0000 0.72500  0.47294  0.06079  Biso   1.000  C
  C75      1.0000 0.79360  0.53506  0.03032  Biso   1.000  C
  C76      1.0000 0.78240  0.54456  0.96457  Biso   1.000  C
  C77      1.0000 0.89420  0.57798  0.93191  Biso   1.000  C
  C78      1.0000 0.88420  0.58189  0.87058  Biso   1.000  C
  C79      1.0000 0.66300  0.51865  0.93281  Biso   1.000  C
  C80      1.0000 0.66090  0.52541  0.87182  Biso   1.000  C
  N1       1.0000 0.82200  0.00943  0.16172  Biso   1.000  N
  N2       1.0000 0.77630  0.04236  0.84763  Biso   1.000  N
  N3       1.0000 0.82750  0.01542  0.34654  Biso   1.000  N
  N4       1.0000 0.77080  0.05542  0.65988  Biso   1.000  N
  N5       1.0000 0.17800  0.49057  0.66172  Biso   1.000  N
  N6       1.0000 0.22370  0.45764  0.34763  Biso   1.000  N
  N7       1.0000 0.17250  0.48458  0.84654  Biso   1.000  N
  N8       1.0000 0.22920  0.44458  0.15988  Biso   1.000  N
  N9       1.0000 0.17800  0.99057  0.83828  Biso   1.000  N
  N10      1.0000 0.22370  0.95764  0.15237  Biso   1.000  N
  N11      1.0000 0.17250  0.98458  0.65346  Biso   1.000  N
  N12      1.0000 0.22920  0.94458  0.34012  Biso   1.000  N
  N13      1.0000 0.82200  0.50943  0.33828  Biso   1.000  N
  N14      1.0000 0.77630  0.54236  0.65237  Biso   1.000  N
  N15      1.0000 0.82750  0.51542  0.15346  Biso   1.000  N
  N16      1.0000 0.77080  0.55542  0.84012  Biso   1.000  N
  O1       1.0000 0.54980  0.13291  0.17275  Biso   1.000  O
  O2       1.0000 0.54310  0.13793  0.33107  Biso   1.000  O
  O3       1.0000 0.91760  0.25652  0.17500  Biso   1.000  O
  O4       1.0000 0.89510  0.27064  0.33277  Biso   1.000  O
  O5       1.0000 0.10418  0.17558  0.26310  Biso   1.000  O
  O6       1.0000 0.41320  0.88577  0.24069  Biso   1.000  O
  O7       1.0000 0.45020  0.36709  0.67275  Biso   1.000  O
  O8       1.0000 0.45690  0.36207  0.83107  Biso   1.000  O
  O9       1.0000 0.08240  0.24348  0.67500  Biso   1.000  O
  O10      1.0000 0.10490  0.22936  0.83277  Biso   1.000  O
  O11      1.0000 0.89582  0.32442  0.76310  Biso   1.000  O
  O12      1.0000 0.58680  0.61423  0.74069  Biso   1.000  O
  O13      1.0000 0.45020  0.86709  0.82725  Biso   1.000  O
  O14      1.0000 0.45690  0.86207  0.66893  Biso   1.000  O
  O15      1.0000 0.08240  0.74348  0.82500  Biso   1.000  O
  O16      1.0000 0.10490  0.72936  0.66723  Biso   1.000  O
  O17      1.0000 0.89582  0.82442  0.73690  Biso   1.000  O
  O18      1.0000 0.58680  0.11423  0.75931  Biso   1.000  O
  O19      1.0000 0.54980  0.63291  0.32725  Biso   1.000  O
  O20      1.0000 0.54310  0.63793  0.16893  Biso   1.000  O
  O21      1.0000 0.91760  0.75652  0.32500  Biso   1.000  O
  O22      1.0000 0.89510  0.77064  0.16723  Biso   1.000  O
  O23      1.0000 0.10418  0.67558  0.23690  Biso   1.000  O
  O24      1.0000 0.41320  0.38577  0.25931  Biso   1.000  O
  F1       1.0000 0.66016  0.25826  0.24943  Biso   1.000  F
  F2       1.0000 0.34523  0.05660  0.25125  Biso   1.000  F
  F3       1.0000 0.61807  0.00711  0.25616  Biso   1.000  F
  F4       1.0000 0.80602  0.13317  0.25452  Biso   1.000  F
  F5       1.0000 0.37049  0.22418  0.24765  Biso   1.000  F
  F6       1.0000 0.10487  0.34305  0.25561  Biso   1.000  F
  F7       1.0000 0.82802  0.38775  0.24166  Biso   1.000  F
  F8       1.0000 0.05136  0.02158  0.25234  Biso   1.000  F
  F9       1.0000 0.33984  0.24174  0.74943  Biso   1.000  F
  F10      1.0000 0.65477  0.44340  0.75125  Biso   1.000  F
  F11      1.0000 0.38193  0.49289  0.75616  Biso   1.000  F
  F12      1.0000 0.19398  0.36683  0.75452  Biso   1.000  F
  F13      1.0000 0.62951  0.27582  0.74765  Biso   1.000  F
  F14      1.0000 0.89513  0.15695  0.75561  Biso   1.000  F
  F15      1.0000 0.17198  0.11225  0.74166  Biso   1.000  F
  F16      1.0000 0.94864  0.47842  0.75234  Biso   1.000  F
  F17      1.0000 0.33984  0.74174  0.75057  Biso   1.000  F
  F18      1.0000 0.65477  0.94340  0.74875  Biso   1.000  F
  F19      1.0000 0.38193  0.99289  0.74384  Biso   1.000  F
  F20      1.0000 0.19398  0.86683  0.74548  Biso   1.000  F
  F21      1.0000 0.62951  0.77582  0.75235  Biso   1.000  F
  F22      1.0000 0.89513  0.65695  0.74439  Biso   1.000  F
  F23      1.0000 0.17198  0.61225  0.75834  Biso   1.000  F
  F24      1.0000 0.94864  0.97842  0.74766  Biso   1.000  F
  F25      1.0000 0.66016  0.75826  0.25057  Biso   1.000  F
  F26      1.0000 0.34523  0.55660  0.24875  Biso   1.000  F
  F27      1.0000 0.61807  0.50711  0.24384  Biso   1.000  F
  F28      1.0000 0.80602  0.63317  0.24548  Biso   1.000  F
  F29      1.0000 0.37049  0.72418  0.25235  Biso   1.000  F
  F30      1.0000 0.10487  0.84305  0.24439  Biso   1.000  F
  F31      1.0000 0.82802  0.88775  0.25834  Biso   1.000  F
  F32      1.0000 0.05136  0.52158  0.24766  Biso   1.000  F
