data_CAWVIH_clean
_audit_creation_date              2015-05-19
_audit_creation_method            'Materials Studio'
_symmetry_space_group_name_H-M    'P1'
_symmetry_Int_Tables_number       1
_symmetry_cell_setting            triclinic
loop_
_symmetry_equiv_pos_as_xyz
  x,y,z
_cell_length_a                    11.9887
_cell_length_b                    18.6365
_cell_length_c                    17.9807
_cell_angle_alpha                 90.0000
_cell_angle_beta                  90.0000
_cell_angle_gamma                 90.0000
loop_
_atom_site_label
_atom_site_type_symbol
_atom_site_fract_x
_atom_site_fract_y
_atom_site_fract_z
_atom_site_U_iso_or_equiv
_atom_site_adp_type
_atom_site_occupancy
Zn1    Zn    0.61039   0.99103   0.69758   0.01267  Uiso   1.00
H2     H     0.12600   0.20730   0.24330   0.01267  Uiso   1.00
H3     H     0.44950   0.07740   0.51030   0.01267  Uiso   1.00
H4     H     0.11660   0.76460   0.32960   0.01267  Uiso   1.00
H5     H     0.35090   0.13840   0.42030   0.01267  Uiso   1.00
H6     H     0.11390   0.64150   0.33070   0.01267  Uiso   1.00
H7     H     0.14530   0.40990   0.30380   0.01267  Uiso   1.00
H8     H     0.10350   0.17360   0.56510   0.01267  Uiso   1.00
H9     H     0.20420   0.11530   0.65520   0.01267  Uiso   1.00
H10    H     0.20970   0.14310   0.33700   0.01267  Uiso   1.00
H11    H     0.14190   0.53240   0.30550   0.01267  Uiso   1.00
H12    H     0.99140   0.33910   0.39360   0.01267  Uiso   1.00
H13    H     0.07450   0.27380   0.48850   0.01267  Uiso   1.00
C14    C     0.40150   0.05240   0.65070   0.01267  Uiso   1.00
C15    C     0.33730   0.09000   0.59230   0.01267  Uiso   1.00
C16    C     0.11630   0.22140   0.29250   0.01267  Uiso   1.00
C17    C     0.05190   0.28040   0.30850   0.01267  Uiso   1.00
C18    C     0.38030   0.09710   0.52170   0.01267  Uiso   1.00
C19    C     0.06910   0.74010   0.29750   0.01267  Uiso   1.00
C20    C     0.32050   0.13360   0.46760   0.01267  Uiso   1.00
C21    C     0.21640   0.16330   0.48230   0.01267  Uiso   1.00
C22    C     0.15500   0.20220   0.42330   0.01267  Uiso   1.00
C23    C     0.06790   0.66590   0.29770   0.01267  Uiso   1.00
C24    C     0.08580   0.43410   0.28210   0.01267  Uiso   1.00
C25    C     0.17340   0.15500   0.55370   0.01267  Uiso   1.00
C26    C     0.23370   0.11960   0.60750   0.01267  Uiso   1.00
C27    C     0.16670   0.18300   0.34900   0.01267  Uiso   1.00
C28    C     0.08380   0.50790   0.28240   0.01267  Uiso   1.00
C29    C     0.03600   0.29980   0.38210   0.01267  Uiso   1.00
C30    C     0.08660   0.26070   0.43920   0.01267  Uiso   1.00
O31    O     0.49480   0.02658   0.63231   0.01267  Uiso   1.00
O32    O     0.07770   0.88950   0.28368   0.01267  Uiso   1.00
O33    O     0.35980   0.04900   0.71458   0.01267  Uiso   1.00
H34    H     0.25000   0.00000   0.90882   0.01267  Uiso   1.00
Zn35   Zn    0.88961   0.00897   0.69758   0.01267  Uiso   1.00
H36    H     0.37400   0.79270   0.24330   0.01267  Uiso   1.00
H37    H     0.05050   0.92260   0.51030   0.01267  Uiso   1.00
H38    H     0.38340   0.23540   0.32960   0.01267  Uiso   1.00
H39    H     0.14910   0.86160   0.42030   0.01267  Uiso   1.00
H40    H     0.38610   0.35850   0.33070   0.01267  Uiso   1.00
H41    H     0.35470   0.59010   0.30380   0.01267  Uiso   1.00
H42    H     0.39650   0.82640   0.56510   0.01267  Uiso   1.00
H43    H     0.29580   0.88470   0.65520   0.01267  Uiso   1.00
H44    H     0.29030   0.85690   0.33700   0.01267  Uiso   1.00
H45    H     0.35810   0.46760   0.30550   0.01267  Uiso   1.00
H46    H     0.50860   0.66090   0.39360   0.01267  Uiso   1.00
H47    H     0.42550   0.72620   0.48850   0.01267  Uiso   1.00
C48    C     0.09850   0.94760   0.65070   0.01267  Uiso   1.00
C49    C     0.16270   0.91000   0.59230   0.01267  Uiso   1.00
C50    C     0.38370   0.77860   0.29250   0.01267  Uiso   1.00
C51    C     0.44810   0.71960   0.30850   0.01267  Uiso   1.00
C52    C     0.11970   0.90290   0.52170   0.01267  Uiso   1.00
C53    C     0.43090   0.25990   0.29750   0.01267  Uiso   1.00
C54    C     0.17950   0.86640   0.46760   0.01267  Uiso   1.00
C55    C     0.28360   0.83670   0.48230   0.01267  Uiso   1.00
C56    C     0.34500   0.79780   0.42330   0.01267  Uiso   1.00
C57    C     0.43210   0.33410   0.29770   0.01267  Uiso   1.00
C58    C     0.41420   0.56590   0.28210   0.01267  Uiso   1.00
C59    C     0.32660   0.84500   0.55370   0.01267  Uiso   1.00
C60    C     0.26630   0.88040   0.60750   0.01267  Uiso   1.00
C61    C     0.33330   0.81700   0.34900   0.01267  Uiso   1.00
C62    C     0.41620   0.49210   0.28240   0.01267  Uiso   1.00
C63    C     0.46400   0.70020   0.38210   0.01267  Uiso   1.00
C64    C     0.41340   0.73930   0.43920   0.01267  Uiso   1.00
O65    O     0.00520   0.97342   0.63231   0.01267  Uiso   1.00
O66    O     0.42230   0.11050   0.28368   0.01267  Uiso   1.00
O67    O     0.14020   0.95100   0.71458   0.01267  Uiso   1.00
Zn69   Zn    0.38961   0.99103   0.80242   0.01267  Uiso   1.00
H70    H     0.87400   0.20730   0.25670   0.01267  Uiso   1.00
H71    H     0.55050   0.07740   0.98970   0.01267  Uiso   1.00
H72    H     0.88340   0.76460   0.17040   0.01267  Uiso   1.00
H73    H     0.64910   0.13840   0.07970   0.01267  Uiso   1.00
H74    H     0.88610   0.64150   0.16930   0.01267  Uiso   1.00
H75    H     0.85470   0.40990   0.19620   0.01267  Uiso   1.00
H76    H     0.89650   0.17360   0.93490   0.01267  Uiso   1.00
H77    H     0.79580   0.11530   0.84480   0.01267  Uiso   1.00
H78    H     0.79030   0.14310   0.16300   0.01267  Uiso   1.00
H79    H     0.85810   0.53240   0.19450   0.01267  Uiso   1.00
H80    H     0.00860   0.33910   0.10640   0.01267  Uiso   1.00
H81    H     0.92550   0.27380   0.01150   0.01267  Uiso   1.00
C82    C     0.59850   0.05240   0.84930   0.01267  Uiso   1.00
C83    C     0.66270   0.09000   0.90770   0.01267  Uiso   1.00
C84    C     0.88370   0.22140   0.20750   0.01267  Uiso   1.00
C85    C     0.94810   0.28040   0.19150   0.01267  Uiso   1.00
C86    C     0.61970   0.09710   0.97830   0.01267  Uiso   1.00
C87    C     0.93090   0.74010   0.20250   0.01267  Uiso   1.00
C88    C     0.67950   0.13360   0.03240   0.01267  Uiso   1.00
C89    C     0.78360   0.16330   0.01770   0.01267  Uiso   1.00
C90    C     0.84500   0.20220   0.07670   0.01267  Uiso   1.00
C91    C     0.93210   0.66590   0.20230   0.01267  Uiso   1.00
C92    C     0.91420   0.43410   0.21790   0.01267  Uiso   1.00
C93    C     0.82660   0.15500   0.94630   0.01267  Uiso   1.00
C94    C     0.76630   0.11960   0.89250   0.01267  Uiso   1.00
C95    C     0.83330   0.18300   0.15100   0.01267  Uiso   1.00
C96    C     0.91620   0.50790   0.21760   0.01267  Uiso   1.00
C97    C     0.96400   0.29980   0.11790   0.01267  Uiso   1.00
C98    C     0.91340   0.26070   0.06080   0.01267  Uiso   1.00
O99    O     0.50520   0.02658   0.86769   0.01267  Uiso   1.00
O100   O     0.92230   0.88950   0.21632   0.01267  Uiso   1.00
O101   O     0.64020   0.04900   0.78542   0.01267  Uiso   1.00
H102   H     0.75000   0.00000   0.59118   0.01267  Uiso   1.00
Zn103  Zn    0.11039   0.00897   0.80242   0.01267  Uiso   1.00
H104   H     0.62600   0.79270   0.25670   0.01267  Uiso   1.00
H105   H     0.94950   0.92260   0.98970   0.01267  Uiso   1.00
H106   H     0.61660   0.23540   0.17040   0.01267  Uiso   1.00
H107   H     0.85090   0.86160   0.07970   0.01267  Uiso   1.00
H108   H     0.61390   0.35850   0.16930   0.01267  Uiso   1.00
H109   H     0.64530   0.59010   0.19620   0.01267  Uiso   1.00
H110   H     0.60350   0.82640   0.93490   0.01267  Uiso   1.00
H111   H     0.70420   0.88470   0.84480   0.01267  Uiso   1.00
H112   H     0.70970   0.85690   0.16300   0.01267  Uiso   1.00
H113   H     0.64190   0.46760   0.19450   0.01267  Uiso   1.00
H114   H     0.49140   0.66090   0.10640   0.01267  Uiso   1.00
H115   H     0.57450   0.72620   0.01150   0.01267  Uiso   1.00
C116   C     0.90150   0.94760   0.84930   0.01267  Uiso   1.00
C117   C     0.83730   0.91000   0.90770   0.01267  Uiso   1.00
C118   C     0.61630   0.77860   0.20750   0.01267  Uiso   1.00
C119   C     0.55190   0.71960   0.19150   0.01267  Uiso   1.00
C120   C     0.88030   0.90290   0.97830   0.01267  Uiso   1.00
C121   C     0.56910   0.25990   0.20250   0.01267  Uiso   1.00
C122   C     0.82050   0.86640   0.03240   0.01267  Uiso   1.00
C123   C     0.71640   0.83670   0.01770   0.01267  Uiso   1.00
C124   C     0.65500   0.79780   0.07670   0.01267  Uiso   1.00
C125   C     0.56790   0.33410   0.20230   0.01267  Uiso   1.00
C126   C     0.58580   0.56590   0.21790   0.01267  Uiso   1.00
C127   C     0.67340   0.84500   0.94630   0.01267  Uiso   1.00
C128   C     0.73370   0.88040   0.89250   0.01267  Uiso   1.00
C129   C     0.66670   0.81700   0.15100   0.01267  Uiso   1.00
C130   C     0.58380   0.49210   0.21760   0.01267  Uiso   1.00
C131   C     0.53600   0.70020   0.11790   0.01267  Uiso   1.00
C132   C     0.58660   0.73930   0.06080   0.01267  Uiso   1.00
O133   O     0.99480   0.97342   0.86769   0.01267  Uiso   1.00
O134   O     0.57770   0.11050   0.21632   0.01267  Uiso   1.00
O135   O     0.85980   0.95100   0.78542   0.01267  Uiso   1.00
Zn137  Zn    0.38961   0.00897   0.30242   0.01267  Uiso   1.00
H138   H     0.87400   0.79270   0.75670   0.01267  Uiso   1.00
H139   H     0.55050   0.92260   0.48970   0.01267  Uiso   1.00
H140   H     0.88340   0.23540   0.67040   0.01267  Uiso   1.00
H141   H     0.64910   0.86160   0.57970   0.01267  Uiso   1.00
H142   H     0.88610   0.35850   0.66930   0.01267  Uiso   1.00
H143   H     0.85470   0.59010   0.69620   0.01267  Uiso   1.00
H144   H     0.89650   0.82640   0.43490   0.01267  Uiso   1.00
H145   H     0.79580   0.88470   0.34480   0.01267  Uiso   1.00
H146   H     0.79030   0.85690   0.66300   0.01267  Uiso   1.00
H147   H     0.85810   0.46760   0.69450   0.01267  Uiso   1.00
H148   H     0.00860   0.66090   0.60640   0.01267  Uiso   1.00
H149   H     0.92550   0.72620   0.51150   0.01267  Uiso   1.00
C150   C     0.59850   0.94760   0.34930   0.01267  Uiso   1.00
C151   C     0.66270   0.91000   0.40770   0.01267  Uiso   1.00
C152   C     0.88370   0.77860   0.70750   0.01267  Uiso   1.00
C153   C     0.94810   0.71960   0.69150   0.01267  Uiso   1.00
C154   C     0.61970   0.90290   0.47830   0.01267  Uiso   1.00
C155   C     0.93090   0.25990   0.70250   0.01267  Uiso   1.00
C156   C     0.67950   0.86640   0.53240   0.01267  Uiso   1.00
C157   C     0.78360   0.83670   0.51770   0.01267  Uiso   1.00
C158   C     0.84500   0.79780   0.57670   0.01267  Uiso   1.00
C159   C     0.93210   0.33410   0.70230   0.01267  Uiso   1.00
C160   C     0.91420   0.56590   0.71790   0.01267  Uiso   1.00
C161   C     0.82660   0.84500   0.44630   0.01267  Uiso   1.00
C162   C     0.76630   0.88040   0.39250   0.01267  Uiso   1.00
C163   C     0.83330   0.81700   0.65100   0.01267  Uiso   1.00
C164   C     0.91620   0.49210   0.71760   0.01267  Uiso   1.00
C165   C     0.96400   0.70020   0.61790   0.01267  Uiso   1.00
C166   C     0.91340   0.73930   0.56080   0.01267  Uiso   1.00
O167   O     0.50520   0.97342   0.36769   0.01267  Uiso   1.00
O168   O     0.92230   0.11050   0.71632   0.01267  Uiso   1.00
O169   O     0.64020   0.95100   0.28542   0.01267  Uiso   1.00
H170   H     0.75000  -0.00000   0.09118   0.01267  Uiso   1.00
Zn171  Zn    0.11039   0.99103   0.30242   0.01267  Uiso   1.00
H172   H     0.62600   0.20730   0.75670   0.01267  Uiso   1.00
H173   H     0.94950   0.07740   0.48970   0.01267  Uiso   1.00
H174   H     0.61660   0.76460   0.67040   0.01267  Uiso   1.00
H175   H     0.85090   0.13840   0.57970   0.01267  Uiso   1.00
H176   H     0.61390   0.64150   0.66930   0.01267  Uiso   1.00
H177   H     0.64530   0.40990   0.69620   0.01267  Uiso   1.00
H178   H     0.60350   0.17360   0.43490   0.01267  Uiso   1.00
H179   H     0.70420   0.11530   0.34480   0.01267  Uiso   1.00
H180   H     0.70970   0.14310   0.66300   0.01267  Uiso   1.00
H181   H     0.64190   0.53240   0.69450   0.01267  Uiso   1.00
H182   H     0.49140   0.33910   0.60640   0.01267  Uiso   1.00
H183   H     0.57450   0.27380   0.51150   0.01267  Uiso   1.00
C184   C     0.90150   0.05240   0.34930   0.01267  Uiso   1.00
C185   C     0.83730   0.09000   0.40770   0.01267  Uiso   1.00
C186   C     0.61630   0.22140   0.70750   0.01267  Uiso   1.00
C187   C     0.55190   0.28040   0.69150   0.01267  Uiso   1.00
C188   C     0.88030   0.09710   0.47830   0.01267  Uiso   1.00
C189   C     0.56910   0.74010   0.70250   0.01267  Uiso   1.00
C190   C     0.82050   0.13360   0.53240   0.01267  Uiso   1.00
C191   C     0.71640   0.16330   0.51770   0.01267  Uiso   1.00
C192   C     0.65500   0.20220   0.57670   0.01267  Uiso   1.00
C193   C     0.56790   0.66590   0.70230   0.01267  Uiso   1.00
C194   C     0.58580   0.43410   0.71790   0.01267  Uiso   1.00
C195   C     0.67340   0.15500   0.44630   0.01267  Uiso   1.00
C196   C     0.73370   0.11960   0.39250   0.01267  Uiso   1.00
C197   C     0.66670   0.18300   0.65100   0.01267  Uiso   1.00
C198   C     0.58380   0.50790   0.71760   0.01267  Uiso   1.00
C199   C     0.53600   0.29980   0.61790   0.01267  Uiso   1.00
C200   C     0.58660   0.26070   0.56080   0.01267  Uiso   1.00
O201   O     0.99480   0.02658   0.36769   0.01267  Uiso   1.00
O202   O     0.57770   0.88950   0.71632   0.01267  Uiso   1.00
O203   O     0.85980   0.04900   0.28542   0.01267  Uiso   1.00
Zn205  Zn    0.61039   0.00897   0.19758   0.01267  Uiso   1.00
H206   H     0.12600   0.79270   0.74330   0.01267  Uiso   1.00
H207   H     0.44950   0.92260   0.01030   0.01267  Uiso   1.00
H208   H     0.11660   0.23540   0.82960   0.01267  Uiso   1.00
H209   H     0.35090   0.86160   0.92030   0.01267  Uiso   1.00
H210   H     0.11390   0.35850   0.83070   0.01267  Uiso   1.00
H211   H     0.14530   0.59010   0.80380   0.01267  Uiso   1.00
H212   H     0.10350   0.82640   0.06510   0.01267  Uiso   1.00
H213   H     0.20420   0.88470   0.15520   0.01267  Uiso   1.00
H214   H     0.20970   0.85690   0.83700   0.01267  Uiso   1.00
H215   H     0.14190   0.46760   0.80550   0.01267  Uiso   1.00
H216   H     0.99140   0.66090   0.89360   0.01267  Uiso   1.00
H217   H     0.07450   0.72620   0.98850   0.01267  Uiso   1.00
C218   C     0.40150   0.94760   0.15070   0.01267  Uiso   1.00
C219   C     0.33730   0.91000   0.09230   0.01267  Uiso   1.00
C220   C     0.11630   0.77860   0.79250   0.01267  Uiso   1.00
C221   C     0.05190   0.71960   0.80850   0.01267  Uiso   1.00
C222   C     0.38030   0.90290   0.02170   0.01267  Uiso   1.00
C223   C     0.06910   0.25990   0.79750   0.01267  Uiso   1.00
C224   C     0.32050   0.86640   0.96760   0.01267  Uiso   1.00
C225   C     0.21640   0.83670   0.98230   0.01267  Uiso   1.00
C226   C     0.15500   0.79780   0.92330   0.01267  Uiso   1.00
C227   C     0.06790   0.33410   0.79770   0.01267  Uiso   1.00
C228   C     0.08580   0.56590   0.78210   0.01267  Uiso   1.00
C229   C     0.17340   0.84500   0.05370   0.01267  Uiso   1.00
C230   C     0.23370   0.88040   0.10750   0.01267  Uiso   1.00
C231   C     0.16670   0.81700   0.84900   0.01267  Uiso   1.00
C232   C     0.08380   0.49210   0.78240   0.01267  Uiso   1.00
C233   C     0.03600   0.70020   0.88210   0.01267  Uiso   1.00
C234   C     0.08660   0.73930   0.93920   0.01267  Uiso   1.00
O235   O     0.49480   0.97342   0.13231   0.01267  Uiso   1.00
O236   O     0.07770   0.11050   0.78368   0.01267  Uiso   1.00
O237   O     0.35980   0.95100   0.21458   0.01267  Uiso   1.00
H238   H     0.25000  -0.00000   0.40882   0.01267  Uiso   1.00
Zn239  Zn    0.88961   0.99103   0.19758   0.01267  Uiso   1.00
H240   H     0.37400   0.20730   0.74330   0.01267  Uiso   1.00
H241   H     0.05050   0.07740   0.01030   0.01267  Uiso   1.00
H242   H     0.38340   0.76460   0.82960   0.01267  Uiso   1.00
H243   H     0.14910   0.13840   0.92030   0.01267  Uiso   1.00
H244   H     0.38610   0.64150   0.83070   0.01267  Uiso   1.00
H245   H     0.35470   0.40990   0.80380   0.01267  Uiso   1.00
H246   H     0.39650   0.17360   0.06510   0.01267  Uiso   1.00
H247   H     0.29580   0.11530   0.15520   0.01267  Uiso   1.00
H248   H     0.29030   0.14310   0.83700   0.01267  Uiso   1.00
H249   H     0.35810   0.53240   0.80550   0.01267  Uiso   1.00
H250   H     0.50860   0.33910   0.89360   0.01267  Uiso   1.00
H251   H     0.42550   0.27380   0.98850   0.01267  Uiso   1.00
C252   C     0.09850   0.05240   0.15070   0.01267  Uiso   1.00
C253   C     0.16270   0.09000   0.09230   0.01267  Uiso   1.00
C254   C     0.38370   0.22140   0.79250   0.01267  Uiso   1.00
C255   C     0.44810   0.28040   0.80850   0.01267  Uiso   1.00
C256   C     0.11970   0.09710   0.02170   0.01267  Uiso   1.00
C257   C     0.43090   0.74010   0.79750   0.01267  Uiso   1.00
C258   C     0.17950   0.13360   0.96760   0.01267  Uiso   1.00
C259   C     0.28360   0.16330   0.98230   0.01267  Uiso   1.00
C260   C     0.34500   0.20220   0.92330   0.01267  Uiso   1.00
C261   C     0.43210   0.66590   0.79770   0.01267  Uiso   1.00
C262   C     0.41420   0.43410   0.78210   0.01267  Uiso   1.00
C263   C     0.32660   0.15500   0.05370   0.01267  Uiso   1.00
C264   C     0.26630   0.11960   0.10750   0.01267  Uiso   1.00
C265   C     0.33330   0.18300   0.84900   0.01267  Uiso   1.00
C266   C     0.41620   0.50790   0.78240   0.01267  Uiso   1.00
C267   C     0.46400   0.29980   0.88210   0.01267  Uiso   1.00
C268   C     0.41340   0.26070   0.93920   0.01267  Uiso   1.00
O269   O     0.00520   0.02658   0.13231   0.01267  Uiso   1.00
O270   O     0.42230   0.88950   0.78368   0.01267  Uiso   1.00
O271   O     0.14020   0.04900   0.21458   0.01267  Uiso   1.00
C273   C     0.00000   0.39580   0.25000   0.01267  Uiso   1.00
C274   C     0.00000   0.62680   0.25000   0.01267  Uiso   1.00
C275   C     0.00000   0.85870   0.25000   0.01267  Uiso   1.00
C276   C     0.00000   0.54710   0.25000   0.01267  Uiso   1.00
C277   C     0.00000   0.77820   0.25000   0.01267  Uiso   1.00
N278   N     0.00000   0.31960   0.25000   0.01267  Uiso   1.00
C279   C     0.50000   0.60420   0.25000   0.01267  Uiso   1.00
C280   C     0.50000   0.37320   0.25000   0.01267  Uiso   1.00
C281   C     0.50000   0.14130   0.25000   0.01267  Uiso   1.00
C282   C     0.50000   0.45290   0.25000   0.01267  Uiso   1.00
C283   C     0.50000   0.22180   0.25000   0.01267  Uiso   1.00
N284   N     0.50000   0.68040   0.25000   0.01267  Uiso   1.00
C285   C     0.00000   0.60420   0.75000   0.01267  Uiso   1.00
C286   C     0.00000   0.37320   0.75000   0.01267  Uiso   1.00
C287   C     0.00000   0.14130   0.75000   0.01267  Uiso   1.00
C288   C     0.00000   0.45290   0.75000   0.01267  Uiso   1.00
C289   C     0.00000   0.22180   0.75000   0.01267  Uiso   1.00
N290   N     0.00000   0.68040   0.75000   0.01267  Uiso   1.00
C291   C     0.50000   0.39580   0.75000   0.01267  Uiso   1.00
C292   C     0.50000   0.62680   0.75000   0.01267  Uiso   1.00
C293   C     0.50000   0.85870   0.75000   0.01267  Uiso   1.00
C294   C     0.50000   0.54710   0.75000   0.01267  Uiso   1.00
C295   C     0.50000   0.77820   0.75000   0.01267  Uiso   1.00
N296   N     0.50000   0.31960   0.75000   0.01267  Uiso   1.00
O297   O     0.75000   0.00000   0.64680   0.01267  Uiso   1.00
O298   O     0.25000   0.00000   0.85320   0.01267  Uiso   1.00
O299   O     0.25000   0.00000   0.35320   0.01267  Uiso   1.00
O300   O     0.75000   0.00000   0.14680   0.01267  Uiso   1.00
