data_image0
_cell_length_a       9.202
_cell_length_b       11.088
_cell_length_c       11.992
_cell_angle_alpha    108.58
_cell_angle_beta     91.4
_cell_angle_gamma    104.71

_symmetry_space_group_name_H-M    P 1
_symmetry_int_tables_number       1

loop_
  _symmetry_equiv_pos_as_xyz
  'x, y, z'

loop_
  _atom_site_label
  _atom_site_occupancy
  _atom_site_fract_x
  _atom_site_fract_y
  _atom_site_fract_z
  _atom_site_thermal_displace_type
  _atom_site_B_iso_or_equiv
  _atom_site_type_symbol
  Co1      1.0000 0.15461  0.26731  0.38008  Biso   1.000  Co
  Co2      1.0000 0.08090  0.70040  0.83640  Biso   1.000  Co
  Co3      1.0000 0.84539  0.73269  0.61992  Biso   1.000  Co
  Co4      1.0000 0.91910  0.29960  0.16360  Biso   1.000  Co
  Co5      1.0000 0.50000  0.50000  0.50000  Biso   1.000  Co
  H1       1.0000 0.80830  0.97020  0.43990  Biso   1.000  H
  H2       1.0000 0.55210  0.04740  0.21340  Biso   1.000  H
  H3       1.0000 0.36380  0.79560  0.37700  Biso   1.000  H
  H4       1.0000 0.84810  0.49500  0.88980  Biso   1.000  H
  H5       1.0000 0.46950  0.26920  0.96300  Biso   1.000  H
  H6       1.0000 0.43830  0.47120  0.74300  Biso   1.000  H
  H7       1.0000 0.64510  0.31660  0.29720  Biso   1.000  H
  H8       1.0000 0.03170  0.58450  0.40350  Biso   1.000  H
  H9       1.0000 0.19170  0.02980  0.56010  Biso   1.000  H
  H10      1.0000 0.44790  0.95260  0.78660  Biso   1.000  H
  H11      1.0000 0.63620  0.20440  0.62300  Biso   1.000  H
  H12      1.0000 0.15190  0.50500  0.11020  Biso   1.000  H
  H13      1.0000 0.53050  0.73080  0.03700  Biso   1.000  H
  H14      1.0000 0.56170  0.52880  0.25700  Biso   1.000  H
  H15      1.0000 0.35490  0.68340  0.70280  Biso   1.000  H
  H16      1.0000 0.96830  0.41550  0.59650  Biso   1.000  H
  C1       1.0000 0.61520  0.78430  0.48920  Biso   1.000  C
  C2       1.0000 0.58940  0.86490  0.41720  Biso   1.000  C
  C3       1.0000 0.71370  0.95540  0.40060  Biso   1.000  C
  C4       1.0000 0.69620  0.02440  0.32450  Biso   1.000  C
  C5       1.0000 0.56050  0.00760  0.26990  Biso   1.000  C
  C6       1.0000 0.43420  0.93160  0.29720  Biso   1.000  C
  C7       1.0000 0.44910  0.85470  0.36560  Biso   1.000  C
  C8       1.0000 0.83710  0.11050  0.29500  Biso   1.000  C
  C9       1.0000 0.71790  0.59240  0.74410  Biso   1.000  C
  C10      1.0000 0.64960  0.50340  0.81160  Biso   1.000  C
  C11      1.0000 0.74320  0.46510  0.88300  Biso   1.000  C
  C12      1.0000 0.67240  0.38260  0.94120  Biso   1.000  C
  C13      1.0000 0.51520  0.32880  0.92610  Biso   1.000  C
  C14      1.0000 0.42930  0.36810  0.85330  Biso   1.000  C
  C15      1.0000 0.49700  0.45070  0.79480  Biso   1.000  C
  C16      1.0000 0.75970  0.33970  0.02160  Biso   1.000  C
  C17      1.0000 0.71990  0.39380  0.33850  Biso   1.000  C
  C18      1.0000 0.93040  0.53850  0.39700  Biso   1.000  C
  C19      1.0000 0.38480  0.21570  0.51080  Biso   1.000  C
  C20      1.0000 0.41060  0.13510  0.58280  Biso   1.000  C
  C21      1.0000 0.28630  0.04460  0.59940  Biso   1.000  C
  C22      1.0000 0.30380  0.97560  0.67550  Biso   1.000  C
  C23      1.0000 0.43950  0.99240  0.73010  Biso   1.000  C
  C24      1.0000 0.56580  0.06840  0.70280  Biso   1.000  C
  C25      1.0000 0.55090  0.14530  0.63440  Biso   1.000  C
  C26      1.0000 0.16290  0.88950  0.70500  Biso   1.000  C
  C27      1.0000 0.28210  0.40760  0.25590  Biso   1.000  C
  C28      1.0000 0.35040  0.49660  0.18840  Biso   1.000  C
  C29      1.0000 0.25680  0.53490  0.11700  Biso   1.000  C
  C30      1.0000 0.32760  0.61740  0.05880  Biso   1.000  C
  C31      1.0000 0.48480  0.67120  0.07390  Biso   1.000  C
  C32      1.0000 0.57070  0.63190  0.14670  Biso   1.000  C
  C33      1.0000 0.50300  0.54930  0.20520  Biso   1.000  C
  C34      1.0000 0.24030  0.66030  0.97840  Biso   1.000  C
  C35      1.0000 0.28010  0.60620  0.66150  Biso   1.000  C
  C36      1.0000 0.06960  0.46150  0.60300  Biso   1.000  C
  N1       1.0000 0.83770  0.57820  0.47040  Biso   1.000  N
  N2       1.0000 0.70080  0.48350  0.42730  Biso   1.000  N
  N3       1.0000 0.86440  0.42390  0.31050  Biso   1.000  N
  N4       1.0000 0.28130  0.91750  0.24530  Biso   1.000  N
  N5       1.0000 0.26500  0.31010  0.83500  Biso   1.000  N
  N6       1.0000 0.16230  0.42180  0.52960  Biso   1.000  N
  N7       1.0000 0.29920  0.51650  0.57270  Biso   1.000  N
  N8       1.0000 0.13560  0.57610  0.68950  Biso   1.000  N
  N9       1.0000 0.71870  0.08250  0.75470  Biso   1.000  N
  N10      1.0000 0.73500  0.68990  0.16500  Biso   1.000  N
  O1       1.0000 0.95090  0.15630  0.37480  Biso   1.000  O
  O2       1.0000 0.72870  0.82620  0.56230  Biso   1.000  O
  O3       1.0000 0.64080  0.60980  0.66890  Biso   1.000  O
  O4       1.0000 0.85990  0.65510  0.76070  Biso   1.000  O
  O5       1.0000 0.51340  0.67780  0.47010  Biso   1.000  O
  O6       1.0000 0.82970  0.13790  0.20620  Biso   1.000  O
  O7       1.0000 0.90340  0.38400  0.03730  Biso   1.000  O
  O8       1.0000 0.69410  0.27230  0.07620  Biso   1.000  O
  O9       1.0000 0.27500  0.98450  0.18610  Biso   1.000  O
  O10      1.0000 0.17510  0.84090  0.26450  Biso   1.000  O
  O11      1.0000 0.21020  0.24360  0.89100  Biso   1.000  O
  O12      1.0000 0.19730  0.34110  0.77010  Biso   1.000  O
  O13      1.0000 0.04910  0.84370  0.62520  Biso   1.000  O
  O14      1.0000 0.27130  0.17380  0.43770  Biso   1.000  O
  O15      1.0000 0.35920  0.39020  0.33110  Biso   1.000  O
  O16      1.0000 0.14010  0.34490  0.23930  Biso   1.000  O
  O17      1.0000 0.48660  0.32220  0.52990  Biso   1.000  O
  O18      1.0000 0.17030  0.86210  0.79380  Biso   1.000  O
  O19      1.0000 0.09660  0.61600  0.96270  Biso   1.000  O
  O20      1.0000 0.30590  0.72770  0.92380  Biso   1.000  O
  O21      1.0000 0.72500  0.01550  0.81390  Biso   1.000  O
  O22      1.0000 0.82490  0.15910  0.73550  Biso   1.000  O
  O23      1.0000 0.78980  0.75640  0.10900  Biso   1.000  O
  O24      1.0000 0.80270  0.65890  0.22990  Biso   1.000  O
