data_image0
_cell_length_a       21.1051
_cell_length_b       21.1051
_cell_length_c       34.8884
_cell_angle_alpha    90
_cell_angle_beta     90
_cell_angle_gamma    120

_symmetry_space_group_name_H-M    "P 1"
_symmetry_int_tables_number       1

loop_
  _symmetry_equiv_pos_as_xyz
  'x, y, z'

loop_
  _atom_site_label
  _atom_site_occupancy
  _atom_site_fract_x
  _atom_site_fract_y
  _atom_site_fract_z
  _atom_site_thermal_displace_type
  _atom_site_B_iso_or_equiv
  _atom_site_type_symbol
  Al1      1.0000 0.28272  0.07419  0.51538  Biso   1.000  Al
  O1       1.0000 0.31486  0.10464  0.56846  Biso   1.000  O
  C1       1.0000 0.32761  0.10613  0.64679  Biso   1.000  C
  O2       1.0000 0.36792  0.05859  0.51170  Biso   1.000  O
  C2       1.0000 0.43749  0.94091  0.48589  Biso   1.000  C
  O3       1.0000 0.24815  0.02100  0.46882  Biso   1.000  O
  C3       1.0000 0.27020  0.06010  0.43210  Biso   1.000  C
  Al2      1.0000 0.94939  0.40752  0.84871  Biso   1.000  Al
  O4       1.0000 0.98153  0.43797  0.90179  Biso   1.000  O
  C4       1.0000 0.99428  0.43946  0.98012  Biso   1.000  C
  O5       1.0000 0.03459  0.39192  0.84503  Biso   1.000  O
  C5       1.0000 0.10416  0.27424  0.81922  Biso   1.000  C
  O6       1.0000 0.91482  0.35433  0.80215  Biso   1.000  O
  C6       1.0000 0.93687  0.39343  0.76543  Biso   1.000  C
  Al3      1.0000 0.61605  0.74086  0.18205  Biso   1.000  Al
  O7       1.0000 0.64819  0.77131  0.23513  Biso   1.000  O
  C7       1.0000 0.66094  0.77280  0.31346  Biso   1.000  C
  O8       1.0000 0.70125  0.72526  0.17837  Biso   1.000  O
  C8       1.0000 0.77082  0.60758  0.15256  Biso   1.000  C
  O9       1.0000 0.58148  0.68767  0.13549  Biso   1.000  O
  C9       1.0000 0.60353  0.72677  0.09877  Biso   1.000  C
  Al4      1.0000 0.92581  0.20853  0.51538  Biso   1.000  Al
  O10      1.0000 0.89536  0.21022  0.56846  Biso   1.000  O
  C10      1.0000 0.89387  0.22148  0.64679  Biso   1.000  C
  O11      1.0000 0.94141  0.30933  0.51170  Biso   1.000  O
  C11      1.0000 0.05909  0.49658  0.48589  Biso   1.000  C
  O12      1.0000 0.97900  0.22715  0.46882  Biso   1.000  O
  C12      1.0000 0.93990  0.21010  0.43210  Biso   1.000  C
  Al5      1.0000 0.59248  0.54186  0.84871  Biso   1.000  Al
  O13      1.0000 0.56203  0.54355  0.90179  Biso   1.000  O
  C13      1.0000 0.56054  0.55481  0.98012  Biso   1.000  C
  O14      1.0000 0.60808  0.64266  0.84503  Biso   1.000  O
  C14      1.0000 0.72576  0.82991  0.81922  Biso   1.000  C
  O15      1.0000 0.64567  0.56048  0.80215  Biso   1.000  O
  C15      1.0000 0.60657  0.54343  0.76543  Biso   1.000  C
  Al6      1.0000 0.25914  0.87520  0.18205  Biso   1.000  Al
  O16      1.0000 0.22869  0.87689  0.23513  Biso   1.000  O
  C16      1.0000 0.22720  0.88815  0.31346  Biso   1.000  C
  O17      1.0000 0.27474  0.97600  0.17837  Biso   1.000  O
  C17      1.0000 0.39242  0.16325  0.15256  Biso   1.000  C
  O18      1.0000 0.31233  0.89382  0.13549  Biso   1.000  O
  C18      1.0000 0.27323  0.87677  0.09877  Biso   1.000  C
  Al7      1.0000 0.79147  0.71728  0.51538  Biso   1.000  Al
  O19      1.0000 0.78978  0.68514  0.56846  Biso   1.000  O
  C19      1.0000 0.77852  0.67239  0.64679  Biso   1.000  C
  O20      1.0000 0.69067  0.63208  0.51170  Biso   1.000  O
  C20      1.0000 0.50342  0.56251  0.48589  Biso   1.000  C
  O21      1.0000 0.77285  0.75185  0.46882  Biso   1.000  O
  C21      1.0000 0.78990  0.72980  0.43210  Biso   1.000  C
  Al8      1.0000 0.45814  0.05061  0.84871  Biso   1.000  Al
  O22      1.0000 0.45645  0.01847  0.90179  Biso   1.000  O
  C22      1.0000 0.44519  0.00572  0.98012  Biso   1.000  C
  O23      1.0000 0.35734  0.96541  0.84503  Biso   1.000  O
  C23      1.0000 0.17009  0.89584  0.81922  Biso   1.000  C
  O24      1.0000 0.43952  0.08518  0.80215  Biso   1.000  O
  C24      1.0000 0.45657  0.06313  0.76543  Biso   1.000  C
  Al9      1.0000 0.12480  0.38395  0.18205  Biso   1.000  Al
  O25      1.0000 0.12311  0.35181  0.23513  Biso   1.000  O
  C25      1.0000 0.11185  0.33906  0.31346  Biso   1.000  C
  O26      1.0000 0.02400  0.29875  0.17837  Biso   1.000  O
  C26      1.0000 0.83675  0.22918  0.15256  Biso   1.000  C
  O27      1.0000 0.10618  0.41852  0.13549  Biso   1.000  O
  C27      1.0000 0.12323  0.39647  0.09877  Biso   1.000  C
  Al10     1.0000 0.07419  0.28272  0.48462  Biso   1.000  Al
  O28      1.0000 0.10464  0.31486  0.43154  Biso   1.000  O
  C28      1.0000 0.10613  0.32761  0.35321  Biso   1.000  C
  O29      1.0000 0.05859  0.36792  0.48830  Biso   1.000  O
  C29      1.0000 0.94091  0.43749  0.51411  Biso   1.000  C
  O30      1.0000 0.02100  0.24815  0.53118  Biso   1.000  O
  C30      1.0000 0.06010  0.27020  0.56790  Biso   1.000  C
  Al11     1.0000 0.74086  0.61605  0.81795  Biso   1.000  Al
  O31      1.0000 0.77131  0.64819  0.76487  Biso   1.000  O
  C31      1.0000 0.77280  0.66094  0.68654  Biso   1.000  C
  O32      1.0000 0.72526  0.70125  0.82163  Biso   1.000  O
  C32      1.0000 0.60758  0.77082  0.84744  Biso   1.000  C
  O33      1.0000 0.68767  0.58148  0.86451  Biso   1.000  O
  C33      1.0000 0.72677  0.60353  0.90123  Biso   1.000  C
  Al12     1.0000 0.40752  0.94939  0.15129  Biso   1.000  Al
  O34      1.0000 0.43797  0.98153  0.09821  Biso   1.000  O
  C34      1.0000 0.43946  0.99428  0.01988  Biso   1.000  C
  O35      1.0000 0.39192  0.03459  0.15497  Biso   1.000  O
  C35      1.0000 0.27424  0.10416  0.18078  Biso   1.000  C
  O36      1.0000 0.35433  0.91482  0.19785  Biso   1.000  O
  C36      1.0000 0.39343  0.93687  0.23457  Biso   1.000  C
  Al13     1.0000 0.20853  0.92581  0.48462  Biso   1.000  Al
  O37      1.0000 0.21022  0.89536  0.43154  Biso   1.000  O
  C37      1.0000 0.22148  0.89387  0.35321  Biso   1.000  C
  O38      1.0000 0.30933  0.94141  0.48830  Biso   1.000  O
  C38      1.0000 0.49658  0.05909  0.51411  Biso   1.000  C
  O39      1.0000 0.22715  0.97900  0.53118  Biso   1.000  O
  C39      1.0000 0.21010  0.93990  0.56790  Biso   1.000  C
  Al14     1.0000 0.87520  0.25914  0.81795  Biso   1.000  Al
  O40      1.0000 0.87689  0.22869  0.76487  Biso   1.000  O
  C40      1.0000 0.88815  0.22720  0.68654  Biso   1.000  C
  O41      1.0000 0.97600  0.27474  0.82163  Biso   1.000  O
  C41      1.0000 0.16325  0.39242  0.84744  Biso   1.000  C
  O42      1.0000 0.89382  0.31233  0.86451  Biso   1.000  O
  C42      1.0000 0.87677  0.27323  0.90123  Biso   1.000  C
  Al15     1.0000 0.54186  0.59248  0.15129  Biso   1.000  Al
  O43      1.0000 0.54355  0.56203  0.09821  Biso   1.000  O
  C43      1.0000 0.55481  0.56054  0.01988  Biso   1.000  C
  O44      1.0000 0.64266  0.60808  0.15497  Biso   1.000  O
  C44      1.0000 0.82991  0.72576  0.18078  Biso   1.000  C
  O45      1.0000 0.56048  0.64567  0.19785  Biso   1.000  O
  C45      1.0000 0.54343  0.60657  0.23457  Biso   1.000  C
  Al16     1.0000 0.71728  0.79147  0.48462  Biso   1.000  Al
  O46      1.0000 0.68514  0.78978  0.43154  Biso   1.000  O
  C46      1.0000 0.67239  0.77852  0.35321  Biso   1.000  C
  O47      1.0000 0.63208  0.69067  0.48830  Biso   1.000  O
  C47      1.0000 0.56251  0.50342  0.51411  Biso   1.000  C
  O48      1.0000 0.75185  0.77285  0.53118  Biso   1.000  O
  C48      1.0000 0.72980  0.78990  0.56790  Biso   1.000  C
  Al17     1.0000 0.38395  0.12480  0.81795  Biso   1.000  Al
  O49      1.0000 0.35181  0.12311  0.76487  Biso   1.000  O
  C49      1.0000 0.33906  0.11185  0.68654  Biso   1.000  C
  O50      1.0000 0.29875  0.02400  0.82163  Biso   1.000  O
  C50      1.0000 0.22918  0.83675  0.84744  Biso   1.000  C
  O51      1.0000 0.41852  0.10618  0.86451  Biso   1.000  O
  C51      1.0000 0.39647  0.12323  0.90123  Biso   1.000  C
  Al18     1.0000 0.05061  0.45814  0.15129  Biso   1.000  Al
  O52      1.0000 0.01847  0.45645  0.09821  Biso   1.000  O
  C52      1.0000 0.00572  0.44519  0.01988  Biso   1.000  C
  O53      1.0000 0.96541  0.35734  0.15497  Biso   1.000  O
  C53      1.0000 0.89584  0.17009  0.18078  Biso   1.000  C
  O54      1.0000 0.08518  0.43952  0.19785  Biso   1.000  O
  C54      1.0000 0.06313  0.45657  0.23457  Biso   1.000  C
  Al19     1.0000 0.71728  0.92581  0.48462  Biso   1.000  Al
  O55      1.0000 0.68514  0.89536  0.43154  Biso   1.000  O
  C55      1.0000 0.67239  0.89387  0.35321  Biso   1.000  C
  O56      1.0000 0.63208  0.94141  0.48830  Biso   1.000  O
  C56      1.0000 0.56251  0.05909  0.51411  Biso   1.000  C
  O57      1.0000 0.75185  0.97900  0.53118  Biso   1.000  O
  C57      1.0000 0.72980  0.93990  0.56790  Biso   1.000  C
  Al20     1.0000 0.38395  0.25914  0.81795  Biso   1.000  Al
  O58      1.0000 0.35181  0.22869  0.76487  Biso   1.000  O
  C58      1.0000 0.33906  0.22720  0.68654  Biso   1.000  C
  O59      1.0000 0.29875  0.27474  0.82163  Biso   1.000  O
  C59      1.0000 0.22918  0.39242  0.84744  Biso   1.000  C
  O60      1.0000 0.41852  0.31233  0.86451  Biso   1.000  O
  C60      1.0000 0.39647  0.27323  0.90123  Biso   1.000  C
  Al21     1.0000 0.05061  0.59248  0.15129  Biso   1.000  Al
  O61      1.0000 0.01847  0.56203  0.09821  Biso   1.000  O
  C61      1.0000 0.00572  0.56054  0.01988  Biso   1.000  C
  O62      1.0000 0.96541  0.60808  0.15497  Biso   1.000  O
  C62      1.0000 0.89584  0.72576  0.18078  Biso   1.000  C
  O63      1.0000 0.08518  0.64567  0.19785  Biso   1.000  O
  C63      1.0000 0.06313  0.60657  0.23457  Biso   1.000  C
  Al22     1.0000 0.07419  0.79147  0.48462  Biso   1.000  Al
  O64      1.0000 0.10464  0.78978  0.43154  Biso   1.000  O
  C64      1.0000 0.10613  0.77852  0.35321  Biso   1.000  C
  O65      1.0000 0.05859  0.69067  0.48830  Biso   1.000  O
  C65      1.0000 0.94091  0.50342  0.51411  Biso   1.000  C
  O66      1.0000 0.02100  0.77285  0.53118  Biso   1.000  O
  C66      1.0000 0.06010  0.78990  0.56790  Biso   1.000  C
  Al23     1.0000 0.74086  0.12480  0.81795  Biso   1.000  Al
  O67      1.0000 0.77131  0.12311  0.76487  Biso   1.000  O
  C67      1.0000 0.77280  0.11185  0.68654  Biso   1.000  C
  O68      1.0000 0.72526  0.02400  0.82163  Biso   1.000  O
  C68      1.0000 0.60758  0.83675  0.84744  Biso   1.000  C
  O69      1.0000 0.68767  0.10618  0.86451  Biso   1.000  O
  C69      1.0000 0.72677  0.12323  0.90123  Biso   1.000  C
  Al24     1.0000 0.40752  0.45814  0.15129  Biso   1.000  Al
  O70      1.0000 0.43797  0.45645  0.09821  Biso   1.000  O
  C70      1.0000 0.43946  0.44519  0.01988  Biso   1.000  C
  O71      1.0000 0.39192  0.35734  0.15497  Biso   1.000  O
  C71      1.0000 0.27424  0.17009  0.18078  Biso   1.000  C
  O72      1.0000 0.35433  0.43952  0.19785  Biso   1.000  O
  C72      1.0000 0.39343  0.45657  0.23457  Biso   1.000  C
  Al25     1.0000 0.20853  0.28272  0.48462  Biso   1.000  Al
  O73      1.0000 0.21022  0.31486  0.43154  Biso   1.000  O
  C73      1.0000 0.22148  0.32761  0.35321  Biso   1.000  C
  O74      1.0000 0.30933  0.36792  0.48830  Biso   1.000  O
  C74      1.0000 0.49658  0.43749  0.51411  Biso   1.000  C
  O75      1.0000 0.22715  0.24815  0.53118  Biso   1.000  O
  C75      1.0000 0.21010  0.27020  0.56790  Biso   1.000  C
  Al26     1.0000 0.87520  0.61605  0.81795  Biso   1.000  Al
  O76      1.0000 0.87689  0.64819  0.76487  Biso   1.000  O
  C76      1.0000 0.88815  0.66094  0.68654  Biso   1.000  C
  O77      1.0000 0.97600  0.70125  0.82163  Biso   1.000  O
  C77      1.0000 0.16325  0.77082  0.84744  Biso   1.000  C
  O78      1.0000 0.89382  0.58148  0.86451  Biso   1.000  O
  C78      1.0000 0.87677  0.60353  0.90123  Biso   1.000  C
  Al27     1.0000 0.54186  0.94939  0.15129  Biso   1.000  Al
  O79      1.0000 0.54355  0.98153  0.09821  Biso   1.000  O
  C79      1.0000 0.55481  0.99428  0.01988  Biso   1.000  C
  O80      1.0000 0.64266  0.03459  0.15497  Biso   1.000  O
  C80      1.0000 0.82991  0.10416  0.18078  Biso   1.000  C
  O81      1.0000 0.56048  0.91482  0.19785  Biso   1.000  O
  C81      1.0000 0.54343  0.93687  0.23457  Biso   1.000  C
  Al28     1.0000 0.92581  0.71728  0.51538  Biso   1.000  Al
  O82      1.0000 0.89536  0.68514  0.56846  Biso   1.000  O
  C82      1.0000 0.89387  0.67239  0.64679  Biso   1.000  C
  O83      1.0000 0.94141  0.63208  0.51170  Biso   1.000  O
  C83      1.0000 0.05909  0.56251  0.48589  Biso   1.000  C
  O84      1.0000 0.97900  0.75185  0.46882  Biso   1.000  O
  C84      1.0000 0.93990  0.72980  0.43210  Biso   1.000  C
  Al29     1.0000 0.59248  0.05061  0.84871  Biso   1.000  Al
  O85      1.0000 0.56203  0.01847  0.90179  Biso   1.000  O
  C85      1.0000 0.56054  0.00572  0.98012  Biso   1.000  C
  O86      1.0000 0.60808  0.96541  0.84503  Biso   1.000  O
  C86      1.0000 0.72576  0.89584  0.81922  Biso   1.000  C
  O87      1.0000 0.64567  0.08518  0.80215  Biso   1.000  O
  C87      1.0000 0.60657  0.06313  0.76543  Biso   1.000  C
  Al30     1.0000 0.25914  0.38395  0.18205  Biso   1.000  Al
  O88      1.0000 0.22869  0.35181  0.23513  Biso   1.000  O
  C88      1.0000 0.22720  0.33906  0.31346  Biso   1.000  C
  O89      1.0000 0.27474  0.29875  0.17837  Biso   1.000  O
  C89      1.0000 0.39242  0.22918  0.15256  Biso   1.000  C
  O90      1.0000 0.31233  0.41852  0.13549  Biso   1.000  O
  C90      1.0000 0.27323  0.39647  0.09877  Biso   1.000  C
  Al31     1.0000 0.79147  0.07419  0.51538  Biso   1.000  Al
  O91      1.0000 0.78978  0.10464  0.56846  Biso   1.000  O
  C91      1.0000 0.77852  0.10613  0.64679  Biso   1.000  C
  O92      1.0000 0.69067  0.05859  0.51170  Biso   1.000  O
  C92      1.0000 0.50342  0.94091  0.48589  Biso   1.000  C
  O93      1.0000 0.77285  0.02100  0.46882  Biso   1.000  O
  C93      1.0000 0.78990  0.06010  0.43210  Biso   1.000  C
  Al32     1.0000 0.45814  0.40752  0.84871  Biso   1.000  Al
  O94      1.0000 0.45645  0.43797  0.90179  Biso   1.000  O
  C94      1.0000 0.44519  0.43946  0.98012  Biso   1.000  C
  O95      1.0000 0.35734  0.39192  0.84503  Biso   1.000  O
  C95      1.0000 0.17009  0.27424  0.81922  Biso   1.000  C
  O96      1.0000 0.43952  0.35433  0.80215  Biso   1.000  O
  C96      1.0000 0.45657  0.39343  0.76543  Biso   1.000  C
  Al33     1.0000 0.12480  0.74086  0.18205  Biso   1.000  Al
  O97      1.0000 0.12311  0.77131  0.23513  Biso   1.000  O
  C97      1.0000 0.11185  0.77280  0.31346  Biso   1.000  C
  O98      1.0000 0.02400  0.72526  0.17837  Biso   1.000  O
  C98      1.0000 0.83675  0.60758  0.15256  Biso   1.000  C
  O99      1.0000 0.10618  0.68767  0.13549  Biso   1.000  O
  C99      1.0000 0.12323  0.72677  0.09877  Biso   1.000  C
  Al34     1.0000 0.28272  0.20853  0.51538  Biso   1.000  Al
  O100     1.0000 0.31486  0.21022  0.56846  Biso   1.000  O
  C100     1.0000 0.32761  0.22148  0.64679  Biso   1.000  C
  O101     1.0000 0.36792  0.30933  0.51170  Biso   1.000  O
  C101     1.0000 0.43749  0.49658  0.48589  Biso   1.000  C
  O102     1.0000 0.24815  0.22715  0.46882  Biso   1.000  O
  C102     1.0000 0.27020  0.21010  0.43210  Biso   1.000  C
  Al35     1.0000 0.94939  0.54186  0.84871  Biso   1.000  Al
  O103     1.0000 0.98153  0.54355  0.90179  Biso   1.000  O
  C103     1.0000 0.99428  0.55481  0.98012  Biso   1.000  C
  O104     1.0000 0.03459  0.64266  0.84503  Biso   1.000  O
  C104     1.0000 0.10416  0.82991  0.81922  Biso   1.000  C
  O105     1.0000 0.91482  0.56048  0.80215  Biso   1.000  O
  C105     1.0000 0.93687  0.54343  0.76543  Biso   1.000  C
  Al36     1.0000 0.61605  0.87520  0.18205  Biso   1.000  Al
  O106     1.0000 0.64819  0.87689  0.23513  Biso   1.000  O
  C106     1.0000 0.66094  0.88815  0.31346  Biso   1.000  C
  O107     1.0000 0.70125  0.97600  0.17837  Biso   1.000  O
  C107     1.0000 0.77082  0.16325  0.15256  Biso   1.000  C
  O108     1.0000 0.58148  0.89382  0.13549  Biso   1.000  O
  C108     1.0000 0.60353  0.87677  0.09877  Biso   1.000  C
  C109     1.0000 0.31580  0.15790  0.58317  Biso   1.000  C
  C110     1.0000 0.32542  0.16271  0.62703  Biso   1.000  C
  O109     1.0000 0.34370  0.17185  0.49654  Biso   1.000  O
  C111     1.0000 0.42110  0.21055  0.48467  Biso   1.000  C
  O110     1.0000 0.21490  0.10745  0.52161  Biso   1.000  O
  C112     1.0000 0.14000  0.07000  0.54032  Biso   1.000  C
  C113     1.0000 0.98247  0.49123  0.91650  Biso   1.000  C
  C114     1.0000 0.99209  0.49604  0.96036  Biso   1.000  C
  O111     1.0000 0.01037  0.50518  0.82987  Biso   1.000  O
  C115     1.0000 0.08777  0.54388  0.81800  Biso   1.000  C
  O112     1.0000 0.88157  0.44078  0.85494  Biso   1.000  O
  C116     1.0000 0.80667  0.40333  0.87365  Biso   1.000  C
  C117     1.0000 0.64913  0.82457  0.24984  Biso   1.000  C
  C118     1.0000 0.65875  0.82938  0.29370  Biso   1.000  C
  O113     1.0000 0.67703  0.83852  0.16321  Biso   1.000  O
  C119     1.0000 0.75443  0.87722  0.15134  Biso   1.000  C
  O114     1.0000 0.54823  0.77412  0.18828  Biso   1.000  O
  C120     1.0000 0.47333  0.73667  0.20699  Biso   1.000  C
  C121     1.0000 0.84210  0.15790  0.58317  Biso   1.000  C
  C122     1.0000 0.83729  0.16271  0.62703  Biso   1.000  C
  O115     1.0000 0.82815  0.17185  0.49654  Biso   1.000  O
  C123     1.0000 0.78945  0.21055  0.48467  Biso   1.000  C
  O116     1.0000 0.89255  0.10745  0.52161  Biso   1.000  O
  C124     1.0000 0.93000  0.07000  0.54032  Biso   1.000  C
  C125     1.0000 0.50877  0.49123  0.91650  Biso   1.000  C
  C126     1.0000 0.50396  0.49604  0.96036  Biso   1.000  C
  O117     1.0000 0.49482  0.50518  0.82987  Biso   1.000  O
  C127     1.0000 0.45612  0.54388  0.81800  Biso   1.000  C
  O118     1.0000 0.55922  0.44078  0.85494  Biso   1.000  O
  C128     1.0000 0.59667  0.40333  0.87365  Biso   1.000  C
  C129     1.0000 0.17543  0.82457  0.24984  Biso   1.000  C
  C130     1.0000 0.17062  0.82938  0.29370  Biso   1.000  C
  O119     1.0000 0.16148  0.83852  0.16321  Biso   1.000  O
  C131     1.0000 0.12278  0.87722  0.15134  Biso   1.000  C
  O120     1.0000 0.22588  0.77412  0.18828  Biso   1.000  O
  C132     1.0000 0.26333  0.73667  0.20699  Biso   1.000  C
  C133     1.0000 0.84210  0.68420  0.58317  Biso   1.000  C
  C134     1.0000 0.83729  0.67458  0.62703  Biso   1.000  C
  O121     1.0000 0.82815  0.65630  0.49654  Biso   1.000  O
  C135     1.0000 0.78945  0.57890  0.48467  Biso   1.000  C
  O122     1.0000 0.89255  0.78510  0.52161  Biso   1.000  O
  C136     1.0000 0.93000  0.86000  0.54032  Biso   1.000  C
  C137     1.0000 0.50877  0.01753  0.91650  Biso   1.000  C
  C138     1.0000 0.50396  0.00791  0.96036  Biso   1.000  C
  O123     1.0000 0.49482  0.98963  0.82987  Biso   1.000  O
  C139     1.0000 0.45612  0.91223  0.81800  Biso   1.000  C
  O124     1.0000 0.55922  0.11843  0.85494  Biso   1.000  O
  C140     1.0000 0.59667  0.19333  0.87365  Biso   1.000  C
  C141     1.0000 0.17543  0.35087  0.24984  Biso   1.000  C
  C142     1.0000 0.17062  0.34125  0.29370  Biso   1.000  C
  O125     1.0000 0.16148  0.32297  0.16321  Biso   1.000  O
  C143     1.0000 0.12278  0.24557  0.15134  Biso   1.000  C
  O126     1.0000 0.22588  0.45177  0.18828  Biso   1.000  O
  C144     1.0000 0.26333  0.52667  0.20699  Biso   1.000  C
  C145     1.0000 0.15790  0.31580  0.41683  Biso   1.000  C
  C146     1.0000 0.16271  0.32542  0.37297  Biso   1.000  C
  O127     1.0000 0.17185  0.34370  0.50346  Biso   1.000  O
  C147     1.0000 0.21055  0.42110  0.51533  Biso   1.000  C
  O128     1.0000 0.10745  0.21490  0.47839  Biso   1.000  O
  C148     1.0000 0.07000  0.14000  0.45968  Biso   1.000  C
  C149     1.0000 0.82457  0.64913  0.75016  Biso   1.000  C
  C150     1.0000 0.82938  0.65875  0.70630  Biso   1.000  C
  O129     1.0000 0.83852  0.67703  0.83679  Biso   1.000  O
  C151     1.0000 0.87722  0.75443  0.84866  Biso   1.000  C
  O130     1.0000 0.77412  0.54823  0.81172  Biso   1.000  O
  C152     1.0000 0.73667  0.47333  0.79301  Biso   1.000  C
  C153     1.0000 0.49123  0.98247  0.08350  Biso   1.000  C
  C154     1.0000 0.49604  0.99209  0.03964  Biso   1.000  C
  O131     1.0000 0.50518  0.01037  0.17013  Biso   1.000  O
  C155     1.0000 0.54388  0.08777  0.18200  Biso   1.000  C
  O132     1.0000 0.44078  0.88157  0.14506  Biso   1.000  O
  C156     1.0000 0.40333  0.80667  0.12635  Biso   1.000  C
  C157     1.0000 0.15790  0.84210  0.41683  Biso   1.000  C
  C158     1.0000 0.16271  0.83729  0.37297  Biso   1.000  C
  O133     1.0000 0.17185  0.82815  0.50346  Biso   1.000  O
  C159     1.0000 0.21055  0.78945  0.51533  Biso   1.000  C
  O134     1.0000 0.10745  0.89255  0.47839  Biso   1.000  O
  C160     1.0000 0.07000  0.93000  0.45968  Biso   1.000  C
  C161     1.0000 0.82457  0.17543  0.75016  Biso   1.000  C
  C162     1.0000 0.82938  0.17062  0.70630  Biso   1.000  C
  O135     1.0000 0.83852  0.16148  0.83679  Biso   1.000  O
  C163     1.0000 0.87722  0.12278  0.84866  Biso   1.000  C
  O136     1.0000 0.77412  0.22588  0.81172  Biso   1.000  O
  C164     1.0000 0.73667  0.26333  0.79301  Biso   1.000  C
  C165     1.0000 0.49123  0.50877  0.08350  Biso   1.000  C
  C166     1.0000 0.49604  0.50396  0.03964  Biso   1.000  C
  O137     1.0000 0.50518  0.49482  0.17013  Biso   1.000  O
  C167     1.0000 0.54388  0.45612  0.18200  Biso   1.000  C
  O138     1.0000 0.44078  0.55922  0.14506  Biso   1.000  O
  C168     1.0000 0.40333  0.59667  0.12635  Biso   1.000  C
  C169     1.0000 0.68420  0.84210  0.41683  Biso   1.000  C
  C170     1.0000 0.67458  0.83729  0.37297  Biso   1.000  C
  O139     1.0000 0.65630  0.82815  0.50346  Biso   1.000  O
  C171     1.0000 0.57890  0.78945  0.51533  Biso   1.000  C
  O140     1.0000 0.78510  0.89255  0.47839  Biso   1.000  O
  C172     1.0000 0.86000  0.93000  0.45968  Biso   1.000  C
  C173     1.0000 0.35087  0.17543  0.75016  Biso   1.000  C
  C174     1.0000 0.34125  0.17062  0.70630  Biso   1.000  C
  O141     1.0000 0.32297  0.16148  0.83679  Biso   1.000  O
  C175     1.0000 0.24557  0.12278  0.84866  Biso   1.000  C
  O142     1.0000 0.45177  0.22588  0.81172  Biso   1.000  O
  C176     1.0000 0.52667  0.26333  0.79301  Biso   1.000  C
  C177     1.0000 0.01753  0.50877  0.08350  Biso   1.000  C
  C178     1.0000 0.00791  0.50396  0.03964  Biso   1.000  C
  O143     1.0000 0.98963  0.49482  0.17013  Biso   1.000  O
  C179     1.0000 0.91223  0.45612  0.18200  Biso   1.000  C
  O144     1.0000 0.11843  0.55922  0.14506  Biso   1.000  O
  C180     1.0000 0.19333  0.59667  0.12635  Biso   1.000  C
  C181     1.0000 0.36092  0.00000  0.50000  Biso   1.000  C
  C182     1.0000 0.43397  0.00000  0.50000  Biso   1.000  C
  C183     1.0000 0.02759  0.33333  0.83333  Biso   1.000  C
  C184     1.0000 0.10064  0.33333  0.83333  Biso   1.000  C
  C185     1.0000 0.69425  0.66667  0.16667  Biso   1.000  C
  C186     1.0000 0.76730  0.66667  0.16667  Biso   1.000  C
  C187     1.0000 0.00000  0.36092  0.50000  Biso   1.000  C
  C188     1.0000 0.00000  0.43397  0.50000  Biso   1.000  C
  C189     1.0000 0.66667  0.69425  0.83333  Biso   1.000  C
  C190     1.0000 0.66667  0.76730  0.83333  Biso   1.000  C
  C191     1.0000 0.33333  0.02759  0.16667  Biso   1.000  C
  C192     1.0000 0.33333  0.10064  0.16667  Biso   1.000  C
  C193     1.0000 0.63908  0.63908  0.50000  Biso   1.000  C
  C194     1.0000 0.56603  0.56603  0.50000  Biso   1.000  C
  C195     1.0000 0.30575  0.97241  0.83333  Biso   1.000  C
  C196     1.0000 0.23270  0.89936  0.83333  Biso   1.000  C
  C197     1.0000 0.97241  0.30575  0.16667  Biso   1.000  C
  C198     1.0000 0.89936  0.23270  0.16667  Biso   1.000  C
  C199     1.0000 0.63908  0.00000  0.50000  Biso   1.000  C
  C200     1.0000 0.56603  0.00000  0.50000  Biso   1.000  C
  C201     1.0000 0.30575  0.33333  0.83333  Biso   1.000  C
  C202     1.0000 0.23270  0.33333  0.83333  Biso   1.000  C
  C203     1.0000 0.97241  0.66667  0.16667  Biso   1.000  C
  C204     1.0000 0.89936  0.66667  0.16667  Biso   1.000  C
  C205     1.0000 0.00000  0.63908  0.50000  Biso   1.000  C
  C206     1.0000 0.00000  0.56603  0.50000  Biso   1.000  C
  C207     1.0000 0.66667  0.97241  0.83333  Biso   1.000  C
  C208     1.0000 0.66667  0.89936  0.83333  Biso   1.000  C
  C209     1.0000 0.33333  0.30575  0.16667  Biso   1.000  C
  C210     1.0000 0.33333  0.23270  0.16667  Biso   1.000  C
  C211     1.0000 0.36092  0.36092  0.50000  Biso   1.000  C
  C212     1.0000 0.43397  0.43397  0.50000  Biso   1.000  C
  C213     1.0000 0.02759  0.69425  0.83333  Biso   1.000  C
  C214     1.0000 0.10064  0.76730  0.83333  Biso   1.000  C
  C215     1.0000 0.69425  0.02759  0.16667  Biso   1.000  C
  C216     1.0000 0.76730  0.10064  0.16667  Biso   1.000  C
