data_image0
_cell_length_a       6.91073
_cell_length_b       15.2451
_cell_length_c       15.2451
_cell_angle_alpha    62.2411
_cell_angle_beta     81.3092
_cell_angle_gamma    98.6908

_symmetry_space_group_name_H-M    P 1
_symmetry_int_tables_number       1

loop_
  _symmetry_equiv_pos_as_xyz
  'x, y, z'

loop_
  _atom_site_label
  _atom_site_occupancy
  _atom_site_fract_x
  _atom_site_fract_y
  _atom_site_fract_z
  _atom_site_thermal_displace_type
  _atom_site_B_iso_or_equiv
  _atom_site_type_symbol
  Fe1      1.0000 0.88920  0.67920  0.58770  Biso   1.000  Fe
  Fe2      1.0000 0.47690  0.58770  0.73310  Biso   1.000  Fe
  Fe3      1.0000 0.21000  0.73310  0.67920  Biso   1.000  Fe
  Fe4      1.0000 0.11080  0.32080  0.41230  Biso   1.000  Fe
  Fe5      1.0000 0.52310  0.41230  0.26690  Biso   1.000  Fe
  Fe6      1.0000 0.79000  0.26690  0.32080  Biso   1.000  Fe
  H1       1.0000 0.64820  0.03070  0.53810  Biso   1.000  H
  H2       1.0000 0.18630  0.53810  0.43120  Biso   1.000  H
  H3       1.0000 0.61750  0.43120  0.03070  Biso   1.000  H
  H4       1.0000 0.35180  0.96930  0.46190  Biso   1.000  H
  H5       1.0000 0.81370  0.46190  0.56880  Biso   1.000  H
  H6       1.0000 0.38250  0.56880  0.96930  Biso   1.000  H
  C1       1.0000 0.62360  0.82510  0.61930  Biso   1.000  C
  C2       1.0000 0.84130  0.91210  0.55120  Biso   1.000  C
  C3       1.0000 0.03550  0.90090  0.53640  Biso   1.000  C
  C4       1.0000 0.79890  0.00590  0.52620  Biso   1.000  C
  C5       1.0000 0.24290  0.61930  0.55560  Biso   1.000  C
  C6       1.0000 0.39250  0.55120  0.53670  Biso   1.000  C
  C7       1.0000 0.57190  0.53640  0.56270  Biso   1.000  C
  C8       1.0000 0.32510  0.52620  0.46790  Biso   1.000  C
  C9       1.0000 0.79850  0.55560  0.82510  Biso   1.000  C
  C10      1.0000 0.92920  0.53670  0.91210  Biso   1.000  C
  C11      1.0000 0.13460  0.56270  0.90090  Biso   1.000  C
  C12      1.0000 0.79300  0.46790  0.00590  Biso   1.000  C
  C13      1.0000 0.37640  0.17490  0.38070  Biso   1.000  C
  C14      1.0000 0.15870  0.08790  0.44880  Biso   1.000  C
  C15      1.0000 0.96450  0.09910  0.46360  Biso   1.000  C
  C16      1.0000 0.20110  0.99410  0.47380  Biso   1.000  C
  C17      1.0000 0.75710  0.38070  0.44440  Biso   1.000  C
  C18      1.0000 0.60750  0.44880  0.46330  Biso   1.000  C
  C19      1.0000 0.42810  0.46360  0.43730  Biso   1.000  C
  C20      1.0000 0.67490  0.47380  0.53210  Biso   1.000  C
  C21      1.0000 0.20150  0.44440  0.17490  Biso   1.000  C
  C22      1.0000 0.07080  0.46330  0.08790  Biso   1.000  C
  C23      1.0000 0.86540  0.43730  0.09910  Biso   1.000  C
  C24      1.0000 0.20700  0.53210  0.99410  Biso   1.000  C
  O1       1.0000 0.68000  0.74770  0.64870  Biso   1.000  O
  O2       1.0000 0.47160  0.83890  0.63010  Biso   1.000  O
  O3       1.0000 0.07220  0.81250  0.56290  Biso   1.000  O
  O4       1.0000 0.32870  0.64870  0.60360  Biso   1.000  O
  O5       1.0000 0.10170  0.63010  0.53100  Biso   1.000  O
  O6       1.0000 0.63510  0.56290  0.62460  Biso   1.000  O
  O7       1.0000 0.93230  0.60360  0.74770  Biso   1.000  O
  O8       1.0000 0.63270  0.53100  0.83890  Biso   1.000  O
  O9       1.0000 0.25970  0.62460  0.81250  Biso   1.000  O
  O10      1.0000 0.32000  0.25230  0.35130  Biso   1.000  O
  O11      1.0000 0.52840  0.16110  0.36990  Biso   1.000  O
  O12      1.0000 0.92780  0.18750  0.43710  Biso   1.000  O
  O13      1.0000 0.67130  0.35130  0.39640  Biso   1.000  O
  O14      1.0000 0.89830  0.36990  0.46900  Biso   1.000  O
  O15      1.0000 0.36490  0.43710  0.37540  Biso   1.000  O
  O16      1.0000 0.06770  0.39640  0.25230  Biso   1.000  O
  O17      1.0000 0.36730  0.46900  0.16110  Biso   1.000  O
  O18      1.0000 0.74030  0.37540  0.18750  Biso   1.000  O
