data_image0
_cell_length_a       6.82087
_cell_length_b       15.1646
_cell_length_c       15.1646
_cell_angle_alpha    62.2068
_cell_angle_beta     81.3772
_cell_angle_gamma    98.6228

_symmetry_space_group_name_H-M    P 1
_symmetry_int_tables_number       1

loop_
  _symmetry_equiv_pos_as_xyz
  'x, y, z'

loop_
  _atom_site_label
  _atom_site_occupancy
  _atom_site_fract_x
  _atom_site_fract_y
  _atom_site_fract_z
  _atom_site_thermal_displace_type
  _atom_site_B_iso_or_equiv
  _atom_site_type_symbol
  Fe1      1.0000 0.89510  0.68650  0.58660  Biso   1.000  Fe
  Fe2      1.0000 0.48170  0.58660  0.72690  Biso   1.000  Fe
  Fe3      1.0000 0.20860  0.72690  0.68650  Biso   1.000  Fe
  Fe4      1.0000 0.10490  0.31350  0.41340  Biso   1.000  Fe
  Fe5      1.0000 0.51830  0.41340  0.27310  Biso   1.000  Fe
  Fe6      1.0000 0.79140  0.27310  0.31350  Biso   1.000  Fe
  H1       1.0000 0.62330  0.01030  0.54740  Biso   1.000  H
  H2       1.0000 0.17070  0.54740  0.44230  Biso   1.000  H
  H3       1.0000 0.61300  0.44230  0.01030  Biso   1.000  H
  H4       1.0000 0.37670  0.98970  0.45260  Biso   1.000  H
  H5       1.0000 0.82930  0.45260  0.55770  Biso   1.000  H
  H6       1.0000 0.38700  0.55770  0.98970  Biso   1.000  H
  C1       1.0000 0.65850  0.82200  0.61530  Biso   1.000  C
  C2       1.0000 0.84020  0.91250  0.53900  Biso   1.000  C
  C3       1.0000 0.04630  0.89910  0.52890  Biso   1.000  C
  C4       1.0000 0.80580  0.00050  0.53610  Biso   1.000  C
  C5       1.0000 0.27380  0.61530  0.56270  Biso   1.000  C
  C6       1.0000 0.37920  0.53900  0.54850  Biso   1.000  C
  C7       1.0000 0.57520  0.52890  0.57200  Biso   1.000  C
  C8       1.0000 0.34190  0.53610  0.46340  Biso   1.000  C
  C9       1.0000 0.83650  0.56270  0.82200  Biso   1.000  C
  C10      1.0000 0.92770  0.54850  0.91250  Biso   1.000  C
  C11      1.0000 0.14720  0.57200  0.89910  Biso   1.000  C
  C12      1.0000 0.80530  0.46340  0.00050  Biso   1.000  C
  C13      1.0000 0.34150  0.17800  0.38470  Biso   1.000  C
  C14      1.0000 0.15980  0.08750  0.46100  Biso   1.000  C
  C15      1.0000 0.95370  0.10090  0.47110  Biso   1.000  C
  C16      1.0000 0.19420  0.99950  0.46390  Biso   1.000  C
  C17      1.0000 0.72620  0.38470  0.43730  Biso   1.000  C
  C18      1.0000 0.62080  0.46100  0.45150  Biso   1.000  C
  C19      1.0000 0.42480  0.47110  0.42800  Biso   1.000  C
  C20      1.0000 0.65810  0.46390  0.53660  Biso   1.000  C
  C21      1.0000 0.16350  0.43730  0.17800  Biso   1.000  C
  C22      1.0000 0.07230  0.45150  0.08750  Biso   1.000  C
  C23      1.0000 0.85280  0.42800  0.10090  Biso   1.000  C
  C24      1.0000 0.19470  0.53660  0.99950  Biso   1.000  C
  O1       1.0000 0.66990  0.73090  0.64360  Biso   1.000  O
  O2       1.0000 0.47630  0.86120  0.60770  Biso   1.000  O
  O3       1.0000 0.07900  0.80980  0.56860  Biso   1.000  O
  O4       1.0000 0.80890  0.69680  0.44510  Biso   1.000  O
  O5       1.0000 0.04300  0.75100  0.40300  Biso   1.000  O
  O6       1.0000 0.31350  0.64360  0.62550  Biso   1.000  O
  O7       1.0000 0.08400  0.60770  0.53110  Biso   1.000  O
  O8       1.0000 0.64760  0.56860  0.62160  Biso   1.000  O
  O9       1.0000 0.25400  0.44510  0.85810  Biso   1.000  O
  O10      1.0000 0.44600  0.40300  0.84600  Biso   1.000  O
  O11      1.0000 0.93900  0.62550  0.73090  Biso   1.000  O
  O12      1.0000 0.61510  0.53110  0.86120  Biso   1.000  O
  O13      1.0000 0.26920  0.62160  0.80980  Biso   1.000  O
  O14      1.0000 0.11210  0.85810  0.69680  Biso   1.000  O
  O15      1.0000 0.29200  0.84600  0.75100  Biso   1.000  O
  O16      1.0000 0.33010  0.26910  0.35640  Biso   1.000  O
  O17      1.0000 0.52370  0.13880  0.39230  Biso   1.000  O
  O18      1.0000 0.92100  0.19020  0.43140  Biso   1.000  O
  O19      1.0000 0.19110  0.30320  0.55490  Biso   1.000  O
  O20      1.0000 0.95700  0.24900  0.59700  Biso   1.000  O
  O21      1.0000 0.68650  0.35640  0.37450  Biso   1.000  O
  O22      1.0000 0.91600  0.39230  0.46890  Biso   1.000  O
  O23      1.0000 0.35240  0.43140  0.37840  Biso   1.000  O
  O24      1.0000 0.74600  0.55490  0.14190  Biso   1.000  O
  O25      1.0000 0.55400  0.59700  0.15400  Biso   1.000  O
  O26      1.0000 0.06100  0.37450  0.26910  Biso   1.000  O
  O27      1.0000 0.38490  0.46890  0.13880  Biso   1.000  O
  O28      1.0000 0.73080  0.37840  0.19020  Biso   1.000  O
  O29      1.0000 0.88790  0.14190  0.30320  Biso   1.000  O
  O30      1.0000 0.70800  0.15400  0.24900  Biso   1.000  O
