data_image0
_cell_length_a       6.89452
_cell_length_b       15.2403
_cell_length_c       15.2403
_cell_angle_alpha    62.2321
_cell_angle_beta     81.327
_cell_angle_gamma    98.673

_symmetry_space_group_name_H-M    P 1
_symmetry_int_tables_number       1

loop_
  _symmetry_equiv_pos_as_xyz
  'x, y, z'

loop_
  _atom_site_label
  _atom_site_occupancy
  _atom_site_fract_x
  _atom_site_fract_y
  _atom_site_fract_z
  _atom_site_thermal_displace_type
  _atom_site_B_iso_or_equiv
  _atom_site_type_symbol
  Fe1      1.0000 0.88900  0.67920  0.58740  Biso   1.000  Fe
  Fe2      1.0000 0.47640  0.58740  0.73340  Biso   1.000  Fe
  Fe3      1.0000 0.20980  0.73340  0.67920  Biso   1.000  Fe
  Fe4      1.0000 0.11100  0.32080  0.41260  Biso   1.000  Fe
  Fe5      1.0000 0.52360  0.41260  0.26660  Biso   1.000  Fe
  Fe6      1.0000 0.79020  0.26660  0.32080  Biso   1.000  Fe
  H1       1.0000 0.65830  0.03070  0.53780  Biso   1.000  H
  H2       1.0000 0.19610  0.53780  0.43150  Biso   1.000  H
  H3       1.0000 0.62760  0.43150  0.03070  Biso   1.000  H
  H4       1.0000 0.34170  0.96930  0.46220  Biso   1.000  H
  H5       1.0000 0.80390  0.46220  0.56850  Biso   1.000  H
  H6       1.0000 0.37240  0.56850  0.96930  Biso   1.000  H
  C1       1.0000 0.62860  0.82920  0.61740  Biso   1.000  C
  C2       1.0000 0.83810  0.91060  0.55120  Biso   1.000  C
  C3       1.0000 0.04580  0.90080  0.53540  Biso   1.000  C
  C4       1.0000 0.79760  0.00330  0.52750  Biso   1.000  C
  C5       1.0000 0.24600  0.61740  0.55340  Biso   1.000  C
  C6       1.0000 0.38930  0.55120  0.53820  Biso   1.000  C
  C7       1.0000 0.58120  0.53540  0.56380  Biso   1.000  C
  C8       1.0000 0.32510  0.52750  0.46920  Biso   1.000  C
  C9       1.0000 0.79940  0.55340  0.82920  Biso   1.000  C
  C10      1.0000 0.92750  0.53820  0.91060  Biso   1.000  C
  C11      1.0000 0.14500  0.56380  0.90080  Biso   1.000  C
  C12      1.0000 0.79430  0.46920  0.00330  Biso   1.000  C
  C13      1.0000 0.37140  0.17080  0.38260  Biso   1.000  C
  C14      1.0000 0.16190  0.08940  0.44880  Biso   1.000  C
  C15      1.0000 0.95420  0.09920  0.46460  Biso   1.000  C
  C16      1.0000 0.20240  0.99670  0.47250  Biso   1.000  C
  C17      1.0000 0.75400  0.38260  0.44660  Biso   1.000  C
  C18      1.0000 0.61070  0.44880  0.46180  Biso   1.000  C
  C19      1.0000 0.41880  0.46460  0.43620  Biso   1.000  C
  C20      1.0000 0.67490  0.47250  0.53080  Biso   1.000  C
  C21      1.0000 0.20060  0.44660  0.17080  Biso   1.000  C
  C22      1.0000 0.07250  0.46180  0.08940  Biso   1.000  C
  C23      1.0000 0.85500  0.43620  0.09920  Biso   1.000  C
  C24      1.0000 0.20570  0.53080  0.99670  Biso   1.000  C
  O1       1.0000 0.66800  0.74850  0.64650  Biso   1.000  O
  O2       1.0000 0.47360  0.84480  0.62400  Biso   1.000  O
  O3       1.0000 0.07700  0.81700  0.55600  Biso   1.000  O
  O4       1.0000 0.31450  0.64650  0.60500  Biso   1.000  O
  O5       1.0000 0.09760  0.62400  0.53120  Biso   1.000  O
  O6       1.0000 0.63300  0.55600  0.62700  Biso   1.000  O
  O7       1.0000 0.91950  0.60500  0.74850  Biso   1.000  O
  O8       1.0000 0.62880  0.53120  0.84480  Biso   1.000  O
  O9       1.0000 0.26000  0.62700  0.81700  Biso   1.000  O
  O10      1.0000 0.33200  0.25150  0.35350  Biso   1.000  O
  O11      1.0000 0.52640  0.15520  0.37600  Biso   1.000  O
  O12      1.0000 0.92300  0.18300  0.44400  Biso   1.000  O
  O13      1.0000 0.68550  0.35350  0.39500  Biso   1.000  O
  O14      1.0000 0.90240  0.37600  0.46880  Biso   1.000  O
  O15      1.0000 0.36700  0.44400  0.37300  Biso   1.000  O
  O16      1.0000 0.08050  0.39500  0.25150  Biso   1.000  O
  O17      1.0000 0.37120  0.46880  0.15520  Biso   1.000  O
  O18      1.0000 0.74000  0.37300  0.18300  Biso   1.000  O
