data_image0
_cell_length_a       6.84297
_cell_length_b       15.159
_cell_length_c       15.159
_cell_angle_alpha    62.2226
_cell_angle_beta     81.3458
_cell_angle_gamma    98.6542

_symmetry_space_group_name_H-M    P 1
_symmetry_int_tables_number       1

loop_
  _symmetry_equiv_pos_as_xyz
  'x, y, z'

loop_
  _atom_site_label
  _atom_site_occupancy
  _atom_site_fract_x
  _atom_site_fract_y
  _atom_site_fract_z
  _atom_site_thermal_displace_type
  _atom_site_B_iso_or_equiv
  _atom_site_type_symbol
  Fe1      1.0000 0.89190  0.68490  0.58620  Biso   1.000  Fe
  Fe2      1.0000 0.47810  0.58620  0.72890  Biso   1.000  Fe
  Fe3      1.0000 0.20700  0.72890  0.68490  Biso   1.000  Fe
  Fe4      1.0000 0.10810  0.31510  0.41380  Biso   1.000  Fe
  Fe5      1.0000 0.52190  0.41380  0.27110  Biso   1.000  Fe
  Fe6      1.0000 0.79300  0.27110  0.31510  Biso   1.000  Fe
  H1       1.0000 0.64650  0.01860  0.53800  Biso   1.000  H
  H2       1.0000 0.83830  0.78440  0.41000  Biso   1.000  H
  H3       1.0000 0.18450  0.53800  0.44340  Biso   1.000  H
  H4       1.0000 0.24830  0.41000  0.80560  Biso   1.000  H
  H5       1.0000 0.62790  0.44340  0.01860  Biso   1.000  H
  H6       1.0000 0.05390  0.80560  0.78440  Biso   1.000  H
  H7       1.0000 0.35350  0.98140  0.46200  Biso   1.000  H
  H8       1.0000 0.16170  0.21560  0.59000  Biso   1.000  H
  H9       1.0000 0.81550  0.46200  0.55660  Biso   1.000  H
  H10      1.0000 0.75170  0.59000  0.19440  Biso   1.000  H
  H11      1.0000 0.37210  0.55660  0.98140  Biso   1.000  H
  H12      1.0000 0.94610  0.19440  0.21560  Biso   1.000  H
  C1       1.0000 0.66340  0.82210  0.61570  Biso   1.000  C
  C2       1.0000 0.83150  0.91240  0.54280  Biso   1.000  C
  C3       1.0000 0.03320  0.89680  0.53530  Biso   1.000  C
  C4       1.0000 0.80470  0.00800  0.52290  Biso   1.000  C
  C5       1.0000 0.27910  0.61570  0.56220  Biso   1.000  C
  C6       1.0000 0.37430  0.54280  0.54480  Biso   1.000  C
  C7       1.0000 0.56850  0.53530  0.56790  Biso   1.000  C
  C8       1.0000 0.32760  0.52290  0.46910  Biso   1.000  C
  C9       1.0000 0.84130  0.56220  0.82210  Biso   1.000  C
  C10      1.0000 0.91910  0.54480  0.91240  Biso   1.000  C
  C11      1.0000 0.13640  0.56790  0.89680  Biso   1.000  C
  C12      1.0000 0.79670  0.46910  0.00800  Biso   1.000  C
  C13      1.0000 0.33660  0.17790  0.38430  Biso   1.000  C
  C14      1.0000 0.16850  0.08760  0.45720  Biso   1.000  C
  C15      1.0000 0.96680  0.10320  0.46470  Biso   1.000  C
  C16      1.0000 0.19530  0.99200  0.47710  Biso   1.000  C
  C17      1.0000 0.72090  0.38430  0.43780  Biso   1.000  C
  C18      1.0000 0.62570  0.45720  0.45520  Biso   1.000  C
  C19      1.0000 0.43150  0.46470  0.43210  Biso   1.000  C
  C20      1.0000 0.67240  0.47710  0.53090  Biso   1.000  C
  C21      1.0000 0.15870  0.43780  0.17790  Biso   1.000  C
  C22      1.0000 0.08090  0.45520  0.08760  Biso   1.000  C
  C23      1.0000 0.86360  0.43210  0.10320  Biso   1.000  C
  C24      1.0000 0.20330  0.53090  0.99200  Biso   1.000  C
  O1       1.0000 0.67960  0.72870  0.64800  Biso   1.000  O
  O2       1.0000 0.47910  0.85830  0.61650  Biso   1.000  O
  O3       1.0000 0.07100  0.80860  0.56860  Biso   1.000  O
  O4       1.0000 0.79500  0.69320  0.45020  Biso   1.000  O
  O5       1.0000 0.03000  0.74300  0.40100  Biso   1.000  O
  O6       1.0000 0.32760  0.64800  0.62330  Biso   1.000  O
  O7       1.0000 0.09560  0.61650  0.52520  Biso   1.000  O
  O8       1.0000 0.63960  0.56860  0.62280  Biso   1.000  O
  O9       1.0000 0.24520  0.45020  0.85660  Biso   1.000  O
  O10      1.0000 0.43100  0.40100  0.85600  Biso   1.000  O
  O11      1.0000 0.95090  0.62330  0.72870  Biso   1.000  O
  O12      1.0000 0.62080  0.52520  0.85830  Biso   1.000  O
  O13      1.0000 0.26240  0.62280  0.80860  Biso   1.000  O
  O14      1.0000 0.10180  0.85660  0.69320  Biso   1.000  O
  O15      1.0000 0.28700  0.85600  0.74300  Biso   1.000  O
  O16      1.0000 0.32040  0.27130  0.35200  Biso   1.000  O
  O17      1.0000 0.52090  0.14170  0.38350  Biso   1.000  O
  O18      1.0000 0.92900  0.19140  0.43140  Biso   1.000  O
  O19      1.0000 0.20500  0.30680  0.54980  Biso   1.000  O
  O20      1.0000 0.97000  0.25700  0.59900  Biso   1.000  O
  O21      1.0000 0.67240  0.35200  0.37670  Biso   1.000  O
  O22      1.0000 0.90440  0.38350  0.47480  Biso   1.000  O
  O23      1.0000 0.36040  0.43140  0.37720  Biso   1.000  O
  O24      1.0000 0.75480  0.54980  0.14340  Biso   1.000  O
  O25      1.0000 0.56900  0.59900  0.14400  Biso   1.000  O
  O26      1.0000 0.04910  0.37670  0.27130  Biso   1.000  O
  O27      1.0000 0.37920  0.47480  0.14170  Biso   1.000  O
  O28      1.0000 0.73760  0.37720  0.19140  Biso   1.000  O
  O29      1.0000 0.89820  0.14340  0.30680  Biso   1.000  O
  O30      1.0000 0.71300  0.14400  0.25700  Biso   1.000  O
