data_image0
_cell_length_a       6.83765
_cell_length_b       15.161
_cell_length_c       15.161
_cell_angle_alpha    62.2186
_cell_angle_beta     81.3537
_cell_angle_gamma    98.6463

_symmetry_space_group_name_H-M    P 1
_symmetry_int_tables_number       1

loop_
  _symmetry_equiv_pos_as_xyz
  'x, y, z'

loop_
  _atom_site_label
  _atom_site_occupancy
  _atom_site_fract_x
  _atom_site_fract_y
  _atom_site_fract_z
  _atom_site_thermal_displace_type
  _atom_site_B_iso_or_equiv
  _atom_site_type_symbol
  Fe1      1.0000 0.89790  0.68520  0.58590  Biso   1.000  Fe
  Fe2      1.0000 0.48380  0.58590  0.72890  Biso   1.000  Fe
  Fe3      1.0000 0.21270  0.72890  0.68520  Biso   1.000  Fe
  Fe4      1.0000 0.10210  0.31480  0.41410  Biso   1.000  Fe
  Fe5      1.0000 0.51620  0.41410  0.27110  Biso   1.000  Fe
  Fe6      1.0000 0.78730  0.27110  0.31480  Biso   1.000  Fe
  H1       1.0000 0.65390  0.01950  0.54040  Biso   1.000  H
  H2       1.0000 0.84860  0.78620  0.40340  Biso   1.000  H
  H3       1.0000 0.19430  0.54040  0.44010  Biso   1.000  H
  H4       1.0000 0.25200  0.40340  0.81040  Biso   1.000  H
  H5       1.0000 0.63440  0.44010  0.01950  Biso   1.000  H
  H6       1.0000 0.06240  0.81040  0.78620  Biso   1.000  H
  H7       1.0000 0.34610  0.98050  0.45960  Biso   1.000  H
  H8       1.0000 0.15140  0.21380  0.59660  Biso   1.000  H
  H9       1.0000 0.80570  0.45960  0.55990  Biso   1.000  H
  H10      1.0000 0.74800  0.59660  0.18960  Biso   1.000  H
  H11      1.0000 0.36560  0.55990  0.98050  Biso   1.000  H
  H12      1.0000 0.93760  0.18960  0.21380  Biso   1.000  H
  C1       1.0000 0.65890  0.82080  0.61800  Biso   1.000  C
  C2       1.0000 0.83190  0.90970  0.54640  Biso   1.000  C
  C3       1.0000 0.03770  0.89720  0.53480  Biso   1.000  C
  C4       1.0000 0.81110  0.00400  0.52700  Biso   1.000  C
  C5       1.0000 0.27690  0.61800  0.56120  Biso   1.000  C
  C6       1.0000 0.37830  0.54640  0.54390  Biso   1.000  C
  C7       1.0000 0.57250  0.53480  0.56800  Biso   1.000  C
  C8       1.0000 0.33810  0.52700  0.46900  Biso   1.000  C
  C9       1.0000 0.83810  0.56120  0.82080  Biso   1.000  C
  C10      1.0000 0.92220  0.54390  0.90970  Biso   1.000  C
  C11      1.0000 0.14050  0.56800  0.89720  Biso   1.000  C
  C12      1.0000 0.80710  0.46900  0.00400  Biso   1.000  C
  C13      1.0000 0.34110  0.17920  0.38200  Biso   1.000  C
  C14      1.0000 0.16810  0.09030  0.45360  Biso   1.000  C
  C15      1.0000 0.96230  0.10280  0.46520  Biso   1.000  C
  C16      1.0000 0.18890  0.99600  0.47300  Biso   1.000  C
  C17      1.0000 0.72310  0.38200  0.43880  Biso   1.000  C
  C18      1.0000 0.62170  0.45360  0.45610  Biso   1.000  C
  C19      1.0000 0.42750  0.46520  0.43200  Biso   1.000  C
  C20      1.0000 0.66190  0.47300  0.53100  Biso   1.000  C
  C21      1.0000 0.16190  0.43880  0.17920  Biso   1.000  C
  C22      1.0000 0.07780  0.45610  0.09030  Biso   1.000  C
  C23      1.0000 0.85950  0.43200  0.10280  Biso   1.000  C
  C24      1.0000 0.19290  0.53100  0.99600  Biso   1.000  C
  O1       1.0000 0.67850  0.72840  0.64440  Biso   1.000  O
  O2       1.0000 0.48040  0.86260  0.61390  Biso   1.000  O
  O3       1.0000 0.07970  0.80900  0.56570  Biso   1.000  O
  O4       1.0000 0.80880  0.70510  0.44170  Biso   1.000  O
  O5       1.0000 0.04700  0.72500  0.40400  Biso   1.000  O
  O6       1.0000 0.32290  0.64440  0.62720  Biso   1.000  O
  O7       1.0000 0.09430  0.61390  0.52350  Biso   1.000  O
  O8       1.0000 0.64540  0.56570  0.62530  Biso   1.000  O
  O9       1.0000 0.25050  0.44170  0.85320  Biso   1.000  O
  O10      1.0000 0.45100  0.40400  0.87100  Biso   1.000  O
  O11      1.0000 0.95010  0.62720  0.72840  Biso   1.000  O
  O12      1.0000 0.61780  0.52350  0.86260  Biso   1.000  O
  O13      1.0000 0.27070  0.62530  0.80900  Biso   1.000  O
  O14      1.0000 0.10370  0.85320  0.70510  Biso   1.000  O
  O15      1.0000 0.32200  0.87100  0.72500  Biso   1.000  O
  O16      1.0000 0.32150  0.27160  0.35560  Biso   1.000  O
  O17      1.0000 0.51960  0.13740  0.38610  Biso   1.000  O
  O18      1.0000 0.92030  0.19100  0.43430  Biso   1.000  O
  O19      1.0000 0.19120  0.29490  0.55830  Biso   1.000  O
  O20      1.0000 0.95300  0.27500  0.59600  Biso   1.000  O
  O21      1.0000 0.67710  0.35560  0.37280  Biso   1.000  O
  O22      1.0000 0.90570  0.38610  0.47650  Biso   1.000  O
  O23      1.0000 0.35460  0.43430  0.37470  Biso   1.000  O
  O24      1.0000 0.74950  0.55830  0.14680  Biso   1.000  O
  O25      1.0000 0.54900  0.59600  0.12900  Biso   1.000  O
  O26      1.0000 0.04990  0.37280  0.27160  Biso   1.000  O
  O27      1.0000 0.38220  0.47650  0.13740  Biso   1.000  O
  O28      1.0000 0.72930  0.37470  0.19100  Biso   1.000  O
  O29      1.0000 0.89630  0.14680  0.29490  Biso   1.000  O
  O30      1.0000 0.67800  0.12900  0.27500  Biso   1.000  O
