data_image0
_cell_length_a       6.85384
_cell_length_b       15.1576
_cell_length_c       15.1576
_cell_angle_alpha    62.23
_cell_angle_beta     81.3311
_cell_angle_gamma    98.6689

_symmetry_space_group_name_H-M    P 1
_symmetry_int_tables_number       1

loop_
  _symmetry_equiv_pos_as_xyz
  'x, y, z'

loop_
  _atom_site_label
  _atom_site_occupancy
  _atom_site_fract_x
  _atom_site_fract_y
  _atom_site_fract_z
  _atom_site_thermal_displace_type
  _atom_site_B_iso_or_equiv
  _atom_site_type_symbol
  Fe1      1.0000 0.88810  0.68400  0.58800  Biso   1.000  Fe
  Fe2      1.0000 0.47610  0.58800  0.72800  Biso   1.000  Fe
  Fe3      1.0000 0.20410  0.72800  0.68400  Biso   1.000  Fe
  Fe4      1.0000 0.11190  0.31600  0.41200  Biso   1.000  Fe
  Fe5      1.0000 0.52390  0.41200  0.27200  Biso   1.000  Fe
  Fe6      1.0000 0.79590  0.27200  0.31600  Biso   1.000  Fe
  H1       1.0000 0.64090  0.01980  0.54190  Biso   1.000  H
  H2       1.0000 0.85360  0.77500  0.41620  Biso   1.000  H
  H3       1.0000 0.18280  0.54190  0.43830  Biso   1.000  H
  H4       1.0000 0.26980  0.41620  0.80880  Biso   1.000  H
  H5       1.0000 0.62110  0.43830  0.01980  Biso   1.000  H
  H6       1.0000 0.07860  0.80880  0.77500  Biso   1.000  H
  H7       1.0000 0.35910  0.98020  0.45810  Biso   1.000  H
  H8       1.0000 0.14640  0.22500  0.58380  Biso   1.000  H
  H9       1.0000 0.81720  0.45810  0.56170  Biso   1.000  H
  H10      1.0000 0.73020  0.58380  0.19120  Biso   1.000  H
  H11      1.0000 0.37890  0.56170  0.98020  Biso   1.000  H
  H12      1.0000 0.92140  0.19120  0.22500  Biso   1.000  H
  C1       1.0000 0.67190  0.82790  0.61190  Biso   1.000  C
  C2       1.0000 0.83720  0.92050  0.54520  Biso   1.000  C
  C3       1.0000 0.02810  0.89410  0.53440  Biso   1.000  C
  C4       1.0000 0.80280  0.01430  0.52200  Biso   1.000  C
  C5       1.0000 0.28380  0.61190  0.56020  Biso   1.000  C
  C6       1.0000 0.38240  0.54520  0.53430  Biso   1.000  C
  C7       1.0000 0.56250  0.53440  0.57150  Biso   1.000  C
  C8       1.0000 0.32480  0.52200  0.46370  Biso   1.000  C
  C9       1.0000 0.84400  0.56020  0.82790  Biso   1.000  C
  C10      1.0000 0.91670  0.53430  0.92050  Biso   1.000  C
  C11      1.0000 0.13400  0.57150  0.89410  Biso   1.000  C
  C12      1.0000 0.78850  0.46370  0.01430  Biso   1.000  C
  C13      1.0000 0.32810  0.17210  0.38810  Biso   1.000  C
  C14      1.0000 0.16280  0.07950  0.45480  Biso   1.000  C
  C15      1.0000 0.97190  0.10590  0.46560  Biso   1.000  C
  C16      1.0000 0.19720  0.98570  0.47800  Biso   1.000  C
  C17      1.0000 0.71620  0.38810  0.43980  Biso   1.000  C
  C18      1.0000 0.61760  0.45480  0.46570  Biso   1.000  C
  C19      1.0000 0.43750  0.46560  0.42850  Biso   1.000  C
  C20      1.0000 0.67520  0.47800  0.53630  Biso   1.000  C
  C21      1.0000 0.15600  0.43980  0.17210  Biso   1.000  C
  C22      1.0000 0.08330  0.46570  0.07950  Biso   1.000  C
  C23      1.0000 0.86600  0.42850  0.10590  Biso   1.000  C
  C24      1.0000 0.21150  0.53630  0.98570  Biso   1.000  C
  O1       1.0000 0.68080  0.73360  0.64570  Biso   1.000  O
  O2       1.0000 0.47530  0.85150  0.61960  Biso   1.000  O
  O3       1.0000 0.06900  0.80720  0.56960  Biso   1.000  O
  O4       1.0000 0.79300  0.68600  0.45500  Biso   1.000  O
  O5       1.0000 0.01900  0.74900  0.39800  Biso   1.000  O
  O6       1.0000 0.32650  0.64570  0.62070  Biso   1.000  O
  O7       1.0000 0.09490  0.61960  0.52890  Biso   1.000  O
  O8       1.0000 0.63860  0.56960  0.62320  Biso   1.000  O
  O9       1.0000 0.24800  0.45500  0.85900  Biso   1.000  O
  O10      1.0000 0.41700  0.39800  0.85300  Biso   1.000  O
  O11      1.0000 0.94720  0.62070  0.73360  Biso   1.000  O
  O12      1.0000 0.62380  0.52890  0.85150  Biso   1.000  O
  O13      1.0000 0.26180  0.62320  0.80720  Biso   1.000  O
  O14      1.0000 0.10700  0.85900  0.68600  Biso   1.000  O
  O15      1.0000 0.27000  0.85300  0.74900  Biso   1.000  O
  O16      1.0000 0.31920  0.26640  0.35430  Biso   1.000  O
  O17      1.0000 0.52470  0.14850  0.38040  Biso   1.000  O
  O18      1.0000 0.93100  0.19280  0.43040  Biso   1.000  O
  O19      1.0000 0.20700  0.31400  0.54500  Biso   1.000  O
  O20      1.0000 0.98100  0.25100  0.60200  Biso   1.000  O
  O21      1.0000 0.67350  0.35430  0.37930  Biso   1.000  O
  O22      1.0000 0.90510  0.38040  0.47110  Biso   1.000  O
  O23      1.0000 0.36140  0.43040  0.37680  Biso   1.000  O
  O24      1.0000 0.75200  0.54500  0.14100  Biso   1.000  O
  O25      1.0000 0.58300  0.60200  0.14700  Biso   1.000  O
  O26      1.0000 0.05280  0.37930  0.26640  Biso   1.000  O
  O27      1.0000 0.37620  0.47110  0.14850  Biso   1.000  O
  O28      1.0000 0.73820  0.37680  0.19280  Biso   1.000  O
  O29      1.0000 0.89300  0.14100  0.31400  Biso   1.000  O
  O30      1.0000 0.73000  0.14700  0.25100  Biso   1.000  O
