data_image0
_cell_length_a       13.0989
_cell_length_b       18.4444
_cell_length_c       22.0504
_cell_angle_alpha    90
_cell_angle_beta     103.202
_cell_angle_gamma    90

_symmetry_space_group_name_H-M    P 1
_symmetry_int_tables_number       1

loop_
  _symmetry_equiv_pos_as_xyz
  'x, y, z'

loop_
  _atom_site_label
  _atom_site_occupancy
  _atom_site_fract_x
  _atom_site_fract_y
  _atom_site_fract_z
  _atom_site_thermal_displace_type
  _atom_site_B_iso_or_equiv
  _atom_site_type_symbol
  Ni1      1.0000 0.71587  0.78274  0.87511  Biso   1.000  Ni
  Ni2      1.0000 0.61261  0.14078  0.12878  Biso   1.000  Ni
  Ni3      1.0000 0.51467  0.73154  0.78426  Biso   1.000  Ni
  Ni4      1.0000 0.98916  0.38942  0.73287  Biso   1.000  Ni
  Ni5      1.0000 0.78413  0.28274  0.62489  Biso   1.000  Ni
  Ni6      1.0000 0.88739  0.64078  0.37122  Biso   1.000  Ni
  Ni7      1.0000 0.98533  0.23154  0.71574  Biso   1.000  Ni
  Ni8      1.0000 0.51084  0.88942  0.76713  Biso   1.000  Ni
  Ni9      1.0000 0.28413  0.21726  0.12489  Biso   1.000  Ni
  Ni10     1.0000 0.38739  0.85922  0.87122  Biso   1.000  Ni
  Ni11     1.0000 0.48533  0.26846  0.21574  Biso   1.000  Ni
  Ni12     1.0000 0.01084  0.61058  0.26713  Biso   1.000  Ni
  Ni13     1.0000 0.21587  0.71726  0.37511  Biso   1.000  Ni
  Ni14     1.0000 0.11261  0.35922  0.62878  Biso   1.000  Ni
  Ni15     1.0000 0.01467  0.76846  0.28426  Biso   1.000  Ni
  Ni16     1.0000 0.48916  0.11058  0.23287  Biso   1.000  Ni
  H1       1.0000 0.99700  0.50120  0.82800  Biso   1.000  H
  H2       1.0000 0.90660  0.59840  0.85480  Biso   1.000  H
  H3       1.0000 0.66310  0.54210  0.71470  Biso   1.000  H
  H4       1.0000 0.76430  0.44940  0.68940  Biso   1.000  H
  H5       1.0000 0.81140  0.81870  0.33040  Biso   1.000  H
  H6       1.0000 0.68700  0.90970  0.30730  Biso   1.000  H
  H7       1.0000 0.85280  0.99640  0.19180  Biso   1.000  H
  H8       1.0000 0.97430  0.90470  0.21880  Biso   1.000  H
  H9       1.0000 0.50470  0.12640  0.98720  Biso   1.000  H
  H10      1.0000 0.49870  0.04430  0.90630  Biso   1.000  H
  H11      1.0000 0.76040  0.95060  0.00930  Biso   1.000  H
  H12      1.0000 0.75780  0.03480  0.08660  Biso   1.000  H
  H13      1.0000 0.88620  0.67670  0.94560  Biso   1.000  H
  H14      1.0000 0.96060  0.64090  0.04690  Biso   1.000  H
  H15      1.0000 0.79720  0.79690  0.10960  Biso   1.000  H
  H16      1.0000 0.70860  0.81890  0.00760  Biso   1.000  H
  H17      1.0000 0.82570  0.78440  0.76810  Biso   1.000  H
  H18      1.0000 0.99000  0.78800  0.74600  Biso   1.000  H
  H19      1.0000 0.10380  0.85050  0.92260  Biso   1.000  H
  H20      1.0000 0.93490  0.85780  0.93650  Biso   1.000  H
  H21      1.0000 0.63600  0.19100  0.23400  Biso   1.000  H
  H22      1.0000 0.65100  0.81000  0.77100  Biso   1.000  H
  H23      1.0000 0.50300  0.00120  0.67200  Biso   1.000  H
  H24      1.0000 0.59340  0.09840  0.64520  Biso   1.000  H
  H25      1.0000 0.83690  0.04210  0.78530  Biso   1.000  H
  H26      1.0000 0.73570  0.94940  0.81060  Biso   1.000  H
  H27      1.0000 0.68860  0.31870  0.16960  Biso   1.000  H
  H28      1.0000 0.81300  0.40970  0.19270  Biso   1.000  H
  H29      1.0000 0.64720  0.49640  0.30820  Biso   1.000  H
  H30      1.0000 0.52570  0.40470  0.28120  Biso   1.000  H
  H31      1.0000 0.99530  0.62640  0.51280  Biso   1.000  H
  H32      1.0000 0.00130  0.54430  0.59370  Biso   1.000  H
  H33      1.0000 0.73960  0.45060  0.49070  Biso   1.000  H
  H34      1.0000 0.74220  0.53480  0.41340  Biso   1.000  H
  H35      1.0000 0.61380  0.17670  0.55440  Biso   1.000  H
  H36      1.0000 0.53940  0.14090  0.45310  Biso   1.000  H
  H37      1.0000 0.70280  0.29690  0.39040  Biso   1.000  H
  H38      1.0000 0.79140  0.31890  0.49240  Biso   1.000  H
  H39      1.0000 0.67430  0.28440  0.73190  Biso   1.000  H
  H40      1.0000 0.51000  0.28800  0.75400  Biso   1.000  H
  H41      1.0000 0.39620  0.35050  0.57740  Biso   1.000  H
  H42      1.0000 0.56510  0.35780  0.56350  Biso   1.000  H
  H43      1.0000 0.86400  0.69100  0.26600  Biso   1.000  H
  H44      1.0000 0.84900  0.31000  0.72900  Biso   1.000  H
  H45      1.0000 0.00300  0.49880  0.17200  Biso   1.000  H
  H46      1.0000 0.09340  0.40160  0.14520  Biso   1.000  H
  H47      1.0000 0.33690  0.45790  0.28530  Biso   1.000  H
  H48      1.0000 0.23570  0.55060  0.31060  Biso   1.000  H
  H49      1.0000 0.18860  0.18130  0.66960  Biso   1.000  H
  H50      1.0000 0.31300  0.09030  0.69270  Biso   1.000  H
  H51      1.0000 0.14720  0.00360  0.80820  Biso   1.000  H
  H52      1.0000 0.02570  0.09530  0.78120  Biso   1.000  H
  H53      1.0000 0.49530  0.87360  0.01280  Biso   1.000  H
  H54      1.0000 0.50130  0.95570  0.09370  Biso   1.000  H
  H55      1.0000 0.23960  0.04940  0.99070  Biso   1.000  H
  H56      1.0000 0.24220  0.96520  0.91340  Biso   1.000  H
  H57      1.0000 0.11380  0.32330  0.05440  Biso   1.000  H
  H58      1.0000 0.03940  0.35910  0.95310  Biso   1.000  H
  H59      1.0000 0.20280  0.20310  0.89040  Biso   1.000  H
  H60      1.0000 0.29140  0.18110  0.99240  Biso   1.000  H
  H61      1.0000 0.17430  0.21560  0.23190  Biso   1.000  H
  H62      1.0000 0.01000  0.21200  0.25400  Biso   1.000  H
  H63      1.0000 0.89620  0.14950  0.07740  Biso   1.000  H
  H64      1.0000 0.06510  0.14220  0.06350  Biso   1.000  H
  H65      1.0000 0.36400  0.80900  0.76600  Biso   1.000  H
  H66      1.0000 0.34900  0.19000  0.22900  Biso   1.000  H
  H67      1.0000 0.49700  0.99880  0.32800  Biso   1.000  H
  H68      1.0000 0.40660  0.90160  0.35480  Biso   1.000  H
  H69      1.0000 0.16310  0.95790  0.21470  Biso   1.000  H
  H70      1.0000 0.26430  0.05060  0.18940  Biso   1.000  H
  H71      1.0000 0.31140  0.68130  0.83040  Biso   1.000  H
  H72      1.0000 0.18700  0.59030  0.80730  Biso   1.000  H
  H73      1.0000 0.35280  0.50360  0.69180  Biso   1.000  H
  H74      1.0000 0.47430  0.59530  0.71880  Biso   1.000  H
  H75      1.0000 0.00470  0.37360  0.48720  Biso   1.000  H
  H76      1.0000 0.99870  0.45570  0.40630  Biso   1.000  H
  H77      1.0000 0.26040  0.54940  0.50930  Biso   1.000  H
  H78      1.0000 0.25780  0.46520  0.58660  Biso   1.000  H
  H79      1.0000 0.38620  0.82330  0.44560  Biso   1.000  H
  H80      1.0000 0.46060  0.85910  0.54690  Biso   1.000  H
  H81      1.0000 0.29720  0.70310  0.60960  Biso   1.000  H
  H82      1.0000 0.20860  0.68110  0.50760  Biso   1.000  H
  H83      1.0000 0.32570  0.71560  0.26810  Biso   1.000  H
  H84      1.0000 0.49000  0.71200  0.24600  Biso   1.000  H
  H85      1.0000 0.60380  0.64950  0.42260  Biso   1.000  H
  H86      1.0000 0.43490  0.64220  0.43650  Biso   1.000  H
  H87      1.0000 0.13600  0.30900  0.73400  Biso   1.000  H
  H88      1.0000 0.15100  0.69000  0.27100  Biso   1.000  H
  C1       1.0000 0.92860  0.51090  0.80380  Biso   1.000  C
  C2       1.0000 0.87500  0.56860  0.82053  Biso   1.000  C
  C3       1.0000 0.77430  0.58280  0.78676  Biso   1.000  C
  C4       1.0000 0.73310  0.53580  0.73805  Biso   1.000  C
  C5       1.0000 0.79340  0.48010  0.72360  Biso   1.000  C
  C6       1.0000 0.71300  0.64610  0.80290  Biso   1.000  C
  C7       1.0000 0.81990  0.85540  0.30166  Biso   1.000  C
  C8       1.0000 0.74460  0.90910  0.28783  Biso   1.000  C
  C9       1.0000 0.75460  0.96230  0.24488  Biso   1.000  C
  C10      1.0000 0.84230  0.95990  0.22030  Biso   1.000  C
  C11      1.0000 0.91460  0.90520  0.23650  Biso   1.000  C
  C12      1.0000 0.67420  0.02180  0.22380  Biso   1.000  C
  C13      1.0000 0.55550  0.08870  0.99256  Biso   1.000  C
  C14      1.0000 0.55090  0.03990  0.94384  Biso   1.000  C
  C15      1.0000 0.62490  0.98430  0.95153  Biso   1.000  C
  C16      1.0000 0.70470  0.98470  0.00437  Biso   1.000  C
  C17      1.0000 0.70260  0.03550  0.05020  Biso   1.000  C
  C18      1.0000 0.61610  0.92400  0.90514  Biso   1.000  C
  C19      1.0000 0.86600  0.70060  0.97920  Biso   1.000  C
  C20      1.0000 0.91420  0.68120  0.03990  Biso   1.000  C
  C21      1.0000 0.81620  0.77110  0.07660  Biso   1.000  C
  C22      1.0000 0.76470  0.78510  0.01560  Biso   1.000  C
  C23      1.0000 0.89620  0.71890  0.08971  Biso   1.000  C
  C24      1.0000 0.94940  0.70540  0.15691  Biso   1.000  C
  C25      1.0000 0.51760  0.72980  0.92249  Biso   1.000  C
  C26      1.0000 0.53150  0.66640  0.96790  Biso   1.000  C
  C27      1.0000 0.57340  0.59940  0.94490  Biso   1.000  C
  C28      1.0000 0.88200  0.79950  0.80090  Biso   1.000  C
  C29      1.0000 0.98200  0.79990  0.78660  Biso   1.000  C
  C30      1.0000 0.06620  0.81780  0.83280  Biso   1.000  C
  C31      1.0000 0.04700  0.83790  0.88920  Biso   1.000  C
  C32      1.0000 0.94440  0.83970  0.89780  Biso   1.000  C
  C33      1.0000 0.17700  0.81220  0.82280  Biso   1.000  C
  C34      1.0000 0.57140  0.01090  0.69620  Biso   1.000  C
  C35      1.0000 0.62500  0.06860  0.67947  Biso   1.000  C
  C36      1.0000 0.72570  0.08280  0.71324  Biso   1.000  C
  C37      1.0000 0.76690  0.03580  0.76195  Biso   1.000  C
  C38      1.0000 0.70660  0.98010  0.77640  Biso   1.000  C
  C39      1.0000 0.78700  0.14610  0.69710  Biso   1.000  C
  C40      1.0000 0.68010  0.35540  0.19834  Biso   1.000  C
  C41      1.0000 0.75540  0.40910  0.21217  Biso   1.000  C
  C42      1.0000 0.74540  0.46230  0.25512  Biso   1.000  C
  C43      1.0000 0.65770  0.45990  0.27970  Biso   1.000  C
  C44      1.0000 0.58540  0.40520  0.26350  Biso   1.000  C
  C45      1.0000 0.82580  0.52180  0.27620  Biso   1.000  C
  C46      1.0000 0.94450  0.58870  0.50744  Biso   1.000  C
  C47      1.0000 0.94910  0.53990  0.55616  Biso   1.000  C
  C48      1.0000 0.87510  0.48430  0.54847  Biso   1.000  C
  C49      1.0000 0.79530  0.48470  0.49563  Biso   1.000  C
  C50      1.0000 0.79740  0.53550  0.44980  Biso   1.000  C
  C51      1.0000 0.88390  0.42400  0.59486  Biso   1.000  C
  C52      1.0000 0.63400  0.20060  0.52080  Biso   1.000  C
  C53      1.0000 0.58580  0.18120  0.46010  Biso   1.000  C
  C54      1.0000 0.68380  0.27110  0.42340  Biso   1.000  C
  C55      1.0000 0.73530  0.28510  0.48440  Biso   1.000  C
  C56      1.0000 0.60380  0.21890  0.41029  Biso   1.000  C
  C57      1.0000 0.55060  0.20540  0.34309  Biso   1.000  C
  C58      1.0000 0.98240  0.22980  0.57751  Biso   1.000  C
  C59      1.0000 0.96850  0.16640  0.53210  Biso   1.000  C
  C60      1.0000 0.92660  0.09940  0.55510  Biso   1.000  C
  C61      1.0000 0.61800  0.29950  0.69910  Biso   1.000  C
  C62      1.0000 0.51800  0.29990  0.71340  Biso   1.000  C
  C63      1.0000 0.43380  0.31780  0.66720  Biso   1.000  C
  C64      1.0000 0.45300  0.33790  0.61080  Biso   1.000  C
  C65      1.0000 0.55560  0.33970  0.60220  Biso   1.000  C
  C66      1.0000 0.32300  0.31220  0.67720  Biso   1.000  C
  C67      1.0000 0.07140  0.48910  0.19620  Biso   1.000  C
  C68      1.0000 0.12500  0.43140  0.17947  Biso   1.000  C
  C69      1.0000 0.22570  0.41720  0.21324  Biso   1.000  C
  C70      1.0000 0.26690  0.46420  0.26195  Biso   1.000  C
  C71      1.0000 0.20660  0.51990  0.27640  Biso   1.000  C
  C72      1.0000 0.28700  0.35390  0.19710  Biso   1.000  C
  C73      1.0000 0.18010  0.14460  0.69834  Biso   1.000  C
  C74      1.0000 0.25540  0.09090  0.71217  Biso   1.000  C
  C75      1.0000 0.24540  0.03770  0.75512  Biso   1.000  C
  C76      1.0000 0.15770  0.04010  0.77970  Biso   1.000  C
  C77      1.0000 0.08540  0.09480  0.76350  Biso   1.000  C
  C78      1.0000 0.32580  0.97820  0.77620  Biso   1.000  C
  C79      1.0000 0.44450  0.91130  0.00744  Biso   1.000  C
  C80      1.0000 0.44910  0.96010  0.05616  Biso   1.000  C
  C81      1.0000 0.37510  0.01570  0.04847  Biso   1.000  C
  C82      1.0000 0.29530  0.01530  0.99563  Biso   1.000  C
  C83      1.0000 0.29740  0.96450  0.94980  Biso   1.000  C
  C84      1.0000 0.38390  0.07600  0.09486  Biso   1.000  C
  C85      1.0000 0.13400  0.29940  0.02080  Biso   1.000  C
  C86      1.0000 0.08580  0.31880  0.96010  Biso   1.000  C
  C87      1.0000 0.18380  0.22890  0.92340  Biso   1.000  C
  C88      1.0000 0.23530  0.21490  0.98440  Biso   1.000  C
  C89      1.0000 0.10380  0.28110  0.91029  Biso   1.000  C
  C90      1.0000 0.05060  0.29460  0.84309  Biso   1.000  C
  C91      1.0000 0.48240  0.27020  0.07751  Biso   1.000  C
  C92      1.0000 0.46850  0.33360  0.03210  Biso   1.000  C
  C93      1.0000 0.42660  0.40060  0.05510  Biso   1.000  C
  C94      1.0000 0.11800  0.20050  0.19910  Biso   1.000  C
  C95      1.0000 0.01800  0.20010  0.21340  Biso   1.000  C
  C96      1.0000 0.93380  0.18220  0.16720  Biso   1.000  C
  C97      1.0000 0.95300  0.16210  0.11080  Biso   1.000  C
  C98      1.0000 0.05560  0.16030  0.10220  Biso   1.000  C
  C99      1.0000 0.82300  0.18780  0.17720  Biso   1.000  C
  C100     1.0000 0.42860  0.98910  0.30380  Biso   1.000  C
  C101     1.0000 0.37500  0.93140  0.32053  Biso   1.000  C
  C102     1.0000 0.27430  0.91720  0.28676  Biso   1.000  C
  C103     1.0000 0.23310  0.96420  0.23805  Biso   1.000  C
  C104     1.0000 0.29340  0.01990  0.22360  Biso   1.000  C
  C105     1.0000 0.21300  0.85390  0.30290  Biso   1.000  C
  C106     1.0000 0.31990  0.64460  0.80166  Biso   1.000  C
  C107     1.0000 0.24460  0.59090  0.78783  Biso   1.000  C
  C108     1.0000 0.25460  0.53770  0.74488  Biso   1.000  C
  C109     1.0000 0.34230  0.54010  0.72030  Biso   1.000  C
  C110     1.0000 0.41460  0.59480  0.73650  Biso   1.000  C
  C111     1.0000 0.17420  0.47820  0.72380  Biso   1.000  C
  C112     1.0000 0.05550  0.41130  0.49256  Biso   1.000  C
  C113     1.0000 0.05090  0.46010  0.44384  Biso   1.000  C
  C114     1.0000 0.12490  0.51570  0.45153  Biso   1.000  C
  C115     1.0000 0.20470  0.51530  0.50437  Biso   1.000  C
  C116     1.0000 0.20260  0.46450  0.55020  Biso   1.000  C
  C117     1.0000 0.11610  0.57600  0.40514  Biso   1.000  C
  C118     1.0000 0.36600  0.79940  0.47920  Biso   1.000  C
  C119     1.0000 0.41420  0.81880  0.53990  Biso   1.000  C
  C120     1.0000 0.31620  0.72890  0.57660  Biso   1.000  C
  C121     1.0000 0.26470  0.71490  0.51560  Biso   1.000  C
  C122     1.0000 0.39620  0.78110  0.58971  Biso   1.000  C
  C123     1.0000 0.44940  0.79460  0.65691  Biso   1.000  C
  C124     1.0000 0.01760  0.77020  0.42249  Biso   1.000  C
  C125     1.0000 0.03150  0.83360  0.46790  Biso   1.000  C
  C126     1.0000 0.07340  0.90060  0.44490  Biso   1.000  C
  C127     1.0000 0.38200  0.70050  0.30090  Biso   1.000  C
  C128     1.0000 0.48200  0.70010  0.28660  Biso   1.000  C
  C129     1.0000 0.56620  0.68220  0.33280  Biso   1.000  C
  C130     1.0000 0.54700  0.66210  0.38920  Biso   1.000  C
  C131     1.0000 0.44440  0.66030  0.39780  Biso   1.000  C
  C132     1.0000 0.67700  0.68780  0.32280  Biso   1.000  C
  N1       1.0000 0.89040  0.46778  0.75551  Biso   1.000  N
  N2       1.0000 0.90390  0.85211  0.27691  Biso   1.000  N
  N3       1.0000 0.62700  0.08567  0.04635  Biso   1.000  N
  N4       1.0000 0.79250  0.75160  0.96677  Biso   1.000  N
  N5       1.0000 0.85500  0.81760  0.85480  Biso   1.000  N
  N6       1.0000 0.60960  0.96778  0.74449  Biso   1.000  N
  N7       1.0000 0.59610  0.35211  0.22309  Biso   1.000  N
  N8       1.0000 0.87300  0.58567  0.45365  Biso   1.000  N
  N9       1.0000 0.70750  0.25160  0.53323  Biso   1.000  N
  N10      1.0000 0.64500  0.31760  0.64520  Biso   1.000  N
  N11      1.0000 0.10960  0.53222  0.24449  Biso   1.000  N
  N12      1.0000 0.09610  0.14789  0.72309  Biso   1.000  N
  N13      1.0000 0.37300  0.91433  0.95365  Biso   1.000  N
  N14      1.0000 0.20750  0.24840  0.03323  Biso   1.000  N
  N15      1.0000 0.14500  0.18240  0.14520  Biso   1.000  N
  N16      1.0000 0.39040  0.03222  0.25551  Biso   1.000  N
  N17      1.0000 0.40390  0.64789  0.77691  Biso   1.000  N
  N18      1.0000 0.12700  0.41433  0.54635  Biso   1.000  N
  N19      1.0000 0.29250  0.74840  0.46677  Biso   1.000  N
  N20      1.0000 0.35500  0.68240  0.35480  Biso   1.000  N
  O1       1.0000 0.58540  0.18647  0.20696  Biso   1.000  O
  O2       1.0000 0.62460  0.81177  0.79095  Biso   1.000  O
  O3       1.0000 0.62110  0.65420  0.77180  Biso   1.000  O
  O4       1.0000 0.76060  0.68525  0.84677  Biso   1.000  O
  O5       1.0000 0.68490  0.05442  0.17579  Biso   1.000  O
  O6       1.0000 0.60780  0.03304  0.25475  Biso   1.000  O
  O7       1.0000 0.96840  0.76145  0.18950  Biso   1.000  O
  O8       1.0000 0.96820  0.64119  0.17391  Biso   1.000  O
  O9       1.0000 0.53150  0.92014  0.86299  Biso   1.000  O
  O10      1.0000 0.69200  0.88155  0.91284  Biso   1.000  O
  O11      1.0000 0.45520  0.77838  0.92862  Biso   1.000  O
  O12      1.0000 0.57250  0.72944  0.88191  Biso   1.000  O
  O13      1.0000 0.18870  0.80780  0.76930  Biso   1.000  O
  O14      1.0000 0.24830  0.81370  0.87120  Biso   1.000  O
  O15      1.0000 0.91460  0.68647  0.29304  Biso   1.000  O
  O16      1.0000 0.87540  0.31177  0.70905  Biso   1.000  O
  O17      1.0000 0.87890  0.15420  0.72820  Biso   1.000  O
  O18      1.0000 0.73940  0.18525  0.65323  Biso   1.000  O
  O19      1.0000 0.81510  0.55442  0.32421  Biso   1.000  O
  O20      1.0000 0.89220  0.53304  0.24525  Biso   1.000  O
  O21      1.0000 0.53160  0.26145  0.31050  Biso   1.000  O
  O22      1.0000 0.53180  0.14119  0.32609  Biso   1.000  O
  O23      1.0000 0.96850  0.42014  0.63701  Biso   1.000  O
  O24      1.0000 0.80800  0.38155  0.58716  Biso   1.000  O
  O25      1.0000 0.04480  0.27838  0.57138  Biso   1.000  O
  O26      1.0000 0.92750  0.22944  0.61809  Biso   1.000  O
  O27      1.0000 0.31130  0.30780  0.73070  Biso   1.000  O
  O28      1.0000 0.25170  0.31370  0.62880  Biso   1.000  O
  O29      1.0000 0.41460  0.81353  0.79304  Biso   1.000  O
  O30      1.0000 0.37540  0.18823  0.20905  Biso   1.000  O
  O31      1.0000 0.37890  0.34580  0.22820  Biso   1.000  O
  O32      1.0000 0.23940  0.31475  0.15323  Biso   1.000  O
  O33      1.0000 0.31510  0.94558  0.82421  Biso   1.000  O
  O34      1.0000 0.39220  0.96696  0.74525  Biso   1.000  O
  O35      1.0000 0.03160  0.23855  0.81050  Biso   1.000  O
  O36      1.0000 0.03180  0.35881  0.82609  Biso   1.000  O
  O37      1.0000 0.46850  0.07986  0.13701  Biso   1.000  O
  O38      1.0000 0.30800  0.11845  0.08716  Biso   1.000  O
  O39      1.0000 0.54480  0.22162  0.07138  Biso   1.000  O
  O40      1.0000 0.42750  0.27056  0.11809  Biso   1.000  O
  O41      1.0000 0.81130  0.19220  0.23070  Biso   1.000  O
  O42      1.0000 0.75170  0.18630  0.12880  Biso   1.000  O
  O43      1.0000 0.08540  0.31353  0.70696  Biso   1.000  O
  O44      1.0000 0.12460  0.68823  0.29095  Biso   1.000  O
  O45      1.0000 0.12110  0.84580  0.27180  Biso   1.000  O
  O46      1.0000 0.26060  0.81475  0.34677  Biso   1.000  O
  O47      1.0000 0.18490  0.44558  0.67579  Biso   1.000  O
  O48      1.0000 0.10780  0.46696  0.75475  Biso   1.000  O
  O49      1.0000 0.46840  0.73855  0.68950  Biso   1.000  O
  O50      1.0000 0.46820  0.85881  0.67391  Biso   1.000  O
  O51      1.0000 0.03150  0.57986  0.36299  Biso   1.000  O
  O52      1.0000 0.19200  0.61845  0.41284  Biso   1.000  O
  O53      1.0000 0.95520  0.72162  0.42862  Biso   1.000  O
  O54      1.0000 0.07250  0.77056  0.38191  Biso   1.000  O
  O55      1.0000 0.68870  0.69220  0.26930  Biso   1.000  O
  O56      1.0000 0.74830  0.68630  0.37120  Biso   1.000  O
