data_image0
_cell_length_a       16.0671
_cell_length_b       16.3128
_cell_length_c       20.8626
_cell_angle_alpha    72.919
_cell_angle_beta     72.729
_cell_angle_gamma    80.883

_symmetry_space_group_name_H-M    P 1
_symmetry_int_tables_number       1

loop_
  _symmetry_equiv_pos_as_xyz
  'x, y, z'

loop_
  _atom_site_label
  _atom_site_occupancy
  _atom_site_fract_x
  _atom_site_fract_y
  _atom_site_fract_z
  _atom_site_thermal_displace_type
  _atom_site_B_iso_or_equiv
  _atom_site_type_symbol
  Rb1      1.0000 0.04199  0.05409  0.83968  Biso   1.000  Rb
  Rb2      1.0000 0.08346  0.34223  0.47741  Biso   1.000  Rb
  Rb3      1.0000 0.00405  0.57492  0.85804  Biso   1.000  Rb
  Rb4      1.0000 0.66548  0.92274  0.94139  Biso   1.000  Rb
  Rb5      1.0000 0.42612  0.99661  0.38727  Biso   1.000  Rb
  Rb6      1.0000 0.95801  0.94591  0.16032  Biso   1.000  Rb
  Rb7      1.0000 0.91654  0.65777  0.52259  Biso   1.000  Rb
  Rb8      1.0000 0.99595  0.42508  0.14196  Biso   1.000  Rb
  Rb9      1.0000 0.33452  0.07726  0.05861  Biso   1.000  Rb
  Rb10     1.0000 0.57388  0.00339  0.61273  Biso   1.000  Rb
  Na1      1.0000 0.24830  0.25200  0.75018  Biso   1.000  Na
  Na2      1.0000 0.75170  0.74800  0.24982  Biso   1.000  Na
  Mo1      1.0000 0.21298  0.47176  0.74559  Biso   1.000  Mo
  Mo2      1.0000 0.30287  0.57782  0.55922  Biso   1.000  Mo
  Mo3      1.0000 0.16720  0.56061  0.47999  Biso   1.000  Mo
  Mo4      1.0000 0.52721  0.78126  0.32860  Biso   1.000  Mo
  Mo5      1.0000 0.43147  0.69641  0.22260  Biso   1.000  Mo
  Mo6      1.0000 0.44864  0.83662  0.07722  Biso   1.000  Mo
  Mo7      1.0000 0.12000  0.20078  0.65391  Biso   1.000  Mo
  Mo8      1.0000 0.16788  0.96481  0.68552  Biso   1.000  Mo
  Mo9      1.0000 0.36197  0.93258  0.59600  Biso   1.000  Mo
  Mo10     1.0000 0.81184  0.88151  0.07096  Biso   1.000  Mo
  Mo11     1.0000 0.94792  0.16859  0.98417  Biso   1.000  Mo
  Mo12     1.0000 0.91829  0.36065  0.99938  Biso   1.000  Mo
  Mo13     1.0000 0.78702  0.52824  0.25441  Biso   1.000  Mo
  Mo14     1.0000 0.69713  0.42218  0.44078  Biso   1.000  Mo
  Mo15     1.0000 0.83280  0.43939  0.52001  Biso   1.000  Mo
  Mo16     1.0000 0.47279  0.21874  0.67140  Biso   1.000  Mo
  Mo17     1.0000 0.56853  0.30359  0.77740  Biso   1.000  Mo
  Mo18     1.0000 0.55136  0.16338  0.92278  Biso   1.000  Mo
  Mo19     1.0000 0.88000  0.79922  0.34609  Biso   1.000  Mo
  Mo20     1.0000 0.83212  0.03519  0.31448  Biso   1.000  Mo
  Mo21     1.0000 0.63803  0.06742  0.40400  Biso   1.000  Mo
  Mo22     1.0000 0.18816  0.11849  0.92904  Biso   1.000  Mo
  Mo23     1.0000 0.05208  0.83141  0.01583  Biso   1.000  Mo
  Mo24     1.0000 0.08171  0.63935  0.00062  Biso   1.000  Mo
  P1       1.0000 0.16833  0.40301  0.62050  Biso   1.000  P
  P2       1.0000 0.07681  0.57112  0.64180  Biso   1.000  P
  P3       1.0000 0.56904  0.08108  0.79259  Biso   1.000  P
  P4       1.0000 0.60477  0.83302  0.15077  Biso   1.000  P
  P5       1.0000 0.25804  0.11313  0.52804  Biso   1.000  P
  P6       1.0000 0.33007  0.11224  0.64463  Biso   1.000  P
  P7       1.0000 0.10192  0.32763  0.88299  Biso   1.000  P
  P8       1.0000 0.90056  0.74576  0.96723  Biso   1.000  P
  P9       1.0000 0.83167  0.59699  0.37950  Biso   1.000  P
  P10      1.0000 0.92319  0.42888  0.35820  Biso   1.000  P
  P11      1.0000 0.43096  0.91892  0.20741  Biso   1.000  P
  P12      1.0000 0.39523  0.16698  0.84923  Biso   1.000  P
  P13      1.0000 0.74196  0.88687  0.47196  Biso   1.000  P
  P14      1.0000 0.66993  0.88776  0.35537  Biso   1.000  P
  P15      1.0000 0.89808  0.67237  0.11701  Biso   1.000  P
  P16      1.0000 0.09944  0.25424  0.03277  Biso   1.000  P
  H1       1.0000 0.93380  0.47190  0.64510  Biso   1.000  H
  H2       1.0000 0.98150  0.38160  0.64060  Biso   1.000  H
  H3       1.0000 0.95310  0.45180  0.75590  Biso   1.000  H
  H4       1.0000 0.01050  0.36540  0.75100  Biso   1.000  H
  H5       1.0000 0.89240  0.29780  0.75910  Biso   1.000  H
  H6       1.0000 0.83390  0.38460  0.75000  Biso   1.000  H
  H7       1.0000 0.89040  0.30010  0.85930  Biso   1.000  H
  H8       1.0000 0.85420  0.38850  0.85080  Biso   1.000  H
  H9       1.0000 0.76480  0.27460  0.92270  Biso   1.000  H
  H10      1.0000 0.72340  0.35840  0.87990  Biso   1.000  H
  H11      1.0000 0.74950  0.27640  0.85150  Biso   1.000  H
  H12      1.0000 0.62540  0.01710  0.08240  Biso   1.000  H
  H13      1.0000 0.53440  0.06390  0.10880  Biso   1.000  H
  H14      1.0000 0.63780  0.98000  0.19940  Biso   1.000  H
  H15      1.0000 0.55560  0.04510  0.21460  Biso   1.000  H
  H16      1.0000 0.72640  0.09250  0.11960  Biso   1.000  H
  H17      1.0000 0.64430  0.15710  0.11140  Biso   1.000  H
  H18      1.0000 0.70260  0.10030  0.21860  Biso   1.000  H
  H19      1.0000 0.62240  0.15420  0.21550  Biso   1.000  H
  H20      1.0000 0.78430  0.21030  0.14160  Biso   1.000  H
  H21      1.0000 0.72900  0.23540  0.20970  Biso   1.000  H
  H22      1.0000 0.69670  0.26850  0.14190  Biso   1.000  H
  H23      1.0000 0.43150  0.18600  0.45710  Biso   1.000  H
  H24      1.0000 0.46480  0.19070  0.51910  Biso   1.000  H
  H25      1.0000 0.31920  0.29060  0.48100  Biso   1.000  H
  H26      1.0000 0.35060  0.29440  0.54450  Biso   1.000  H
  H27      1.0000 0.46250  0.33660  0.40340  Biso   1.000  H
  H28      1.0000 0.48750  0.34720  0.46750  Biso   1.000  H
  H29      1.0000 0.34910  0.43430  0.42960  Biso   1.000  H
  H30      1.0000 0.39290  0.45150  0.47510  Biso   1.000  H
  H31      1.0000 0.42570  0.50490  0.34070  Biso   1.000  H
  H32      1.0000 0.43560  0.55160  0.39360  Biso   1.000  H
  H33      1.0000 0.50780  0.48140  0.37060  Biso   1.000  H
  H34      1.0000 0.17740  0.42730  0.99180  Biso   1.000  H
  H35      1.0000 0.18540  0.45600  0.91170  Biso   1.000  H
  H36      1.0000 0.28730  0.33460  0.89630  Biso   1.000  H
  H37      1.0000 0.27880  0.30520  0.97640  Biso   1.000  H
  H38      1.0000 0.40760  0.37570  0.92300  Biso   1.000  H
  H39      1.0000 0.34150  0.43530  0.96560  Biso   1.000  H
  H40      1.0000 0.30120  0.49870  0.85690  Biso   1.000  H
  H41      1.0000 0.38500  0.45990  0.82380  Biso   1.000  H
  H42      1.0000 0.43380  0.53440  0.89430  Biso   1.000  H
  H43      1.0000 0.43810  0.57510  0.81550  Biso   1.000  H
  H44      1.0000 0.35710  0.59850  0.87280  Biso   1.000  H
  H45      1.0000 0.06620  0.52810  0.35490  Biso   1.000  H
  H46      1.0000 0.01850  0.61840  0.35940  Biso   1.000  H
  H47      1.0000 0.04690  0.54820  0.24410  Biso   1.000  H
  H48      1.0000 0.98950  0.63460  0.24900  Biso   1.000  H
  H49      1.0000 0.10760  0.70220  0.24090  Biso   1.000  H
  H50      1.0000 0.16610  0.61540  0.25000  Biso   1.000  H
  H51      1.0000 0.10960  0.69990  0.14070  Biso   1.000  H
  H52      1.0000 0.14580  0.61150  0.14920  Biso   1.000  H
  H53      1.0000 0.23520  0.72540  0.07730  Biso   1.000  H
  H54      1.0000 0.27660  0.64160  0.12010  Biso   1.000  H
  H55      1.0000 0.25050  0.72360  0.14850  Biso   1.000  H
  H56      1.0000 0.37460  0.98290  0.91760  Biso   1.000  H
  H57      1.0000 0.46560  0.93610  0.89120  Biso   1.000  H
  H58      1.0000 0.36220  0.02000  0.80060  Biso   1.000  H
  H59      1.0000 0.44440  0.95490  0.78540  Biso   1.000  H
  H60      1.0000 0.27360  0.90750  0.88040  Biso   1.000  H
  H61      1.0000 0.35570  0.84290  0.88860  Biso   1.000  H
  H62      1.0000 0.29740  0.89970  0.78140  Biso   1.000  H
  H63      1.0000 0.37760  0.84580  0.78450  Biso   1.000  H
  H64      1.0000 0.21570  0.78970  0.85840  Biso   1.000  H
  H65      1.0000 0.27100  0.76460  0.79030  Biso   1.000  H
  H66      1.0000 0.30330  0.73150  0.85810  Biso   1.000  H
  H67      1.0000 0.56850  0.81400  0.54290  Biso   1.000  H
  H68      1.0000 0.53520  0.80930  0.48090  Biso   1.000  H
  H69      1.0000 0.68080  0.70940  0.51900  Biso   1.000  H
  H70      1.0000 0.64940  0.70560  0.45550  Biso   1.000  H
  H71      1.0000 0.53750  0.66340  0.59660  Biso   1.000  H
  H72      1.0000 0.51250  0.65280  0.53250  Biso   1.000  H
  H73      1.0000 0.65090  0.56570  0.57040  Biso   1.000  H
  H74      1.0000 0.60710  0.54850  0.52490  Biso   1.000  H
  H75      1.0000 0.57430  0.49510  0.65930  Biso   1.000  H
  H76      1.0000 0.56440  0.44840  0.60640  Biso   1.000  H
  H77      1.0000 0.49220  0.51860  0.62940  Biso   1.000  H
  H78      1.0000 0.82260  0.57270  0.00820  Biso   1.000  H
  H79      1.0000 0.81460  0.54400  0.08830  Biso   1.000  H
  H80      1.0000 0.71270  0.66540  0.10370  Biso   1.000  H
  H81      1.0000 0.72120  0.69480  0.02360  Biso   1.000  H
  H82      1.0000 0.59240  0.62430  0.07700  Biso   1.000  H
  H83      1.0000 0.65850  0.56470  0.03440  Biso   1.000  H
  H84      1.0000 0.69880  0.50130  0.14310  Biso   1.000  H
  H85      1.0000 0.61500  0.54010  0.17620  Biso   1.000  H
  H86      1.0000 0.56620  0.46560  0.10570  Biso   1.000  H
  H87      1.0000 0.56190  0.42490  0.18450  Biso   1.000  H
  H88      1.0000 0.64290  0.40150  0.12720  Biso   1.000  H
  C1       1.0000 0.06660  0.47260  0.61960  Biso   1.000  C
  C2       1.0000 0.98110  0.43120  0.65740  Biso   1.000  C
  C3       1.0000 0.96100  0.40170  0.73800  Biso   1.000  C
  C4       1.0000 0.88030  0.35290  0.77030  Biso   1.000  C
  C5       1.0000 0.76500  0.30960  0.87680  Biso   1.000  C
  C6       1.0000 0.53130  0.93220  0.13870  Biso   1.000  C
  C7       1.0000 0.57530  0.01600  0.12240  Biso   1.000  C
  C8       1.0000 0.60550  0.03140  0.17860  Biso   1.000  C
  C9       1.0000 0.66920  0.11240  0.14440  Biso   1.000  C
  C10      1.0000 0.72620  0.22130  0.16890  Biso   1.000  C
  C11      1.0000 0.35650  0.12270  0.55150  Biso   1.000  C
  C12      1.0000 0.41280  0.19490  0.50340  Biso   1.000  C
  C13      1.0000 0.36990  0.28390  0.49880  Biso   1.000  C
  C14      1.0000 0.43930  0.35140  0.44750  Biso   1.000  C
  C15      1.0000 0.44620  0.49810  0.38090  Biso   1.000  C
  C16      1.0000 0.11030  0.35170  0.96250  Biso   1.000  C
  C17      1.0000 0.18620  0.40640  0.95100  Biso   1.000  C
  C18      1.0000 0.27790  0.35500  0.93730  Biso   1.000  C
  C19      1.0000 0.35250  0.41060  0.92660  Biso   1.000  C
  C20      1.0000 0.40010  0.55360  0.86080  Biso   1.000  C
  C21      1.0000 0.93340  0.52740  0.38040  Biso   1.000  C
  C22      1.0000 0.01890  0.56880  0.34260  Biso   1.000  C
  C23      1.0000 0.03900  0.59830  0.26200  Biso   1.000  C
  C24      1.0000 0.11970  0.64710  0.22970  Biso   1.000  C
  C25      1.0000 0.23500  0.69040  0.12320  Biso   1.000  C
  C26      1.0000 0.46870  0.06780  0.86130  Biso   1.000  C
  C27      1.0000 0.42470  0.98400  0.87760  Biso   1.000  C
  C28      1.0000 0.39450  0.96860  0.82140  Biso   1.000  C
  C29      1.0000 0.33080  0.88760  0.85560  Biso   1.000  C
  C30      1.0000 0.27380  0.77870  0.83110  Biso   1.000  C
  C31      1.0000 0.64350  0.87730  0.44850  Biso   1.000  C
  C32      1.0000 0.58720  0.80510  0.49660  Biso   1.000  C
  C33      1.0000 0.63010  0.71610  0.50120  Biso   1.000  C
  C34      1.0000 0.56070  0.64860  0.55250  Biso   1.000  C
  C35      1.0000 0.55380  0.50190  0.61910  Biso   1.000  C
  C36      1.0000 0.88970  0.64830  0.03750  Biso   1.000  C
  C37      1.0000 0.81380  0.59360  0.04900  Biso   1.000  C
  C38      1.0000 0.72210  0.64500  0.06270  Biso   1.000  C
  C39      1.0000 0.64750  0.58940  0.07340  Biso   1.000  C
  C40      1.0000 0.59990  0.44640  0.13920  Biso   1.000  C
  N1       1.0000 0.85180  0.33900  0.84080  Biso   1.000  N
  N2       1.0000 0.67660  0.14210  0.19020  Biso   1.000  N
  N3       1.0000 0.40200  0.43500  0.43590  Biso   1.000  N
  N4       1.0000 0.35580  0.48050  0.86060  Biso   1.000  N
  N5       1.0000 0.14820  0.66100  0.15920  Biso   1.000  N
  N6       1.0000 0.32340  0.85790  0.80980  Biso   1.000  N
  N7       1.0000 0.59800  0.56500  0.56410  Biso   1.000  N
  N8       1.0000 0.64420  0.51950  0.13940  Biso   1.000  N
  O1       1.0000 0.18670  0.38270  0.69130  Biso   1.000  O
  O2       1.0000 0.62150  0.81170  0.22170  Biso   1.000  O
  O3       1.0000 0.23460  0.45830  0.55950  Biso   1.000  O
  O4       1.0000 0.02980  0.40520  0.98160  Biso   1.000  O
  O5       1.0000 0.30270  0.01870  0.67540  Biso   1.000  O
  O6       1.0000 0.55160  0.76940  0.14190  Biso   1.000  O
  O7       1.0000 0.00610  0.30470  0.90670  Biso   1.000  O
  O8       1.0000 0.11180  0.41110  0.82310  Biso   1.000  O
  O9       1.0000 0.27760  0.52890  0.65590  Biso   1.000  O
  O10      1.0000 0.41310  0.12000  0.66270  Biso   1.000  O
  O11      1.0000 0.06880  0.50210  0.54600  Biso   1.000  O
  O12      1.0000 0.10190  0.54600  0.71080  Biso   1.000  O
  O13      1.0000 0.50670  0.93250  0.07650  Biso   1.000  O
  O14      1.0000 0.68850  0.84500  0.09220  Biso   1.000  O
  O15      1.0000 0.16800  0.25470  0.86620  Biso   1.000  O
  O16      1.0000 0.15880  0.32220  0.60220  Biso   1.000  O
  O17      1.0000 0.25690  0.17850  0.66470  Biso   1.000  O
  O18      1.0000 0.18760  0.17930  0.55320  Biso   1.000  O
  O19      1.0000 0.83310  0.81660  0.99040  Biso   1.000  O
  O20      1.0000 0.27740  0.12030  0.45200  Biso   1.000  O
  O21      1.0000 0.99690  0.76330  0.95900  Biso   1.000  O
  O22      1.0000 0.06420  0.12350  0.95350  Biso   1.000  O
  O23      1.0000 0.27480  0.60090  0.46980  Biso   1.000  O
  O24      1.0000 0.15280  0.60880  0.57990  Biso   1.000  O
  O25      1.0000 0.20790  0.09140  0.85240  Biso   1.000  O
  O26      1.0000 0.23780  0.01970  0.57190  Biso   1.000  O
  O27      1.0000 0.89360  0.72510  0.90400  Biso   1.000  O
  O28      1.0000 0.09380  0.90940  0.94440  Biso   1.000  O
  O29      1.0000 0.09050  0.22010  0.73390  Biso   1.000  O
  O30      1.0000 0.60460  0.15590  0.80630  Biso   1.000  O
  O31      1.0000 0.41340  0.72690  0.12870  Biso   1.000  O
  O32      1.0000 0.28900  0.39480  0.76990  Biso   1.000  O
  O33      1.0000 0.12300  0.07930  0.68380  Biso   1.000  O
  O34      1.0000 0.99390  0.62870  0.64070  Biso   1.000  O
  O35      1.0000 0.08890  0.92570  0.66830  Biso   1.000  O
  O36      1.0000 0.86310  0.26540  0.00180  Biso   1.000  O
  O37      1.0000 0.87200  0.44170  0.94350  Biso   1.000  O
  O38      1.0000 0.39570  0.29490  0.64770  Biso   1.000  O
  O39      1.0000 0.41000  0.04100  0.54470  Biso   1.000  O
  O40      1.0000 0.63030  0.00230  0.80230  Biso   1.000  O
  O41      1.0000 0.90840  0.15500  0.92010  Biso   1.000  O
  O42      1.0000 0.88730  0.34900  0.55940  Biso   1.000  O
  O43      1.0000 0.79050  0.97650  0.01590  Biso   1.000  O
  O44      1.0000 0.47350  0.72190  0.28920  Biso   1.000  O
  O45      1.0000 0.21530  0.54500  0.78800  Biso   1.000  O
  O46      1.0000 0.13090  0.62210  0.92090  Biso   1.000  O
  O47      1.0000 0.64470  0.10980  0.94280  Biso   1.000  O
  O48      1.0000 0.14780  0.92670  0.77340  Biso   1.000  O
  O49      1.0000 0.51380  0.81530  0.00240  Biso   1.000  O
  O50      1.0000 0.55780  0.11730  0.36420  Biso   1.000  O
  O51      1.0000 0.45010  0.77950  0.40410  Biso   1.000  O
  O52      1.0000 0.37570  0.88600  0.53050  Biso   1.000  O
  O53      1.0000 0.02350  0.22240  0.63140  Biso   1.000  O
  O54      1.0000 0.48450  0.59730  0.21940  Biso   1.000  O
  O55      1.0000 0.32370  0.67850  0.55550  Biso   1.000  O
  O56      1.0000 0.40350  0.53040  0.53390  Biso   1.000  O
  O57      1.0000 0.54670  0.10720  0.72350  Biso   1.000  O
  O58      1.0000 0.19460  0.49640  0.42390  Biso   1.000  O
  O59      1.0000 0.26440  0.88160  0.66060  Biso   1.000  O
  O60      1.0000 0.32770  0.67250  0.26980  Biso   1.000  O
  O61      1.0000 0.38490  0.12410  0.25880  Biso   1.000  O
  O62      1.0000 0.73440  0.77790  0.87170  Biso   1.000  O
  O63      1.0000 0.87300  0.62520  0.77270  Biso   1.000  O
  O64      1.0000 0.81330  0.61730  0.30870  Biso   1.000  O
  O65      1.0000 0.37850  0.18830  0.77830  Biso   1.000  O
  O66      1.0000 0.76540  0.54170  0.44050  Biso   1.000  O
  O67      1.0000 0.97020  0.59480  0.01840  Biso   1.000  O
  O68      1.0000 0.69730  0.98130  0.32460  Biso   1.000  O
  O69      1.0000 0.44840  0.23060  0.85810  Biso   1.000  O
  O70      1.0000 0.99390  0.69530  0.09330  Biso   1.000  O
  O71      1.0000 0.88820  0.58890  0.17690  Biso   1.000  O
  O72      1.0000 0.72240  0.47110  0.34410  Biso   1.000  O
  O73      1.0000 0.58690  0.88000  0.33730  Biso   1.000  O
  O74      1.0000 0.93120  0.49790  0.45400  Biso   1.000  O
  O75      1.0000 0.89810  0.45400  0.28920  Biso   1.000  O
  O76      1.0000 0.49330  0.06750  0.92350  Biso   1.000  O
  O77      1.0000 0.31150  0.15500  0.90780  Biso   1.000  O
  O78      1.0000 0.83200  0.74530  0.13380  Biso   1.000  O
  O79      1.0000 0.84120  0.67780  0.39780  Biso   1.000  O
  O80      1.0000 0.74310  0.82150  0.33530  Biso   1.000  O
  O81      1.0000 0.81240  0.82070  0.44680  Biso   1.000  O
  O82      1.0000 0.16690  0.18340  0.00960  Biso   1.000  O
  O83      1.0000 0.72260  0.87970  0.54800  Biso   1.000  O
  O84      1.0000 0.00310  0.23670  0.04100  Biso   1.000  O
  O85      1.0000 0.93580  0.87650  0.04650  Biso   1.000  O
  O86      1.0000 0.72520  0.39910  0.53020  Biso   1.000  O
  O87      1.0000 0.84720  0.39120  0.42010  Biso   1.000  O
  O88      1.0000 0.79210  0.90860  0.14760  Biso   1.000  O
  O89      1.0000 0.76220  0.98030  0.42810  Biso   1.000  O
  O90      1.0000 0.10640  0.27490  0.09600  Biso   1.000  O
  O91      1.0000 0.90620  0.09060  0.05560  Biso   1.000  O
  O92      1.0000 0.90950  0.77990  0.26610  Biso   1.000  O
  O93      1.0000 0.39540  0.84410  0.19370  Biso   1.000  O
  O94      1.0000 0.58660  0.27310  0.87130  Biso   1.000  O
  O95      1.0000 0.71100  0.60520  0.23010  Biso   1.000  O
  O96      1.0000 0.87700  0.92070  0.31620  Biso   1.000  O
  O97      1.0000 0.00610  0.37130  0.35930  Biso   1.000  O
  O98      1.0000 0.91110  0.07430  0.33170  Biso   1.000  O
  O99      1.0000 0.13690  0.73460  0.99820  Biso   1.000  O
  O100     1.0000 0.12800  0.55830  0.05650  Biso   1.000  O
  O101     1.0000 0.60430  0.70510  0.35230  Biso   1.000  O
  O102     1.0000 0.59000  0.95900  0.45530  Biso   1.000  O
  O103     1.0000 0.36970  0.99770  0.19770  Biso   1.000  O
  O104     1.0000 0.09160  0.84500  0.07990  Biso   1.000  O
  O105     1.0000 0.11270  0.65100  0.44060  Biso   1.000  O
  O106     1.0000 0.20950  0.02350  0.98410  Biso   1.000  O
  O107     1.0000 0.52650  0.27810  0.71080  Biso   1.000  O
  O108     1.0000 0.78470  0.45500  0.21200  Biso   1.000  O
  O109     1.0000 0.86910  0.37790  0.07910  Biso   1.000  O
  O110     1.0000 0.35530  0.89020  0.05720  Biso   1.000  O
  O111     1.0000 0.85220  0.07330  0.22660  Biso   1.000  O
  O112     1.0000 0.48620  0.18470  0.99760  Biso   1.000  O
  O113     1.0000 0.44220  0.88270  0.63580  Biso   1.000  O
  O114     1.0000 0.54990  0.22050  0.59590  Biso   1.000  O
  O115     1.0000 0.62430  0.11400  0.46950  Biso   1.000  O
  O116     1.0000 0.97650  0.77760  0.36860  Biso   1.000  O
  O117     1.0000 0.51550  0.40270  0.78060  Biso   1.000  O
  O118     1.0000 0.67630  0.32150  0.44450  Biso   1.000  O
  O119     1.0000 0.59650  0.46960  0.46610  Biso   1.000  O
  O120     1.0000 0.45330  0.89280  0.27650  Biso   1.000  O
  O121     1.0000 0.80540  0.50360  0.57610  Biso   1.000  O
  O122     1.0000 0.73560  0.11840  0.33940  Biso   1.000  O
  O123     1.0000 0.67230  0.32750  0.73020  Biso   1.000  O
  O124     1.0000 0.61510  0.87590  0.74120  Biso   1.000  O
  O125     1.0000 0.26560  0.22210  0.12830  Biso   1.000  O
  O126     1.0000 0.12700  0.37480  0.22730  Biso   1.000  O
