data_image0
_cell_length_a       7.9025
_cell_length_b       12.355
_cell_length_c       12.355
_cell_angle_alpha    90
_cell_angle_beta     90
_cell_angle_gamma    90

_symmetry_space_group_name_H-M    P 1
_symmetry_int_tables_number       1

loop_
  _symmetry_equiv_pos_as_xyz
  'x, y, z'

loop_
  _atom_site_label
  _atom_site_occupancy
  _atom_site_fract_x
  _atom_site_fract_y
  _atom_site_fract_z
  _atom_site_thermal_displace_type
  _atom_site_B_iso_or_equiv
  _atom_site_type_symbol
  Cu1      1.0000 0.96648  0.32318  0.01525  Biso   1.000  Cu
  Cu2      1.0000 0.46648  0.67682  0.98475  Biso   1.000  Cu
  Cu3      1.0000 0.21648  0.98475  0.32318  Biso   1.000  Cu
  Cu4      1.0000 0.71648  0.01525  0.67682  Biso   1.000  Cu
  H1       1.0000 0.81810  0.09810  0.10670  Biso   1.000  H
  H2       1.0000 0.85280  0.05540  0.22400  Biso   1.000  H
  H3       1.0000 0.79840  0.22810  0.29400  Biso   1.000  H
  H4       1.0000 0.64040  0.18460  0.23020  Biso   1.000  H
  H5       1.0000 0.53410  0.36530  0.15840  Biso   1.000  H
  H6       1.0000 0.64500  0.39120  0.26080  Biso   1.000  H
  H7       1.0000 0.81070  0.50950  0.15880  Biso   1.000  H
  H8       1.0000 0.62110  0.54650  0.15700  Biso   1.000  H
  H9       1.0000 0.31810  0.90190  0.89330  Biso   1.000  H
  H10      1.0000 0.35280  0.94460  0.77600  Biso   1.000  H
  H11      1.0000 0.29840  0.77190  0.70600  Biso   1.000  H
  H12      1.0000 0.14040  0.81540  0.76980  Biso   1.000  H
  H13      1.0000 0.03410  0.63470  0.84160  Biso   1.000  H
  H14      1.0000 0.14500  0.60880  0.73920  Biso   1.000  H
  H15      1.0000 0.31070  0.49050  0.84120  Biso   1.000  H
  H16      1.0000 0.12110  0.45350  0.84300  Biso   1.000  H
  H17      1.0000 0.06810  0.89330  0.09810  Biso   1.000  H
  H18      1.0000 0.10280  0.77600  0.05540  Biso   1.000  H
  H19      1.0000 0.04840  0.70600  0.22810  Biso   1.000  H
  H20      1.0000 0.89040  0.76980  0.18460  Biso   1.000  H
  H21      1.0000 0.78410  0.84160  0.36530  Biso   1.000  H
  H22      1.0000 0.89500  0.73920  0.39120  Biso   1.000  H
  H23      1.0000 0.06070  0.84120  0.50950  Biso   1.000  H
  H24      1.0000 0.87110  0.84300  0.54650  Biso   1.000  H
  H25      1.0000 0.56810  0.10670  0.90190  Biso   1.000  H
  H26      1.0000 0.60280  0.22400  0.94460  Biso   1.000  H
  H27      1.0000 0.54840  0.29400  0.77190  Biso   1.000  H
  H28      1.0000 0.39040  0.23020  0.81540  Biso   1.000  H
  H29      1.0000 0.28410  0.15840  0.63470  Biso   1.000  H
  H30      1.0000 0.39500  0.26080  0.60880  Biso   1.000  H
  H31      1.0000 0.56070  0.15880  0.49050  Biso   1.000  H
  H32      1.0000 0.37110  0.15700  0.45350  Biso   1.000  H
  C1       1.0000 0.04590  0.14580  0.16500  Biso   1.000  C
  C2       1.0000 0.86280  0.11800  0.17710  Biso   1.000  C
  C3       1.0000 0.75680  0.20830  0.22290  Biso   1.000  C
  C4       1.0000 0.64700  0.38450  0.18250  Biso   1.000  C
  C5       1.0000 0.69870  0.49070  0.13280  Biso   1.000  C
  C6       1.0000 0.70090  0.48930  0.01230  Biso   1.000  C
  C7       1.0000 0.54590  0.85420  0.83500  Biso   1.000  C
  C8       1.0000 0.36280  0.88200  0.82290  Biso   1.000  C
  C9       1.0000 0.25680  0.79170  0.77710  Biso   1.000  C
  C10      1.0000 0.14700  0.61550  0.81750  Biso   1.000  C
  C11      1.0000 0.19870  0.50930  0.86720  Biso   1.000  C
  C12      1.0000 0.20090  0.51070  0.98770  Biso   1.000  C
  C13      1.0000 0.29590  0.83500  0.14580  Biso   1.000  C
  C14      1.0000 0.11280  0.82290  0.11800  Biso   1.000  C
  C15      1.0000 0.00680  0.77710  0.20830  Biso   1.000  C
  C16      1.0000 0.89700  0.81750  0.38450  Biso   1.000  C
  C17      1.0000 0.94870  0.86720  0.49070  Biso   1.000  C
  C18      1.0000 0.95090  0.98770  0.48930  Biso   1.000  C
  C19      1.0000 0.79590  0.16500  0.85420  Biso   1.000  C
  C20      1.0000 0.61280  0.17710  0.88200  Biso   1.000  C
  C21      1.0000 0.50680  0.22290  0.79170  Biso   1.000  C
  C22      1.0000 0.39700  0.18250  0.61550  Biso   1.000  C
  C23      1.0000 0.44870  0.13280  0.50930  Biso   1.000  C
  C24      1.0000 0.45090  0.01230  0.51070  Biso   1.000  C
  N1       1.0000 0.10370  0.22540  0.10070  Biso   1.000  N
  N2       1.0000 0.27510  0.22500  0.10810  Biso   1.000  N
  N3       1.0000 0.32020  0.14600  0.17260  Biso   1.000  N
  N4       1.0000 0.17750  0.09520  0.21040  Biso   1.000  N
  N5       1.0000 0.79740  0.42220  0.95430  Biso   1.000  N
  N6       1.0000 0.76660  0.44400  0.84910  Biso   1.000  N
  N7       1.0000 0.65780  0.52240  0.84320  Biso   1.000  N
  N8       1.0000 0.61400  0.55180  0.94650  Biso   1.000  N
  N9       1.0000 0.60370  0.77460  0.89930  Biso   1.000  N
  N10      1.0000 0.77510  0.77500  0.89190  Biso   1.000  N
  N11      1.0000 0.82020  0.85400  0.82740  Biso   1.000  N
  N12      1.0000 0.67750  0.90480  0.78960  Biso   1.000  N
  N13      1.0000 0.29740  0.57780  0.04570  Biso   1.000  N
  N14      1.0000 0.26660  0.55600  0.15090  Biso   1.000  N
  N15      1.0000 0.15780  0.47760  0.15680  Biso   1.000  N
  N16      1.0000 0.11400  0.44820  0.05350  Biso   1.000  N
  N17      1.0000 0.35370  0.89930  0.22540  Biso   1.000  N
  N18      1.0000 0.52510  0.89190  0.22500  Biso   1.000  N
  N19      1.0000 0.57020  0.82740  0.14600  Biso   1.000  N
  N20      1.0000 0.42750  0.78960  0.09520  Biso   1.000  N
  N21      1.0000 0.04740  0.04570  0.42220  Biso   1.000  N
  N22      1.0000 0.01660  0.15090  0.44400  Biso   1.000  N
  N23      1.0000 0.90780  0.15680  0.52240  Biso   1.000  N
  N24      1.0000 0.86400  0.05350  0.55180  Biso   1.000  N
  N25      1.0000 0.85370  0.10070  0.77460  Biso   1.000  N
  N26      1.0000 0.02510  0.10810  0.77500  Biso   1.000  N
  N27      1.0000 0.07020  0.17260  0.85400  Biso   1.000  N
  N28      1.0000 0.92750  0.21040  0.90480  Biso   1.000  N
  N29      1.0000 0.54740  0.95430  0.57780  Biso   1.000  N
  N30      1.0000 0.51660  0.84910  0.55600  Biso   1.000  N
  N31      1.0000 0.40780  0.84320  0.47760  Biso   1.000  N
  N32      1.0000 0.36400  0.94650  0.44820  Biso   1.000  N
  O1       1.0000 0.76500  0.30100  0.15130  Biso   1.000  O
  O2       1.0000 0.26500  0.69900  0.84870  Biso   1.000  O
  O3       1.0000 0.01500  0.84870  0.30100  Biso   1.000  O
  O4       1.0000 0.51500  0.15130  0.69900  Biso   1.000  O
