data_image0
_cell_length_a       9.31242
_cell_length_b       19.1575
_cell_length_c       19.1575
_cell_angle_alpha    62.573
_cell_angle_beta     80.6751
_cell_angle_gamma    99.3249

_symmetry_space_group_name_H-M    P 1
_symmetry_int_tables_number       1

loop_
  _symmetry_equiv_pos_as_xyz
  'x, y, z'

loop_
  _atom_site_label
  _atom_site_occupancy
  _atom_site_fract_x
  _atom_site_fract_y
  _atom_site_fract_z
  _atom_site_thermal_displace_type
  _atom_site_B_iso_or_equiv
  _atom_site_type_symbol
  Co1      1.0000 0.00000  0.00000  0.50000  Biso   1.000  Co
  H1       1.0000 0.52540  0.77940  0.57390  Biso   1.000  H
  H2       1.0000 0.43880  0.85490  0.63830  Biso   1.000  H
  H3       1.0000 0.29980  0.88660  0.34750  Biso   1.000  H
  H4       1.0000 0.04270  0.79640  0.40130  Biso   1.000  H
  H5       1.0000 0.60440  0.98600  0.42110  Biso   1.000  H
  H6       1.0000 0.81620  0.98870  0.34070  Biso   1.000  H
  H7       1.0000 0.65320  0.05600  0.15540  Biso   1.000  H
  H8       1.0000 0.42640  0.05350  0.22880  Biso   1.000  H
  H9       1.0000 0.84080  0.68300  0.57590  Biso   1.000  H
  H10      1.0000 0.73820  0.56710  0.57280  Biso   1.000  H
  H11      1.0000 0.56370  0.69050  0.39980  Biso   1.000  H
  H12      1.0000 0.65800  0.80950  0.39850  Biso   1.000  H
  H13      1.0000 0.47460  0.22060  0.42610  Biso   1.000  H
  H14      1.0000 0.56120  0.14510  0.36170  Biso   1.000  H
  H15      1.0000 0.70020  0.11340  0.65250  Biso   1.000  H
  H16      1.0000 0.95730  0.20360  0.59870  Biso   1.000  H
  H17      1.0000 0.39560  0.01400  0.57890  Biso   1.000  H
  H18      1.0000 0.18380  0.01130  0.65930  Biso   1.000  H
  H19      1.0000 0.34680  0.94400  0.84460  Biso   1.000  H
  H20      1.0000 0.57360  0.94650  0.77120  Biso   1.000  H
  H21      1.0000 0.15920  0.31700  0.42410  Biso   1.000  H
  H22      1.0000 0.26180  0.43290  0.42720  Biso   1.000  H
  H23      1.0000 0.43630  0.30950  0.60020  Biso   1.000  H
  H24      1.0000 0.34200  0.19050  0.60150  Biso   1.000  H
  C1       1.0000 0.26050  0.13590  0.47050  Biso   1.000  C
  C2       1.0000 0.58330  0.82520  0.57140  Biso   1.000  C
  C3       1.0000 0.53550  0.86670  0.60630  Biso   1.000  C
  C4       1.0000 0.66280  0.93360  0.58470  Biso   1.000  C
  C5       1.0000 0.65970  0.98920  0.61270  Biso   1.000  C
  C6       1.0000 0.78580  0.04810  0.59720  Biso   1.000  C
  C7       1.0000 0.21640  0.89080  0.37780  Biso   1.000  C
  C8       1.0000 0.07520  0.84160  0.40690  Biso   1.000  C
  C9       1.0000 0.98340  0.87250  0.44860  Biso   1.000  C
  C10      1.0000 0.17010  0.16380  0.51160  Biso   1.000  C
  C11      1.0000 0.48590  0.01670  0.33570  Biso   1.000  C
  C12      1.0000 0.60920  0.99950  0.36740  Biso   1.000  C
  C13      1.0000 0.73720  0.00270  0.31780  Biso   1.000  C
  C14      1.0000 0.64170  0.04150  0.20990  Biso   1.000  C
  C15      1.0000 0.50340  0.03990  0.25360  Biso   1.000  C
  C16      1.0000 0.23890  0.24030  0.51220  Biso   1.000  C
  C17      1.0000 0.21620  0.31410  0.46060  Biso   1.000  C
  C18      1.0000 0.27760  0.38350  0.46280  Biso   1.000  C
  C19      1.0000 0.62030  0.68890  0.43600  Biso   1.000  C
  C20      1.0000 0.67670  0.76120  0.43450  Biso   1.000  C
  C21      1.0000 0.73950  0.86410  0.52950  Biso   1.000  C
  C22      1.0000 0.41670  0.17480  0.42860  Biso   1.000  C
  C23      1.0000 0.46450  0.13330  0.39370  Biso   1.000  C
  C24      1.0000 0.33720  0.06640  0.41530  Biso   1.000  C
  C25      1.0000 0.34030  0.01080  0.38730  Biso   1.000  C
  C26      1.0000 0.21420  0.95190  0.40280  Biso   1.000  C
  C27      1.0000 0.78360  0.10920  0.62220  Biso   1.000  C
  C28      1.0000 0.92480  0.15840  0.59310  Biso   1.000  C
  C29      1.0000 0.01660  0.12750  0.55140  Biso   1.000  C
  C30      1.0000 0.82990  0.83620  0.48840  Biso   1.000  C
  C31      1.0000 0.51410  0.98330  0.66430  Biso   1.000  C
  C32      1.0000 0.39080  0.00050  0.63260  Biso   1.000  C
  C33      1.0000 0.26280  0.99730  0.68220  Biso   1.000  C
  C34      1.0000 0.35830  0.95850  0.79010  Biso   1.000  C
  C35      1.0000 0.49660  0.96010  0.74640  Biso   1.000  C
  C36      1.0000 0.76110  0.75970  0.48780  Biso   1.000  C
  C37      1.0000 0.78380  0.68590  0.53940  Biso   1.000  C
  C38      1.0000 0.72240  0.61650  0.53720  Biso   1.000  C
  C39      1.0000 0.37970  0.31110  0.56400  Biso   1.000  C
  C40      1.0000 0.32330  0.23880  0.56550  Biso   1.000  C
  N1       1.0000 0.21320  0.06830  0.46350  Biso   1.000  N
  N2       1.0000 0.93120  0.05960  0.55500  Biso   1.000  N
  N3       1.0000 0.75610  0.02430  0.24040  Biso   1.000  N
  N4       1.0000 0.35910  0.38190  0.51490  Biso   1.000  N
  N5       1.0000 0.78680  0.93170  0.53650  Biso   1.000  N
  N6       1.0000 0.06880  0.94040  0.44500  Biso   1.000  N
  N7       1.0000 0.24390  0.97570  0.75960  Biso   1.000  N
  N8       1.0000 0.64090  0.61810  0.48510  Biso   1.000  N
  Co2      1.0000 0.50000  0.50000  0.50000  Biso   1.000  Co
  H25      1.0000 0.09930  0.57390  0.64670  Biso   1.000  H
  H26      1.0000 0.07710  0.63830  0.50680  Biso   1.000  H
  H27      1.0000 0.64730  0.34750  0.76590  Biso   1.000  H
  H28      1.0000 0.44400  0.40130  0.80230  Biso   1.000  H
  H29      1.0000 0.02550  0.42110  0.59290  Biso   1.000  H
  H30      1.0000 0.15690  0.34070  0.67060  Biso   1.000  H
  H31      1.0000 0.80860  0.15540  0.78860  Biso   1.000  H
  H32      1.0000 0.65520  0.22880  0.71770  Biso   1.000  H
  H33      1.0000 0.41670  0.57590  0.74110  Biso   1.000  H
  H34      1.0000 0.31100  0.57280  0.86010  Biso   1.000  H
  H35      1.0000 0.96350  0.39980  0.90970  Biso   1.000  H
  H36      1.0000 0.05650  0.39850  0.79200  Biso   1.000  H
  H37      1.0000 0.90070  0.42610  0.35330  Biso   1.000  H
  H38      1.0000 0.92290  0.36170  0.49320  Biso   1.000  H
  H39      1.0000 0.35270  0.65250  0.23410  Biso   1.000  H
  H40      1.0000 0.55600  0.59870  0.19770  Biso   1.000  H
  H41      1.0000 0.97450  0.57890  0.40710  Biso   1.000  H
  H42      1.0000 0.84310  0.65930  0.32940  Biso   1.000  H
  H43      1.0000 0.19140  0.84460  0.21140  Biso   1.000  H
  H44      1.0000 0.34480  0.77120  0.28230  Biso   1.000  H
  H45      1.0000 0.58330  0.42410  0.25890  Biso   1.000  H
  H46      1.0000 0.68900  0.42720  0.13990  Biso   1.000  H
  H47      1.0000 0.03650  0.60020  0.09030  Biso   1.000  H
  H48      1.0000 0.94350  0.60150  0.20800  Biso   1.000  H
  C41      1.0000 0.73100  0.47050  0.39360  Biso   1.000  C
  C42      1.0000 0.15470  0.57140  0.60340  Biso   1.000  C
  C43      1.0000 0.14180  0.60630  0.52700  Biso   1.000  C
  C44      1.0000 0.24750  0.58470  0.48170  Biso   1.000  C
  C45      1.0000 0.27240  0.61270  0.39810  Biso   1.000  C
  C46      1.0000 0.38300  0.59720  0.35470  Biso   1.000  C
  C47      1.0000 0.59420  0.37780  0.73140  Biso   1.000  C
  C48      1.0000 0.48210  0.40690  0.75150  Biso   1.000  C
  C49      1.0000 0.43200  0.44860  0.67890  Biso   1.000  C
  C50      1.0000 0.68170  0.51160  0.32460  Biso   1.000  C
  C51      1.0000 0.82160  0.33570  0.64760  Biso   1.000  C
  C52      1.0000 0.97660  0.36740  0.63310  Biso   1.000  C
  C53      1.0000 0.05500  0.31780  0.67950  Biso   1.000  C
  C54      1.0000 0.85160  0.20990  0.74860  Biso   1.000  C
  C55      1.0000 0.75700  0.25360  0.70650  Biso   1.000  C
  C56      1.0000 0.75110  0.51220  0.24750  Biso   1.000  C
  C57      1.0000 0.67680  0.46060  0.22530  Biso   1.000  C
  C58      1.0000 0.74040  0.46280  0.15370  Biso   1.000  C
  C59      1.0000 0.05630  0.43600  0.87510  Biso   1.000  C
  C60      1.0000 0.11120  0.43450  0.80430  Biso   1.000  C
  C61      1.0000 0.26900  0.52950  0.60640  Biso   1.000  C
  C62      1.0000 0.84530  0.42860  0.39660  Biso   1.000  C
  C63      1.0000 0.85820  0.39370  0.47300  Biso   1.000  C
  C64      1.0000 0.75250  0.41530  0.51830  Biso   1.000  C
  C65      1.0000 0.72760  0.38730  0.60190  Biso   1.000  C
  C66      1.0000 0.61700  0.40280  0.64530  Biso   1.000  C
  C67      1.0000 0.40580  0.62220  0.26860  Biso   1.000  C
  C68      1.0000 0.51790  0.59310  0.24850  Biso   1.000  C
  C69      1.0000 0.56800  0.55140  0.32110  Biso   1.000  C
  C70      1.0000 0.31830  0.48840  0.67540  Biso   1.000  C
  C71      1.0000 0.17840  0.66430  0.35240  Biso   1.000  C
  C72      1.0000 0.02340  0.63260  0.36690  Biso   1.000  C
  C73      1.0000 0.94500  0.68220  0.32050  Biso   1.000  C
  C74      1.0000 0.14840  0.79010  0.25140  Biso   1.000  C
  C75      1.0000 0.24300  0.74640  0.29350  Biso   1.000  C
  C76      1.0000 0.24890  0.48780  0.75250  Biso   1.000  C
  C77      1.0000 0.32320  0.53940  0.77470  Biso   1.000  C
  C78      1.0000 0.25960  0.53720  0.84630  Biso   1.000  C
  C79      1.0000 0.94370  0.56400  0.12490  Biso   1.000  C
  C80      1.0000 0.88880  0.56550  0.19570  Biso   1.000  C
  N9       1.0000 0.67670  0.46350  0.46820  Biso   1.000  N
  N10      1.0000 0.48620  0.55500  0.38540  Biso   1.000  N
  N11      1.0000 0.99650  0.24040  0.73530  Biso   1.000  N
  N12      1.0000 0.87400  0.51490  0.10320  Biso   1.000  N
  N13      1.0000 0.32330  0.53650  0.53180  Biso   1.000  N
  N14      1.0000 0.51380  0.44500  0.61460  Biso   1.000  N
  N15      1.0000 0.00350  0.75960  0.26470  Biso   1.000  N
  N16      1.0000 0.12600  0.48510  0.89680  Biso   1.000  N
  Co3      1.0000 0.00000  0.50000  0.00000  Biso   1.000  Co
  H49      1.0000 0.74600  0.64670  0.77940  Biso   1.000  H
  H50      1.0000 0.58390  0.50680  0.85490  Biso   1.000  H
  H51      1.0000 0.41320  0.76590  0.88660  Biso   1.000  H
  H52      1.0000 0.24630  0.80230  0.79640  Biso   1.000  H
  H53      1.0000 0.61840  0.59290  0.98600  Biso   1.000  H
  H54      1.0000 0.82750  0.67060  0.98870  Biso   1.000  H
  H55      1.0000 0.59720  0.78860  0.05600  Biso   1.000  H
  H56      1.0000 0.37290  0.71770  0.05350  Biso   1.000  H
  H57      1.0000 0.15780  0.74110  0.68300  Biso   1.000  H
  H58      1.0000 0.17110  0.86010  0.56710  Biso   1.000  H
  H59      1.0000 0.87320  0.90970  0.69050  Biso   1.000  H
  H60      1.0000 0.84850  0.79200  0.80950  Biso   1.000  H
  H61      1.0000 0.25400  0.35330  0.22060  Biso   1.000  H
  H62      1.0000 0.41610  0.49320  0.14510  Biso   1.000  H
  H63      1.0000 0.58680  0.23410  0.11340  Biso   1.000  H
  H64      1.0000 0.75370  0.19770  0.20360  Biso   1.000  H
  H65      1.0000 0.38160  0.40710  0.01400  Biso   1.000  H
  H66      1.0000 0.17250  0.32940  0.01130  Biso   1.000  H
  H67      1.0000 0.40280  0.21140  0.94400  Biso   1.000  H
  H68      1.0000 0.62710  0.28230  0.94650  Biso   1.000  H
  H69      1.0000 0.84220  0.25890  0.31700  Biso   1.000  H
  H70      1.0000 0.82890  0.13990  0.43290  Biso   1.000  H
  H71      1.0000 0.12680  0.09030  0.30950  Biso   1.000  H
  H72      1.0000 0.15150  0.20800  0.19050  Biso   1.000  H
  C81      1.0000 0.12460  0.39360  0.13590  Biso   1.000  C
  C82      1.0000 0.75810  0.60340  0.82520  Biso   1.000  C
  C83      1.0000 0.66880  0.52700  0.86670  Biso   1.000  C
  C84      1.0000 0.72920  0.48170  0.93360  Biso   1.000  C
  C85      1.0000 0.67050  0.39810  0.98920  Biso   1.000  C
  C86      1.0000 0.73770  0.35470  0.04810  Biso   1.000  C
  C87      1.0000 0.32560  0.73140  0.89080  Biso   1.000  C
  C88      1.0000 0.23360  0.75150  0.84160  Biso   1.000  C
  C89      1.0000 0.11090  0.67890  0.87250  Biso   1.000  C
  C90      1.0000 0.00630  0.32460  0.16380  Biso   1.000  C
  C91      1.0000 0.46920  0.64760  0.01670  Biso   1.000  C
  C92      1.0000 0.60970  0.63310  0.99950  Biso   1.000  C
  C93      1.0000 0.73450  0.67950  0.00270  Biso   1.000  C
  C94      1.0000 0.60020  0.74860  0.04150  Biso   1.000  C
  C95      1.0000 0.46350  0.70650  0.03990  Biso   1.000  C
  C96      1.0000 0.99860  0.24750  0.24030  Biso   1.000  C
  C97      1.0000 0.90210  0.22530  0.31410  Biso   1.000  C
  C98      1.0000 0.89410  0.15370  0.38350  Biso   1.000  C
  C99      1.0000 0.93140  0.87510  0.68890  Biso   1.000  C
  C100     1.0000 0.91550  0.80430  0.76120  Biso   1.000  C
  C101     1.0000 0.87540  0.60640  0.86410  Biso   1.000  C
  C102     1.0000 0.24190  0.39660  0.17480  Biso   1.000  C
  C103     1.0000 0.33120  0.47300  0.13330  Biso   1.000  C
  C104     1.0000 0.27080  0.51830  0.06640  Biso   1.000  C
  C105     1.0000 0.32950  0.60190  0.01080  Biso   1.000  C
  C106     1.0000 0.26230  0.64530  0.95190  Biso   1.000  C
  C107     1.0000 0.67440  0.26860  0.10920  Biso   1.000  C
  C108     1.0000 0.76640  0.24850  0.15840  Biso   1.000  C
  C109     1.0000 0.88910  0.32110  0.12750  Biso   1.000  C
  C110     1.0000 0.99370  0.67540  0.83620  Biso   1.000  C
  C111     1.0000 0.53080  0.35240  0.98330  Biso   1.000  C
  C112     1.0000 0.39030  0.36690  0.00050  Biso   1.000  C
  C113     1.0000 0.26550  0.32050  0.99730  Biso   1.000  C
  C114     1.0000 0.39980  0.25140  0.95850  Biso   1.000  C
  C115     1.0000 0.53650  0.29350  0.96010  Biso   1.000  C
  C116     1.0000 0.00140  0.75250  0.75970  Biso   1.000  C
  C117     1.0000 0.09790  0.77470  0.68590  Biso   1.000  C
  C118     1.0000 0.10590  0.84630  0.61650  Biso   1.000  C
  C119     1.0000 0.06860  0.12490  0.31110  Biso   1.000  C
  C120     1.0000 0.08450  0.19570  0.23880  Biso   1.000  C
  N17      1.0000 0.14490  0.46820  0.06830  Biso   1.000  N
  N18      1.0000 0.87160  0.38540  0.05960  Biso   1.000  N
  N19      1.0000 0.73180  0.73530  0.02430  Biso   1.000  N
  N20      1.0000 0.97720  0.10320  0.38190  Biso   1.000  N
  N21      1.0000 0.85510  0.53180  0.93170  Biso   1.000  N
  N22      1.0000 0.12840  0.61460  0.94040  Biso   1.000  N
  N23      1.0000 0.26820  0.26470  0.97570  Biso   1.000  N
  N24      1.0000 0.02280  0.89680  0.61810  Biso   1.000  N
