data_image0
_cell_length_a       9.34097
_cell_length_b       19.1699
_cell_length_c       19.1699
_cell_angle_alpha    62.5853
_cell_angle_beta     80.6524
_cell_angle_gamma    99.3476

_symmetry_space_group_name_H-M    P 1
_symmetry_int_tables_number       1

loop_
  _symmetry_equiv_pos_as_xyz
  'x, y, z'

loop_
  _atom_site_label
  _atom_site_occupancy
  _atom_site_fract_x
  _atom_site_fract_y
  _atom_site_fract_z
  _atom_site_thermal_displace_type
  _atom_site_B_iso_or_equiv
  _atom_site_type_symbol
  Mn1      1.0000 0.00000  0.50000  0.00000  Biso   1.000  Mn
  Mn2      1.0000 0.00000  0.00000  0.50000  Biso   1.000  Mn
  Mn3      1.0000 0.50000  0.50000  0.50000  Biso   1.000  Mn
  H1       1.0000 0.74640  0.64720  0.78010  Biso   1.000  H
  H2       1.0000 0.58140  0.50680  0.85720  Biso   1.000  H
  H3       1.0000 0.41340  0.76400  0.88520  Biso   1.000  H
  H4       1.0000 0.24330  0.80400  0.79800  Biso   1.000  H
  H5       1.0000 0.61630  0.59280  0.98460  Biso   1.000  H
  H6       1.0000 0.82420  0.66880  0.98920  Biso   1.000  H
  H7       1.0000 0.59640  0.78620  0.05560  Biso   1.000  H
  H8       1.0000 0.38120  0.71650  0.05400  Biso   1.000  H
  H9       1.0000 0.16150  0.74220  0.68340  Biso   1.000  H
  H10      1.0000 0.83350  0.14180  0.43150  Biso   1.000  H
  H11      1.0000 0.12780  0.09110  0.30970  Biso   1.000  H
  H12      1.0000 0.85020  0.79180  0.80950  Biso   1.000  H
  H13      1.0000 0.52650  0.78010  0.57270  Biso   1.000  H
  H14      1.0000 0.43860  0.85720  0.63600  Biso   1.000  H
  H15      1.0000 0.29860  0.88520  0.35080  Biso   1.000  H
  H16      1.0000 0.04130  0.79800  0.39800  Biso   1.000  H
  H17      1.0000 0.60090  0.98460  0.42260  Biso   1.000  H
  H18      1.0000 0.81340  0.98920  0.34200  Biso   1.000  H
  H19      1.0000 0.65200  0.05560  0.15820  Biso   1.000  H
  H20      1.0000 0.43520  0.05400  0.22950  Biso   1.000  H
  H21      1.0000 0.84490  0.68340  0.57440  Biso   1.000  H
  H22      1.0000 0.26500  0.43150  0.42670  Biso   1.000  H
  H23      1.0000 0.43750  0.30970  0.59920  Biso   1.000  H
  H24      1.0000 0.65970  0.80950  0.39870  Biso   1.000  H
  H25      1.0000 0.09920  0.57270  0.64720  Biso   1.000  H
  H26      1.0000 0.07460  0.63600  0.50680  Biso   1.000  H
  H27      1.0000 0.64940  0.35080  0.76400  Biso   1.000  H
  H28      1.0000 0.43930  0.39800  0.80400  Biso   1.000  H
  H29      1.0000 0.02350  0.42260  0.59280  Biso   1.000  H
  H30      1.0000 0.15540  0.34200  0.66880  Biso   1.000  H
  H31      1.0000 0.81020  0.15820  0.78620  Biso   1.000  H
  H32      1.0000 0.66470  0.22950  0.71650  Biso   1.000  H
  H33      1.0000 0.41930  0.57440  0.74220  Biso   1.000  H
  H34      1.0000 0.69170  0.42670  0.14180  Biso   1.000  H
  H35      1.0000 0.03670  0.59920  0.09110  Biso   1.000  H
  H36      1.0000 0.05840  0.39870  0.79180  Biso   1.000  H
  H37      1.0000 0.25360  0.35280  0.21990  Biso   1.000  H
  H38      1.0000 0.41860  0.49320  0.14280  Biso   1.000  H
  H39      1.0000 0.58660  0.23600  0.11480  Biso   1.000  H
  H40      1.0000 0.75670  0.19600  0.20200  Biso   1.000  H
  H41      1.0000 0.38370  0.40720  0.01540  Biso   1.000  H
  H42      1.0000 0.17580  0.33120  0.01080  Biso   1.000  H
  H43      1.0000 0.40360  0.21380  0.94440  Biso   1.000  H
  H44      1.0000 0.61880  0.28350  0.94600  Biso   1.000  H
  H45      1.0000 0.83850  0.25780  0.31660  Biso   1.000  H
  H46      1.0000 0.16650  0.85820  0.56850  Biso   1.000  H
  H47      1.0000 0.87220  0.90890  0.69030  Biso   1.000  H
  H48      1.0000 0.14980  0.20820  0.19050  Biso   1.000  H
  H49      1.0000 0.47350  0.21990  0.42730  Biso   1.000  H
  H50      1.0000 0.56140  0.14280  0.36400  Biso   1.000  H
  H51      1.0000 0.70140  0.11480  0.64920  Biso   1.000  H
  H52      1.0000 0.95870  0.20200  0.60200  Biso   1.000  H
  H53      1.0000 0.39910  0.01540  0.57740  Biso   1.000  H
  H54      1.0000 0.18660  0.01080  0.65800  Biso   1.000  H
  H55      1.0000 0.34800  0.94440  0.84180  Biso   1.000  H
  H56      1.0000 0.56480  0.94600  0.77050  Biso   1.000  H
  H57      1.0000 0.15510  0.31660  0.42560  Biso   1.000  H
  H58      1.0000 0.73500  0.56850  0.57330  Biso   1.000  H
  H59      1.0000 0.56250  0.69030  0.40080  Biso   1.000  H
  H60      1.0000 0.34030  0.19050  0.60130  Biso   1.000  H
  H61      1.0000 0.90080  0.42730  0.35280  Biso   1.000  H
  H62      1.0000 0.92540  0.36400  0.49320  Biso   1.000  H
  H63      1.0000 0.35060  0.64920  0.23600  Biso   1.000  H
  H64      1.0000 0.56070  0.60200  0.19600  Biso   1.000  H
  H65      1.0000 0.97650  0.57740  0.40720  Biso   1.000  H
  H66      1.0000 0.84460  0.65800  0.33120  Biso   1.000  H
  H67      1.0000 0.18980  0.84180  0.21380  Biso   1.000  H
  H68      1.0000 0.33530  0.77050  0.28350  Biso   1.000  H
  H69      1.0000 0.58070  0.42560  0.25780  Biso   1.000  H
  H70      1.0000 0.30830  0.57330  0.85820  Biso   1.000  H
  H71      1.0000 0.96330  0.40080  0.90890  Biso   1.000  H
  H72      1.0000 0.94160  0.60130  0.20820  Biso   1.000  H
  C1       1.0000 0.12540  0.39330  0.13550  Biso   1.000  C
  C2       1.0000 0.75830  0.60400  0.82600  Biso   1.000  C
  C3       1.0000 0.66740  0.52680  0.86820  Biso   1.000  C
  C4       1.0000 0.73000  0.48210  0.93300  Biso   1.000  C
  C5       1.0000 0.67250  0.39930  0.98850  Biso   1.000  C
  C6       1.0000 0.73920  0.35490  0.04820  Biso   1.000  C
  C7       1.0000 0.32400  0.73040  0.89030  Biso   1.000  C
  C8       1.0000 0.23190  0.75250  0.84190  Biso   1.000  C
  C9       1.0000 0.11070  0.67930  0.87250  Biso   1.000  C
  C10      1.0000 0.00530  0.32410  0.16320  Biso   1.000  C
  C11      1.0000 0.47040  0.64610  0.01720  Biso   1.000  C
  C12      1.0000 0.60780  0.63240  0.99900  Biso   1.000  C
  C13      1.0000 0.73210  0.67850  0.00220  Biso   1.000  C
  C14      1.0000 0.60020  0.74650  0.04080  Biso   1.000  C
  C15      1.0000 0.47100  0.70520  0.03970  Biso   1.000  C
  C16      1.0000 0.99710  0.24770  0.23950  Biso   1.000  C
  C17      1.0000 0.90060  0.22560  0.31310  Biso   1.000  C
  C18      1.0000 0.89670  0.15490  0.38190  Biso   1.000  C
  C19      1.0000 0.06880  0.12530  0.31150  Biso   1.000  C
  C20      1.0000 0.91680  0.80390  0.76130  Biso   1.000  C
  C21      1.0000 0.26090  0.13550  0.47120  Biso   1.000  C
  C22      1.0000 0.58430  0.82600  0.57000  Biso   1.000  C
  C23      1.0000 0.53560  0.86820  0.60500  Biso   1.000  C
  C24      1.0000 0.66300  0.93300  0.58490  Biso   1.000  C
  C25      1.0000 0.66100  0.98850  0.61220  Biso   1.000  C
  C26      1.0000 0.78740  0.04820  0.59690  Biso   1.000  C
  C27      1.0000 0.21430  0.89030  0.37930  Biso   1.000  C
  C28      1.0000 0.07380  0.84190  0.40560  Biso   1.000  C
  C29      1.0000 0.98320  0.87250  0.44820  Biso   1.000  C
  C30      1.0000 0.16850  0.16320  0.51270  Biso   1.000  C
  C31      1.0000 0.48760  0.01720  0.33670  Biso   1.000  C
  C32      1.0000 0.60680  0.99900  0.36860  Biso   1.000  C
  C33      1.0000 0.73430  0.00220  0.31930  Biso   1.000  C
  C34      1.0000 0.64100  0.04080  0.21270  Biso   1.000  C
  C35      1.0000 0.51070  0.03970  0.25510  Biso   1.000  C
  C36      1.0000 0.23660  0.23950  0.51280  Biso   1.000  C
  C37      1.0000 0.21370  0.31310  0.46130  Biso   1.000  C
  C38      1.0000 0.27860  0.38190  0.46320  Biso   1.000  C
  C39      1.0000 0.38030  0.31150  0.56320  Biso   1.000  C
  C40      1.0000 0.67810  0.76130  0.43480  Biso   1.000  C
  C41      1.0000 0.73210  0.47120  0.39330  Biso   1.000  C
  C42      1.0000 0.15430  0.57000  0.60400  Biso   1.000  C
  C43      1.0000 0.14060  0.60500  0.52680  Biso   1.000  C
  C44      1.0000 0.24790  0.58490  0.48210  Biso   1.000  C
  C45      1.0000 0.27320  0.61220  0.39930  Biso   1.000  C
  C46      1.0000 0.38430  0.59690  0.35490  Biso   1.000  C
  C47      1.0000 0.59360  0.37930  0.73040  Biso   1.000  C
  C48      1.0000 0.47940  0.40560  0.75250  Biso   1.000  C
  C49      1.0000 0.43140  0.44820  0.67930  Biso   1.000  C
  C50      1.0000 0.68120  0.51270  0.32410  Biso   1.000  C
  C51      1.0000 0.82430  0.33670  0.64610  Biso   1.000  C
  C52      1.0000 0.97540  0.36860  0.63240  Biso   1.000  C
  C53      1.0000 0.05360  0.31930  0.67850  Biso   1.000  C
  C54      1.0000 0.85370  0.21270  0.74650  Biso   1.000  C
  C55      1.0000 0.76580  0.25510  0.70520  Biso   1.000  C
  C56      1.0000 0.74940  0.51280  0.24770  Biso   1.000  C
  C57      1.0000 0.67500  0.46130  0.22560  Biso   1.000  C
  C58      1.0000 0.74180  0.46320  0.15490  Biso   1.000  C
  C59      1.0000 0.94350  0.56320  0.12530  Biso   1.000  C
  C60      1.0000 0.11290  0.43480  0.80390  Biso   1.000  C
  C61      1.0000 0.87460  0.60670  0.86450  Biso   1.000  C
  C62      1.0000 0.24170  0.39600  0.17400  Biso   1.000  C
  C63      1.0000 0.33260  0.47320  0.13180  Biso   1.000  C
  C64      1.0000 0.27000  0.51790  0.06700  Biso   1.000  C
  C65      1.0000 0.32750  0.60070  0.01150  Biso   1.000  C
  C66      1.0000 0.26080  0.64510  0.95180  Biso   1.000  C
  C67      1.0000 0.67600  0.26960  0.10970  Biso   1.000  C
  C68      1.0000 0.76810  0.24750  0.15810  Biso   1.000  C
  C69      1.0000 0.88930  0.32070  0.12750  Biso   1.000  C
  C70      1.0000 0.99470  0.67590  0.83680  Biso   1.000  C
  C71      1.0000 0.52960  0.35390  0.98280  Biso   1.000  C
  C72      1.0000 0.39220  0.36760  0.00100  Biso   1.000  C
  C73      1.0000 0.26790  0.32150  0.99780  Biso   1.000  C
  C74      1.0000 0.39980  0.25350  0.95920  Biso   1.000  C
  C75      1.0000 0.52900  0.29480  0.96030  Biso   1.000  C
  C76      1.0000 0.00290  0.75230  0.76050  Biso   1.000  C
  C77      1.0000 0.09940  0.77440  0.68690  Biso   1.000  C
  C78      1.0000 0.10330  0.84510  0.61810  Biso   1.000  C
  C79      1.0000 0.93120  0.87470  0.68850  Biso   1.000  C
  C80      1.0000 0.08320  0.19610  0.23870  Biso   1.000  C
  C81      1.0000 0.73910  0.86450  0.52880  Biso   1.000  C
  C82      1.0000 0.41570  0.17400  0.43000  Biso   1.000  C
  C83      1.0000 0.46440  0.13180  0.39500  Biso   1.000  C
  C84      1.0000 0.33700  0.06700  0.41510  Biso   1.000  C
  C85      1.0000 0.33900  0.01150  0.38780  Biso   1.000  C
  C86      1.0000 0.21260  0.95180  0.40310  Biso   1.000  C
  C87      1.0000 0.78570  0.10970  0.62070  Biso   1.000  C
  C88      1.0000 0.92620  0.15810  0.59440  Biso   1.000  C
  C89      1.0000 0.01680  0.12750  0.55180  Biso   1.000  C
  C90      1.0000 0.83150  0.83680  0.48730  Biso   1.000  C
  C91      1.0000 0.51240  0.98280  0.66330  Biso   1.000  C
  C92      1.0000 0.39320  0.00100  0.63140  Biso   1.000  C
  C93      1.0000 0.26570  0.99780  0.68070  Biso   1.000  C
  C94      1.0000 0.35900  0.95920  0.78730  Biso   1.000  C
  C95      1.0000 0.48930  0.96030  0.74490  Biso   1.000  C
  C96      1.0000 0.76340  0.76050  0.48720  Biso   1.000  C
  C97      1.0000 0.78630  0.68690  0.53870  Biso   1.000  C
  C98      1.0000 0.72140  0.61810  0.53680  Biso   1.000  C
  C99      1.0000 0.61970  0.68850  0.43680  Biso   1.000  C
  C100     1.0000 0.32190  0.23870  0.56520  Biso   1.000  C
  C101     1.0000 0.26790  0.52880  0.60670  Biso   1.000  C
  C102     1.0000 0.84570  0.43000  0.39600  Biso   1.000  C
  C103     1.0000 0.85940  0.39500  0.47320  Biso   1.000  C
  C104     1.0000 0.75210  0.41510  0.51790  Biso   1.000  C
  C105     1.0000 0.72680  0.38780  0.60070  Biso   1.000  C
  C106     1.0000 0.61570  0.40310  0.64510  Biso   1.000  C
  C107     1.0000 0.40640  0.62070  0.26960  Biso   1.000  C
  C108     1.0000 0.52060  0.59440  0.24750  Biso   1.000  C
  C109     1.0000 0.56860  0.55180  0.32070  Biso   1.000  C
  C110     1.0000 0.31880  0.48730  0.67590  Biso   1.000  C
  C111     1.0000 0.17570  0.66330  0.35390  Biso   1.000  C
  C112     1.0000 0.02460  0.63140  0.36760  Biso   1.000  C
  C113     1.0000 0.94640  0.68070  0.32150  Biso   1.000  C
  C114     1.0000 0.14630  0.78730  0.25350  Biso   1.000  C
  C115     1.0000 0.23420  0.74490  0.29480  Biso   1.000  C
  C116     1.0000 0.25060  0.48720  0.75230  Biso   1.000  C
  C117     1.0000 0.32500  0.53870  0.77440  Biso   1.000  C
  C118     1.0000 0.25820  0.53680  0.84510  Biso   1.000  C
  C119     1.0000 0.05650  0.43680  0.87470  Biso   1.000  C
  C120     1.0000 0.88710  0.56520  0.19610  Biso   1.000  C
  N1       1.0000 0.14467  0.46894  0.06813  Biso   1.000  N
  N2       1.0000 0.87107  0.38614  0.05883  Biso   1.000  N
  N3       1.0000 0.73190  0.73400  0.02230  Biso   1.000  N
  N4       1.0000 0.97920  0.10360  0.38130  Biso   1.000  N
  N5       1.0000 0.21280  0.06813  0.46293  Biso   1.000  N
  N6       1.0000 0.92990  0.05883  0.55503  Biso   1.000  N
  N7       1.0000 0.75420  0.02230  0.24370  Biso   1.000  N
  N8       1.0000 0.36050  0.38130  0.51510  Biso   1.000  N
  N9       1.0000 0.67573  0.46293  0.46894  Biso   1.000  N
  N10      1.0000 0.48493  0.55503  0.38614  Biso   1.000  N
  N11      1.0000 0.99790  0.24370  0.73400  Biso   1.000  N
  N12      1.0000 0.87560  0.51510  0.10360  Biso   1.000  N
  N13      1.0000 0.85533  0.53106  0.93187  Biso   1.000  N
  N14      1.0000 0.12893  0.61386  0.94117  Biso   1.000  N
  N15      1.0000 0.26810  0.26600  0.97770  Biso   1.000  N
  N16      1.0000 0.02080  0.89640  0.61870  Biso   1.000  N
  N17      1.0000 0.78720  0.93187  0.53707  Biso   1.000  N
  N18      1.0000 0.07010  0.94117  0.44497  Biso   1.000  N
  N19      1.0000 0.24580  0.97770  0.75630  Biso   1.000  N
  N20      1.0000 0.63950  0.61870  0.48490  Biso   1.000  N
  N21      1.0000 0.32427  0.53707  0.53106  Biso   1.000  N
  N22      1.0000 0.51507  0.44497  0.61386  Biso   1.000  N
  N23      1.0000 0.00210  0.75630  0.26600  Biso   1.000  N
  N24      1.0000 0.12440  0.48490  0.89640  Biso   1.000  N
