data_image0
_cell_length_a       9.33069
_cell_length_b       19.4814
_cell_length_c       19.4814
_cell_angle_alpha    62.4988
_cell_angle_beta     80.8133
_cell_angle_gamma    99.1867

_symmetry_space_group_name_H-M    P 1
_symmetry_int_tables_number       1

loop_
  _symmetry_equiv_pos_as_xyz
  'x, y, z'

loop_
  _atom_site_label
  _atom_site_occupancy
  _atom_site_fract_x
  _atom_site_fract_y
  _atom_site_fract_z
  _atom_site_thermal_displace_type
  _atom_site_B_iso_or_equiv
  _atom_site_type_symbol
  Mn1      1.0000 0.00000  0.00000  0.50000  Biso   1.000  Mn
  H1       1.0000 0.52430  0.77680  0.57940  Biso   1.000  H
  H2       1.0000 0.43590  0.85230  0.64170  Biso   1.000  H
  H3       1.0000 0.30350  0.88330  0.35320  Biso   1.000  H
  H4       1.0000 0.04410  0.79700  0.40310  Biso   1.000  H
  H5       1.0000 0.60920  0.99110  0.41930  Biso   1.000  H
  H6       1.0000 0.82260  0.99620  0.34070  Biso   1.000  H
  H7       1.0000 0.65180  0.05110  0.16190  Biso   1.000  H
  H8       1.0000 0.42540  0.04530  0.23500  Biso   1.000  H
  H9       1.0000 0.83730  0.68770  0.57640  Biso   1.000  H
  H10      1.0000 0.73450  0.57390  0.57450  Biso   1.000  H
  H11      1.0000 0.55820  0.69360  0.40380  Biso   1.000  H
  H12      1.0000 0.65480  0.81100  0.40060  Biso   1.000  H
  H13      1.0000 0.47570  0.22320  0.42060  Biso   1.000  H
  H14      1.0000 0.56410  0.14770  0.35830  Biso   1.000  H
  H15      1.0000 0.69650  0.11670  0.64680  Biso   1.000  H
  H16      1.0000 0.95590  0.20300  0.59690  Biso   1.000  H
  H17      1.0000 0.39080  0.00890  0.58070  Biso   1.000  H
  H18      1.0000 0.17740  0.00380  0.65930  Biso   1.000  H
  H19      1.0000 0.34820  0.94890  0.83810  Biso   1.000  H
  H20      1.0000 0.57460  0.95470  0.76500  Biso   1.000  H
  H21      1.0000 0.16270  0.31230  0.42360  Biso   1.000  H
  H22      1.0000 0.26550  0.42610  0.42550  Biso   1.000  H
  H23      1.0000 0.44180  0.30640  0.59620  Biso   1.000  H
  H24      1.0000 0.34520  0.18900  0.59940  Biso   1.000  H
  C1       1.0000 0.26645  0.13483  0.47168  Biso   1.000  C
  C2       1.0000 0.58020  0.82380  0.57420  Biso   1.000  C
  C3       1.0000 0.53130  0.86520  0.60870  Biso   1.000  C
  C4       1.0000 0.65554  0.93349  0.58447  Biso   1.000  C
  C5       1.0000 0.65698  0.98975  0.61151  Biso   1.000  C
  C6       1.0000 0.78323  0.04939  0.59780  Biso   1.000  C
  C7       1.0000 0.21960  0.88920  0.38070  Biso   1.000  C
  C8       1.0000 0.07640  0.84150  0.40830  Biso   1.000  C
  C9       1.0000 0.98398  0.87298  0.44704  Biso   1.000  C
  C10      1.0000 0.17117  0.16070  0.51309  Biso   1.000  C
  C11      1.0000 0.48923  0.01658  0.33759  Biso   1.000  C
  C12      1.0000 0.61310  0.00290  0.36690  Biso   1.000  C
  C13      1.0000 0.74170  0.00680  0.31890  Biso   1.000  C
  C14      1.0000 0.64200  0.03830  0.21510  Biso   1.000  C
  C15      1.0000 0.50460  0.03520  0.25850  Biso   1.000  C
  C16      1.0000 0.24032  0.23620  0.51194  Biso   1.000  C
  C17      1.0000 0.21900  0.30930  0.45970  Biso   1.000  C
  C18      1.0000 0.28150  0.37790  0.46110  Biso   1.000  C
  C19      1.0000 0.61560  0.69250  0.43900  Biso   1.000  C
  C20      1.0000 0.67360  0.76380  0.43650  Biso   1.000  C
  C21      1.0000 0.73355  0.86517  0.52832  Biso   1.000  C
  C22      1.0000 0.41980  0.17620  0.42580  Biso   1.000  C
  C23      1.0000 0.46870  0.13480  0.39130  Biso   1.000  C
  C24      1.0000 0.34446  0.06651  0.41553  Biso   1.000  C
  C25      1.0000 0.34302  0.01025  0.38849  Biso   1.000  C
  C26      1.0000 0.21677  0.95061  0.40220  Biso   1.000  C
  C27      1.0000 0.78040  0.11080  0.61930  Biso   1.000  C
  C28      1.0000 0.92360  0.15850  0.59170  Biso   1.000  C
  C29      1.0000 0.01602  0.12702  0.55296  Biso   1.000  C
  C30      1.0000 0.82883  0.83930  0.48691  Biso   1.000  C
  C31      1.0000 0.51077  0.98342  0.66241  Biso   1.000  C
  C32      1.0000 0.38690  0.99710  0.63310  Biso   1.000  C
  C33      1.0000 0.25830  0.99320  0.68110  Biso   1.000  C
  C34      1.0000 0.35800  0.96170  0.78490  Biso   1.000  C
  C35      1.0000 0.49540  0.96480  0.74150  Biso   1.000  C
  C36      1.0000 0.75968  0.76380  0.48806  Biso   1.000  C
  C37      1.0000 0.78100  0.69070  0.54030  Biso   1.000  C
  C38      1.0000 0.71850  0.62210  0.53890  Biso   1.000  C
  C39      1.0000 0.38440  0.30750  0.56100  Biso   1.000  C
  C40      1.0000 0.32640  0.23620  0.56350  Biso   1.000  C
  N1       1.0000 0.22436  0.06720  0.46552  Biso   1.000  N
  N2       1.0000 0.92760  0.05994  0.55894  Biso   1.000  N
  N3       1.0000 0.75830  0.02450  0.24390  Biso   1.000  N
  N4       1.0000 0.36327  0.37752  0.51151  Biso   1.000  N
  N5       1.0000 0.77564  0.93280  0.53448  Biso   1.000  N
  N6       1.0000 0.07240  0.94006  0.44106  Biso   1.000  N
  N7       1.0000 0.24170  0.97550  0.75610  Biso   1.000  N
  N8       1.0000 0.63673  0.62248  0.48849  Biso   1.000  N
  Mn2      1.0000 0.50000  0.50000  0.50000  Biso   1.000  Mn
  H25      1.0000 0.10370  0.57940  0.64380  Biso   1.000  H
  H26      1.0000 0.07760  0.64170  0.50600  Biso   1.000  H
  H27      1.0000 0.65670  0.35320  0.76350  Biso   1.000  H
  H28      1.0000 0.44720  0.40310  0.79990  Biso   1.000  H
  H29      1.0000 0.02850  0.41930  0.58960  Biso   1.000  H
  H30      1.0000 0.16330  0.34070  0.66310  Biso   1.000  H
  H31      1.0000 0.81370  0.16190  0.78700  Biso   1.000  H
  H32      1.0000 0.66040  0.23500  0.71970  Biso   1.000  H
  H33      1.0000 0.41370  0.57640  0.73590  Biso   1.000  H
  H34      1.0000 0.30900  0.57450  0.85160  Biso   1.000  H
  H35      1.0000 0.96200  0.40380  0.90260  Biso   1.000  H
  H36      1.0000 0.05540  0.40060  0.78840  Biso   1.000  H
  H37      1.0000 0.89630  0.42060  0.35620  Biso   1.000  H
  H38      1.0000 0.92240  0.35830  0.49400  Biso   1.000  H
  H39      1.0000 0.34330  0.64680  0.23650  Biso   1.000  H
  H40      1.0000 0.55280  0.59690  0.20010  Biso   1.000  H
  H41      1.0000 0.97150  0.58070  0.41040  Biso   1.000  H
  H42      1.0000 0.83670  0.65930  0.33690  Biso   1.000  H
  H43      1.0000 0.18630  0.83810  0.21300  Biso   1.000  H
  H44      1.0000 0.33960  0.76500  0.28030  Biso   1.000  H
  H45      1.0000 0.58630  0.42360  0.26410  Biso   1.000  H
  H46      1.0000 0.69100  0.42550  0.14840  Biso   1.000  H
  H47      1.0000 0.03800  0.59620  0.09740  Biso   1.000  H
  H48      1.0000 0.94460  0.59940  0.21160  Biso   1.000  H
  C41      1.0000 0.73813  0.47168  0.39349  Biso   1.000  C
  C42      1.0000 0.15440  0.57420  0.60200  Biso   1.000  C
  C43      1.0000 0.14000  0.60870  0.52610  Biso   1.000  C
  C44      1.0000 0.24001  0.58447  0.48204  Biso   1.000  C
  C45      1.0000 0.26849  0.61151  0.39874  Biso   1.000  C
  C46      1.0000 0.38103  0.59780  0.35281  Biso   1.000  C
  C47      1.0000 0.60030  0.38070  0.73010  Biso   1.000  C
  C48      1.0000 0.48470  0.40830  0.75020  Biso   1.000  C
  C49      1.0000 0.43102  0.44704  0.67998  Biso   1.000  C
  C50      1.0000 0.68426  0.51309  0.32621  Biso   1.000  C
  C51      1.0000 0.82682  0.33759  0.64583  Biso   1.000  C
  C52      1.0000 0.98000  0.36690  0.63020  Biso   1.000  C
  C53      1.0000 0.06060  0.31890  0.67430  Biso   1.000  C
  C54      1.0000 0.85710  0.21510  0.74660  Biso   1.000  C
  C55      1.0000 0.76310  0.25850  0.70630  Biso   1.000  C
  C56      1.0000 0.75226  0.51194  0.25186  Biso   1.000  C
  C57      1.0000 0.67870  0.45970  0.23100  Biso   1.000  C
  C58      1.0000 0.74260  0.46110  0.16100  Biso   1.000  C
  C59      1.0000 0.05460  0.43900  0.86850  Biso   1.000  C
  C60      1.0000 0.11010  0.43650  0.79970  Biso   1.000  C
  C61      1.0000 0.26187  0.52832  0.60651  Biso   1.000  C
  C62      1.0000 0.84560  0.42580  0.39800  Biso   1.000  C
  C63      1.0000 0.86000  0.39130  0.47390  Biso   1.000  C
  C64      1.0000 0.75999  0.41553  0.51796  Biso   1.000  C
  C65      1.0000 0.73151  0.38849  0.60126  Biso   1.000  C
  C66      1.0000 0.61897  0.40220  0.64719  Biso   1.000  C
  C67      1.0000 0.39970  0.61930  0.26990  Biso   1.000  C
  C68      1.0000 0.51530  0.59170  0.24980  Biso   1.000  C
  C69      1.0000 0.56898  0.55296  0.32002  Biso   1.000  C
  C70      1.0000 0.31574  0.48691  0.67379  Biso   1.000  C
  C71      1.0000 0.17318  0.66241  0.35417  Biso   1.000  C
  C72      1.0000 0.02000  0.63310  0.36980  Biso   1.000  C
  C73      1.0000 0.93940  0.68110  0.32570  Biso   1.000  C
  C74      1.0000 0.14290  0.78490  0.25340  Biso   1.000  C
  C75      1.0000 0.23690  0.74150  0.29370  Biso   1.000  C
  C76      1.0000 0.24774  0.48806  0.74814  Biso   1.000  C
  C77      1.0000 0.32130  0.54030  0.76900  Biso   1.000  C
  C78      1.0000 0.25740  0.53890  0.83900  Biso   1.000  C
  C79      1.0000 0.94540  0.56100  0.13150  Biso   1.000  C
  C80      1.0000 0.88990  0.56350  0.20030  Biso   1.000  C
  N9       1.0000 0.68988  0.46552  0.46728  Biso   1.000  N
  N10      1.0000 0.48654  0.55894  0.38112  Biso   1.000  N
  N11      1.0000 0.00220  0.24390  0.73160  Biso   1.000  N
  N12      1.0000 0.87478  0.51151  0.11097  Biso   1.000  N
  N13      1.0000 0.31012  0.53448  0.53272  Biso   1.000  N
  N14      1.0000 0.51346  0.44106  0.61888  Biso   1.000  N
  N15      1.0000 0.99780  0.75610  0.26840  Biso   1.000  N
  N16      1.0000 0.12522  0.48849  0.88903  Biso   1.000  N
  Mn3      1.0000 0.00000  0.50000  0.00000  Biso   1.000  Mn
  H49      1.0000 0.74750  0.64380  0.77680  Biso   1.000  H
  H50      1.0000 0.58360  0.50600  0.85230  Biso   1.000  H
  H51      1.0000 0.42020  0.76350  0.88330  Biso   1.000  H
  H52      1.0000 0.24710  0.79990  0.79700  Biso   1.000  H
  H53      1.0000 0.61810  0.58960  0.99110  Biso   1.000  H
  H54      1.0000 0.82640  0.66310  0.99620  Biso   1.000  H
  H55      1.0000 0.60070  0.78700  0.05110  Biso   1.000  H
  H56      1.0000 0.38010  0.71970  0.04530  Biso   1.000  H
  H57      1.0000 0.14960  0.73590  0.68770  Biso   1.000  H
  H58      1.0000 0.16060  0.85160  0.57390  Biso   1.000  H
  H59      1.0000 0.86460  0.90260  0.69360  Biso   1.000  H
  H60      1.0000 0.84380  0.78840  0.81100  Biso   1.000  H
  H61      1.0000 0.25250  0.35620  0.22320  Biso   1.000  H
  H62      1.0000 0.41640  0.49400  0.14770  Biso   1.000  H
  H63      1.0000 0.57980  0.23650  0.11670  Biso   1.000  H
  H64      1.0000 0.75290  0.20010  0.20300  Biso   1.000  H
  H65      1.0000 0.38190  0.41040  0.00890  Biso   1.000  H
  H66      1.0000 0.17360  0.33690  0.00380  Biso   1.000  H
  H67      1.0000 0.39930  0.21300  0.94890  Biso   1.000  H
  H68      1.0000 0.61990  0.28030  0.95470  Biso   1.000  H
  H69      1.0000 0.85040  0.26410  0.31230  Biso   1.000  H
  H70      1.0000 0.83940  0.14840  0.42610  Biso   1.000  H
  H71      1.0000 0.13540  0.09740  0.30640  Biso   1.000  H
  H72      1.0000 0.15620  0.21160  0.18900  Biso   1.000  H
  C81      1.0000 0.13162  0.39349  0.13483  Biso   1.000  C
  C82      1.0000 0.75640  0.60200  0.82380  Biso   1.000  C
  C83      1.0000 0.66610  0.52610  0.86520  Biso   1.000  C
  C84      1.0000 0.72205  0.48204  0.93349  Biso   1.000  C
  C85      1.0000 0.66723  0.39874  0.98975  Biso   1.000  C
  C86      1.0000 0.73384  0.35281  0.04939  Biso   1.000  C
  C87      1.0000 0.33040  0.73010  0.88920  Biso   1.000  C
  C88      1.0000 0.23490  0.75020  0.84150  Biso   1.000  C
  C89      1.0000 0.11100  0.67998  0.87298  Biso   1.000  C
  C90      1.0000 0.01047  0.32621  0.16070  Biso   1.000  C
  C91      1.0000 0.47265  0.64583  0.01658  Biso   1.000  C
  C92      1.0000 0.61020  0.63020  0.00290  Biso   1.000  C
  C93      1.0000 0.73490  0.67430  0.00680  Biso   1.000  C
  C94      1.0000 0.60370  0.74660  0.03830  Biso   1.000  C
  C95      1.0000 0.46940  0.70630  0.03520  Biso   1.000  C
  C96      1.0000 0.00412  0.25186  0.23620  Biso   1.000  C
  C97      1.0000 0.90970  0.23100  0.30930  Biso   1.000  C
  C98      1.0000 0.90360  0.16100  0.37790  Biso   1.000  C
  C99      1.0000 0.92310  0.86850  0.69250  Biso   1.000  C
  C100     1.0000 0.90980  0.79970  0.76380  Biso   1.000  C
  C101     1.0000 0.86838  0.60651  0.86517  Biso   1.000  C
  C102     1.0000 0.24360  0.39800  0.17620  Biso   1.000  C
  C103     1.0000 0.33390  0.47390  0.13480  Biso   1.000  C
  C104     1.0000 0.27795  0.51796  0.06651  Biso   1.000  C
  C105     1.0000 0.33277  0.60126  0.01025  Biso   1.000  C
  C106     1.0000 0.26616  0.64719  0.95061  Biso   1.000  C
  C107     1.0000 0.66960  0.26990  0.11080  Biso   1.000  C
  C108     1.0000 0.76510  0.24980  0.15850  Biso   1.000  C
  C109     1.0000 0.88900  0.32002  0.12702  Biso   1.000  C
  C110     1.0000 0.98953  0.67379  0.83930  Biso   1.000  C
  C111     1.0000 0.52735  0.35417  0.98342  Biso   1.000  C
  C112     1.0000 0.38980  0.36980  0.99710  Biso   1.000  C
  C113     1.0000 0.26510  0.32570  0.99320  Biso   1.000  C
  C114     1.0000 0.39630  0.25340  0.96170  Biso   1.000  C
  C115     1.0000 0.53060  0.29370  0.96480  Biso   1.000  C
  C116     1.0000 0.99588  0.74814  0.76380  Biso   1.000  C
  C117     1.0000 0.09030  0.76900  0.69070  Biso   1.000  C
  C118     1.0000 0.09640  0.83900  0.62210  Biso   1.000  C
  C119     1.0000 0.07690  0.13150  0.30750  Biso   1.000  C
  C120     1.0000 0.09020  0.20030  0.23620  Biso   1.000  C
  N17      1.0000 0.15716  0.46728  0.06720  Biso   1.000  N
  N18      1.0000 0.86766  0.38112  0.05994  Biso   1.000  N
  N19      1.0000 0.73380  0.73160  0.02450  Biso   1.000  N
  N20      1.0000 0.98575  0.11097  0.37752  Biso   1.000  N
  N21      1.0000 0.84284  0.53272  0.93280  Biso   1.000  N
  N22      1.0000 0.13234  0.61888  0.94006  Biso   1.000  N
  N23      1.0000 0.26620  0.26840  0.97550  Biso   1.000  N
  N24      1.0000 0.01425  0.88903  0.62248  Biso   1.000  N
