data_image0
_cell_length_a       10.3547
_cell_length_b       10.5172
_cell_length_c       12.39
_cell_angle_alpha    70.646
_cell_angle_beta     89.451
_cell_angle_gamma    63.849

_symmetry_space_group_name_H-M    P 1
_symmetry_int_tables_number       1

loop_
  _symmetry_equiv_pos_as_xyz
  'x, y, z'

loop_
  _atom_site_label
  _atom_site_occupancy
  _atom_site_fract_x
  _atom_site_fract_y
  _atom_site_fract_z
  _atom_site_thermal_displace_type
  _atom_site_B_iso_or_equiv
  _atom_site_type_symbol
  Co1      1.0000 0.00000  0.00000  0.00000  Biso   1.000  Co
  Co2      1.0000 0.00000  0.50000  0.00000  Biso   1.000  Co
  H1       1.0000 0.89330  0.73160  0.06190  Biso   1.000  H
  H2       1.0000 0.80680  0.67070  0.11710  Biso   1.000  H
  H3       1.0000 0.38670  0.46290  0.77520  Biso   1.000  H
  H4       1.0000 0.71730  0.45210  0.01930  Biso   1.000  H
  H5       1.0000 0.84150  0.65980  0.75180  Biso   1.000  H
  H6       1.0000 0.66580  0.67870  0.62940  Biso   1.000  H
  H7       1.0000 0.53840  0.46350  0.90430  Biso   1.000  H
  H8       1.0000 0.40110  0.77950  0.33400  Biso   1.000  H
  H9       1.0000 0.28480  0.89370  0.14760  Biso   1.000  H
  H10      1.0000 0.98920  0.76160  0.23380  Biso   1.000  H
  H11      1.0000 0.09560  0.64790  0.42500  Biso   1.000  H
  H12      1.0000 0.68910  0.01240  0.32130  Biso   1.000  H
  H13      1.0000 0.81370  0.94570  0.49840  Biso   1.000  H
  H14      1.0000 0.06110  0.13000  0.34410  Biso   1.000  H
  H15      1.0000 0.10670  0.26840  0.93810  Biso   1.000  H
  H16      1.0000 0.19320  0.32930  0.88290  Biso   1.000  H
  H17      1.0000 0.61330  0.53710  0.22480  Biso   1.000  H
  H18      1.0000 0.28270  0.54790  0.98070  Biso   1.000  H
  H19      1.0000 0.15850  0.34020  0.24820  Biso   1.000  H
  H20      1.0000 0.33420  0.32130  0.37060  Biso   1.000  H
  H21      1.0000 0.46160  0.53650  0.09570  Biso   1.000  H
  H22      1.0000 0.59890  0.22050  0.66600  Biso   1.000  H
  H23      1.0000 0.71520  0.10630  0.85240  Biso   1.000  H
  H24      1.0000 0.01080  0.23840  0.76620  Biso   1.000  H
  H25      1.0000 0.90440  0.35210  0.57500  Biso   1.000  H
  H26      1.0000 0.31090  0.98760  0.67870  Biso   1.000  H
  H27      1.0000 0.18630  0.05430  0.50160  Biso   1.000  H
  H28      1.0000 0.93890  0.87000  0.65590  Biso   1.000  H
  C1       1.0000 0.70860  0.49600  0.93930  Biso   1.000  C
  C2       1.0000 0.78120  0.61750  0.78320  Biso   1.000  C
  C3       1.0000 0.67430  0.63110  0.70890  Biso   1.000  C
  C4       1.0000 0.58040  0.57450  0.75170  Biso   1.000  C
  C5       1.0000 0.59910  0.50430  0.87100  Biso   1.000  C
  C6       1.0000 0.46750  0.58550  0.67340  Biso   1.000  C
  C7       1.0000 0.33030  0.63950  0.52350  Biso   1.000  C
  C8       1.0000 0.25950  0.70490  0.40170  Biso   1.000  C
  C9       1.0000 0.31560  0.77680  0.31600  Biso   1.000  C
  C10      1.0000 0.24550  0.84450  0.20420  Biso   1.000  C
  C11      1.0000 0.07170  0.76780  0.25480  Biso   1.000  C
  C12      1.0000 0.13530  0.69830  0.36980  Biso   1.000  C
  C13      1.0000 0.73180  0.11130  0.11250  Biso   1.000  C
  C14      1.0000 0.80970  0.09490  0.22290  Biso   1.000  C
  C15      1.0000 0.76870  0.03060  0.32500  Biso   1.000  C
  C16      1.0000 0.84200  0.99280  0.43180  Biso   1.000  C
  C17      1.0000 0.95760  0.02380  0.44190  Biso   1.000  C
  C18      1.0000 0.98990  0.09990  0.33980  Biso   1.000  C
  C19      1.0000 0.92100  0.13360  0.23090  Biso   1.000  C
  C20      1.0000 0.96780  0.21820  0.12770  Biso   1.000  C
  C21      1.0000 0.29140  0.50400  0.06070  Biso   1.000  C
  C22      1.0000 0.21880  0.38250  0.21680  Biso   1.000  C
  C23      1.0000 0.32570  0.36890  0.29110  Biso   1.000  C
  C24      1.0000 0.41960  0.42550  0.24830  Biso   1.000  C
  C25      1.0000 0.40090  0.49570  0.12900  Biso   1.000  C
  C26      1.0000 0.53250  0.41450  0.32660  Biso   1.000  C
  C27      1.0000 0.66970  0.36050  0.47650  Biso   1.000  C
  C28      1.0000 0.74050  0.29510  0.59830  Biso   1.000  C
  C29      1.0000 0.68440  0.22320  0.68400  Biso   1.000  C
  C30      1.0000 0.75450  0.15550  0.79580  Biso   1.000  C
  C31      1.0000 0.92830  0.23220  0.74520  Biso   1.000  C
  C32      1.0000 0.86470  0.30170  0.63020  Biso   1.000  C
  C33      1.0000 0.26820  0.88870  0.88750  Biso   1.000  C
  C34      1.0000 0.19030  0.90510  0.77710  Biso   1.000  C
  C35      1.0000 0.23130  0.96940  0.67500  Biso   1.000  C
  C36      1.0000 0.15800  0.00720  0.56820  Biso   1.000  C
  C37      1.0000 0.04240  0.97620  0.55810  Biso   1.000  C
  C38      1.0000 0.01010  0.90010  0.66020  Biso   1.000  C
  C39      1.0000 0.07900  0.86640  0.76910  Biso   1.000  C
  C40      1.0000 0.03220  0.78180  0.87230  Biso   1.000  C
  N1       1.0000 0.38480  0.51780  0.70550  Biso   1.000  N
  N2       1.0000 0.29600  0.54990  0.61010  Biso   1.000  N
  N3       1.0000 0.43640  0.66370  0.55890  Biso   1.000  N
  N4       1.0000 0.80340  0.54730  0.89770  Biso   1.000  N
  N5       1.0000 0.12290  0.84350  0.17190  Biso   1.000  N
  N6       1.0000 0.61520  0.48220  0.29450  Biso   1.000  N
  N7       1.0000 0.70400  0.45010  0.38990  Biso   1.000  N
  N8       1.0000 0.56360  0.33630  0.44110  Biso   1.000  N
  N9       1.0000 0.19660  0.45270  0.10230  Biso   1.000  N
  N10      1.0000 0.87710  0.15650  0.82810  Biso   1.000  N
  O1       1.0000 0.97930  0.33000  0.13300  Biso   1.000  O
  O2       1.0000 0.99410  0.17720  0.04150  Biso   1.000  O
  O3       1.0000 0.59620  0.18890  0.09210  Biso   1.000  O
  O4       1.0000 0.80420  0.03540  0.05370  Biso   1.000  O
  O5       1.0000 0.88130  0.65250  0.08350  Biso   1.000  O
  O6       1.0000 0.02070  0.67000  0.86700  Biso   1.000  O
  O7       1.0000 0.00590  0.82280  0.95850  Biso   1.000  O
  O8       1.0000 0.40380  0.81110  0.90790  Biso   1.000  O
  O9       1.0000 0.19580  0.96460  0.94630  Biso   1.000  O
  O10      1.0000 0.11870  0.34750  0.91650  Biso   1.000  O
