data_CAZNUO_charged
_audit_creation_date              2014-07-02
_audit_creation_method            'Materials Studio'
_symmetry_space_group_name_H-M    'P1'
_symmetry_Int_Tables_number       1
_symmetry_cell_setting            triclinic
loop_
_symmetry_equiv_pos_as_xyz
  x,y,z
_cell_length_a                    14.8250
_cell_length_b                    16.6722
_cell_length_c                    16.6722
_cell_angle_alpha                 118.8350
_cell_angle_beta                  96.3173
_cell_angle_gamma                 96.3173
loop_
_atom_site_label
_atom_site_type_symbol
_atom_site_fract_x
_atom_site_fract_y
_atom_site_fract_z
_atom_site_U_iso_or_equiv
_atom_site_adp_type
_atom_site_occupancy
Co1    Co    0.00939   0.01089   0.20095   0.01267  Uiso   1.00
Co2    Co    0.99061   0.79905   0.98911   0.01267  Uiso   1.00
Co3    Co    1.00000   0.80203   0.19797   0.01267  Uiso   1.00
H1     H     0.72200   0.15460   0.69520   0.01267  Uiso   1.00
H2     H     0.64710   0.14650   0.61550   0.01267  Uiso   1.00
H3     H     0.45530   0.03850   0.66310   0.01267  Uiso   1.00
H4     H     0.51110   0.98960   0.58280   0.01267  Uiso   1.00
H5     H     0.56160   0.23320   0.73840   0.01267  Uiso   1.00
H6     H     0.63000   0.23180   0.81640   0.01267  Uiso   1.00
H7     H     0.62920   0.98840   0.69980   0.01267  Uiso   1.00
H8     H     0.56520   0.03560   0.77240   0.01267  Uiso   1.00
H9     H     0.35810   0.94230   0.51410   0.01267  Uiso   1.00
H10    H     0.70350   0.93170   0.76570   0.01267  Uiso   1.00
H11    H     0.77230   0.17840   0.97980   0.01267  Uiso   1.00
H12    H     0.77250   0.14400   0.54620   0.01267  Uiso   1.00
H13    H     0.84570   0.10600   0.42440   0.01267  Uiso   1.00
H14    H     0.80030   0.84240   0.35860   0.01267  Uiso   1.00
H15    H     0.71070   0.87390   0.47130   0.01267  Uiso   1.00
H16    H     0.99860   0.83540   0.39700   0.01267  Uiso   1.00
H17    H     0.99630   0.75710   0.47670   0.01267  Uiso   1.00
H18    H     0.26270   0.13900   0.41880   0.01267  Uiso   1.00
H19    H     0.39840   0.18500   0.52140   0.01267  Uiso   1.00
H20    H     0.21690   0.90110   0.41830   0.01267  Uiso   1.00
H21    H     0.98870   0.83180   0.82300   0.01267  Uiso   1.00
H22    H     0.99230   0.75410   0.66630   0.01267  Uiso   1.00
H23    H     0.98630   0.51820   0.67500   0.01267  Uiso   1.00
H24    H     0.98030   0.59920   0.82820   0.01267  Uiso   1.00
H25    H     0.84160   0.12200   0.06360   0.01267  Uiso   1.00
H26    H     0.79870   0.87730   0.84330   0.01267  Uiso   1.00
H27    H     0.27800   0.30480   0.84540   0.01267  Uiso   1.00
H28    H     0.35290   0.38450   0.85350   0.01267  Uiso   1.00
H29    H     0.54470   0.33690   0.96150   0.01267  Uiso   1.00
H30    H     0.48890   0.41720   0.01040   0.01267  Uiso   1.00
H31    H     0.43840   0.26160   0.76680   0.01267  Uiso   1.00
H32    H     0.37000   0.18360   0.76820   0.01267  Uiso   1.00
H33    H     0.37080   0.30020   0.01160   0.01267  Uiso   1.00
H34    H     0.43480   0.22760   0.96440   0.01267  Uiso   1.00
H35    H     0.64190   0.48590   0.05770   0.01267  Uiso   1.00
H36    H     0.29650   0.23430   0.06830   0.01267  Uiso   1.00
H37    H     0.22770   0.02020   0.82160   0.01267  Uiso   1.00
H38    H     0.22750   0.45380   0.85600   0.01267  Uiso   1.00
H39    H     0.15430   0.57560   0.89400   0.01267  Uiso   1.00
H40    H     0.19970   0.64140   0.15760   0.01267  Uiso   1.00
H41    H     0.28930   0.52870   0.12610   0.01267  Uiso   1.00
H42    H     0.00140   0.60300   0.16460   0.01267  Uiso   1.00
H43    H     0.00370   0.52330   0.24290   0.01267  Uiso   1.00
H44    H     0.73730   0.58120   0.86100   0.01267  Uiso   1.00
H45    H     0.60160   0.47860   0.81500   0.01267  Uiso   1.00
H46    H     0.78310   0.58170   0.09890   0.01267  Uiso   1.00
H47    H     0.01130   0.17700   0.16820   0.01267  Uiso   1.00
H48    H     0.00770   0.33370   0.24590   0.01267  Uiso   1.00
H49    H     0.01370   0.32500   0.48180   0.01267  Uiso   1.00
H50    H     0.01970   0.17180   0.40080   0.01267  Uiso   1.00
H51    H     0.15840   0.93640   0.87800   0.01267  Uiso   1.00
H52    H     0.20130   0.15670   0.12270   0.01267  Uiso   1.00
C1     C     0.59020   0.10250   0.69850   0.01267  Uiso   1.00
C2     C     0.66620   0.11640   0.65000   0.01267  Uiso   1.00
C3     C     0.50200   0.04940   0.63120   0.01267  Uiso   1.00
C4     C     0.57460   0.19800   0.76920   0.01267  Uiso   1.00
C5     C     0.61570   0.04760   0.74500   0.01267  Uiso   1.00
C6     C     0.38850   0.06930   0.53070   0.01267  Uiso   1.00
C7     C     0.33740   0.98360   0.49700   0.01267  Uiso   1.00
C8     C     0.73620   0.06100   0.86240   0.01267  Uiso   1.00
C9     C     0.73760   0.97300   0.82500   0.01267  Uiso   1.00
C10    C     0.77500   0.11530   0.95090   0.01267  Uiso   1.00
C11    C     0.73170   0.01400   0.52100   0.01267  Uiso   1.00
C12    C     0.77500   0.08190   0.50650   0.01267  Uiso   1.00
C13    C     0.82060   0.05970   0.43590   0.01267  Uiso   1.00
C14    C     0.83090   0.96950   0.38030   0.01267  Uiso   1.00
C15    C     0.79190   0.90320   0.39540   0.01267  Uiso   1.00
C16    C     0.73970   0.92160   0.46360   0.01267  Uiso   1.00
C17    C     0.99890   0.77170   0.36550   0.01267  Uiso   1.00
C18    C     0.99820   0.72520   0.41340   0.01267  Uiso   1.00
C19    C     0.99630   0.57770   0.55410   0.01267  Uiso   1.00
C20    C     0.13920   0.98060   0.33320   0.01267  Uiso   1.00
C21    C     0.22630   0.01310   0.40470   0.01267  Uiso   1.00
C22    C     0.28130   0.09900   0.43880   0.01267  Uiso   1.00
C23    C     0.36190   0.12710   0.50030   0.01267  Uiso   1.00
C24    C     0.25450   0.95790   0.43710   0.01267  Uiso   1.00
C25    C     0.98830   0.76810   0.79270   0.01267  Uiso   1.00
C26    C     0.99110   0.72180   0.69880   0.01267  Uiso   1.00
C27    C     0.99220   0.62790   0.65330   0.01267  Uiso   1.00
C28    C     0.98730   0.58200   0.70380   0.01267  Uiso   1.00
C29    C     0.98370   0.63120   0.79540   0.01267  Uiso   1.00
C30    C     0.88080   0.95460   0.01460   0.01267  Uiso   1.00
C31    C     0.88370   0.94360   0.30240   0.01267  Uiso   1.00
C32    C     0.82930   0.99320   0.96220   0.01267  Uiso   1.00
C33    C     0.81840   0.08190   0.00050   0.01267  Uiso   1.00
C34    C     0.79090   0.93910   0.87410   0.01267  Uiso   1.00
C35    C     0.40980   0.30150   0.89750   0.01267  Uiso   1.00
C36    C     0.33380   0.35000   0.88360   0.01267  Uiso   1.00
C37    C     0.49800   0.36880   0.95060   0.01267  Uiso   1.00
C38    C     0.42540   0.23080   0.80200   0.01267  Uiso   1.00
C39    C     0.38430   0.25500   0.95240   0.01267  Uiso   1.00
C40    C     0.61150   0.46930   0.93070   0.01267  Uiso   1.00
C41    C     0.66260   0.50300   0.01640   0.01267  Uiso   1.00
C42    C     0.26380   0.13760   0.93900   0.01267  Uiso   1.00
C43    C     0.26240   0.17500   0.02700   0.01267  Uiso   1.00
C44    C     0.22500   0.04910   0.88470   0.01267  Uiso   1.00
C45    C     0.26830   0.47900   0.98600   0.01267  Uiso   1.00
C46    C     0.22500   0.49350   0.91810   0.01267  Uiso   1.00
C47    C     0.17940   0.56410   0.94030   0.01267  Uiso   1.00
C48    C     0.16910   0.61970   0.03050   0.01267  Uiso   1.00
C49    C     0.20810   0.60460   0.09680   0.01267  Uiso   1.00
C50    C     0.26030   0.53640   0.07840   0.01267  Uiso   1.00
C51    C     0.00110   0.63450   0.22830   0.01267  Uiso   1.00
C52    C     0.00180   0.58660   0.27480   0.01267  Uiso   1.00
C53    C     0.00370   0.44590   0.42230   0.01267  Uiso   1.00
C54    C     0.86080   0.66680   0.01940   0.01267  Uiso   1.00
C55    C     0.77370   0.59530   0.98690   0.01267  Uiso   1.00
C56    C     0.71870   0.56120   0.90100   0.01267  Uiso   1.00
C57    C     0.63810   0.49970   0.87290   0.01267  Uiso   1.00
C58    C     0.74550   0.56290   0.04210   0.01267  Uiso   1.00
C59    C     0.01170   0.20730   0.23190   0.01267  Uiso   1.00
C60    C     0.00890   0.30120   0.27820   0.01267  Uiso   1.00
C61    C     0.00780   0.34670   0.37210   0.01267  Uiso   1.00
C62    C     0.01270   0.29620   0.41800   0.01267  Uiso   1.00
C63    C     0.01630   0.20460   0.36880   0.01267  Uiso   1.00
C64    C     0.11920   0.98540   0.04540   0.01267  Uiso   1.00
C65    C     0.11630   0.69760   0.05640   0.01267  Uiso   1.00
C66    C     0.17070   0.03780   0.00680   0.01267  Uiso   1.00
C67    C     0.18160   0.99950   0.91810   0.01267  Uiso   1.00
C68    C     0.20910   0.12590   0.06090   0.01267  Uiso   1.00
C69    C     1.00000   0.63090   0.36910   0.01267  Uiso   1.00
C70    C     1.00000   0.58030   0.41970   0.01267  Uiso   1.00
N1     N     0.99670   0.62760   0.51060   0.01267  Uiso   1.00
N2     N     0.98490   0.72340   0.84200   0.01267  Uiso   1.00
N3     N     0.00330   0.48940   0.37240   0.01267  Uiso   1.00
N4     N     0.01510   0.15800   0.27660   0.01267  Uiso   1.00
N5     N     1.00000   0.72800   0.27200   0.01267  Uiso   1.00
N6     N     1.00000   0.48730   0.51270   0.01267  Uiso   1.00
O1     O     0.47310   0.10240   0.59140   0.01267  Uiso   1.00
O2     O     0.69620   0.10320   0.81620   0.01267  Uiso   1.00
O3     O     0.68150   0.02630   0.58910   0.01267  Uiso   1.00
O4     O     0.09320   0.90522   0.31298   0.01267  Uiso   1.00
O5     O     0.12050   0.03187   0.30133   0.01267  Uiso   1.00
O6     O     0.91590   0.00653   0.28567   0.01267  Uiso   1.00
O7     O     0.89310   0.86120   0.25940   0.01267  Uiso   1.00
O8     O     0.90420   0.00680   0.10000   0.01267  Uiso   1.00
O9     O     0.89720   0.87580   0.96840   0.01267  Uiso   1.00
O10    O     0.52690   0.40860   0.89760   0.01267  Uiso   1.00
O11    O     0.30380   0.18380   0.89680   0.01267  Uiso   1.00
O12    O     0.31850   0.41090   0.97370   0.01267  Uiso   1.00
O13    O     0.90680   0.68702   0.09478   0.01267  Uiso   1.00
O14    O     0.87950   0.69867   0.96813   0.01267  Uiso   1.00
O15    O     0.08410   0.71433   0.99347   0.01267  Uiso   1.00
O16    O     0.10690   0.74060   0.13880   0.01267  Uiso   1.00
O17    O     0.09580   0.90000   0.99320   0.01267  Uiso   1.00
O18    O     0.10280   0.03160   0.12420   0.01267  Uiso   1.00
O19    O     1.00000   0.87220   0.12780   0.01267  Uiso   1.00
O20    O     0.50000   0.18860   0.81140   0.01267  Uiso   1.00
