data_image0
_cell_length_a       10.9381
_cell_length_b       13.5196
_cell_length_c       34.326
_cell_angle_alpha    99.0619
_cell_angle_beta     90
_cell_angle_gamma    113.862

_symmetry_space_group_name_H-M    P 1
_symmetry_int_tables_number       1

loop_
  _symmetry_equiv_pos_as_xyz
  'x, y, z'

loop_
  _atom_site_label
  _atom_site_occupancy
  _atom_site_fract_x
  _atom_site_fract_y
  _atom_site_fract_z
  _atom_site_thermal_displace_type
  _atom_site_B_iso_or_equiv
  _atom_site_type_symbol
  Co1      1.0000 0.77580  0.63358  0.49718  Biso   1.000  Co
  Co2      1.0000 0.14222  0.36642  0.00282  Biso   1.000  Co
  Co3      1.0000 0.22420  0.36642  0.50282  Biso   1.000  Co
  Co4      1.0000 0.85778  0.63358  0.99718  Biso   1.000  Co
  Co5      1.0000 0.00000  0.50000  0.50000  Biso   1.000  Co
  Co6      1.0000 0.50000  0.50000  0.00000  Biso   1.000  Co
  H1       1.0000 0.43030  0.02840  0.20800  Biso   1.000  H
  H2       1.0000 0.45730  0.11180  0.24790  Biso   1.000  H
  H3       1.0000 0.80840  0.26520  0.24120  Biso   1.000  H
  H4       1.0000 0.73950  0.17460  0.26740  Biso   1.000  H
  H5       1.0000 0.54810  0.25960  0.20490  Biso   1.000  H
  H6       1.0000 0.53580  0.17360  0.16670  Biso   1.000  H
  H7       1.0000 0.72160  0.04200  0.20650  Biso   1.000  H
  H8       1.0000 0.77090  0.13200  0.17910  Biso   1.000  H
  H9       1.0000 0.87710  0.31080  0.31340  Biso   1.000  H
  H10      1.0000 0.94020  0.39920  0.37840  Biso   1.000  H
  H11      1.0000 0.63000  0.48040  0.37960  Biso   1.000  H
  H12      1.0000 0.56690  0.39200  0.31600  Biso   1.000  H
  H13      1.0000 0.52760  0.31420  0.13900  Biso   1.000  H
  H14      1.0000 0.55010  0.39600  0.08350  Biso   1.000  H
  H15      1.0000 0.94020  0.46220  0.08820  Biso   1.000  H
  H16      1.0000 0.91920  0.38580  0.14460  Biso   1.000  H
  H17      1.0000 0.43820  0.86420  0.10980  Biso   1.000  H
  H18      1.0000 0.47600  0.75000  0.05840  Biso   1.000  H
  H19      1.0000 0.86610  0.89760  0.08820  Biso   1.000  H
  H20      1.0000 0.82900  0.00700  0.14180  Biso   1.000  H
  H21      1.0000 0.54930  0.65720  0.53670  Biso   1.000  H
  H22      1.0000 0.51570  0.76040  0.54670  Biso   1.000  H
  H23      1.0000 0.41970  0.65680  0.51700  Biso   1.000  H
  H24      1.0000 0.39620  0.79900  0.50560  Biso   1.000  H
  H25      1.0000 0.46950  0.91440  0.49300  Biso   1.000  H
  H26      1.0000 0.37580  0.81360  0.46190  Biso   1.000  H
  H27      1.0000 0.70120  0.83560  0.43850  Biso   1.000  H
  H28      1.0000 0.57120  0.83400  0.41860  Biso   1.000  H
  H29      1.0000 0.66380  0.93660  0.44920  Biso   1.000  H
  H30      1.0000 0.40190  0.97160  0.29200  Biso   1.000  H
  H31      1.0000 0.34550  0.88820  0.25210  Biso   1.000  H
  H32      1.0000 0.54320  0.73480  0.25880  Biso   1.000  H
  H33      1.0000 0.56490  0.82540  0.23260  Biso   1.000  H
  H34      1.0000 0.28850  0.74040  0.29510  Biso   1.000  H
  H35      1.0000 0.36220  0.82640  0.33330  Biso   1.000  H
  H36      1.0000 0.67960  0.95800  0.29350  Biso   1.000  H
  H37      1.0000 0.63890  0.86800  0.32090  Biso   1.000  H
  H38      1.0000 0.56630  0.68920  0.18660  Biso   1.000  H
  H39      1.0000 0.54100  0.60080  0.12160  Biso   1.000  H
  H40      1.0000 0.14960  0.51960  0.12040  Biso   1.000  H
  H41      1.0000 0.17490  0.60800  0.18400  Biso   1.000  H
  H42      1.0000 0.21340  0.68580  0.36100  Biso   1.000  H
  H43      1.0000 0.15410  0.60400  0.41650  Biso   1.000  H
  H44      1.0000 0.47800  0.53780  0.41180  Biso   1.000  H
  H45      1.0000 0.53340  0.61420  0.35540  Biso   1.000  H
  H46      1.0000 0.57400  0.13580  0.39020  Biso   1.000  H
  H47      1.0000 0.72600  0.25000  0.44160  Biso   1.000  H
  H48      1.0000 0.96850  0.10240  0.41180  Biso   1.000  H
  H49      1.0000 0.82200  0.99300  0.35820  Biso   1.000  H
  H50      1.0000 0.89210  0.34280  0.96330  Biso   1.000  H
  H51      1.0000 0.75530  0.23960  0.95330  Biso   1.000  H
  H52      1.0000 0.76290  0.34320  0.98300  Biso   1.000  H
  H53      1.0000 0.59720  0.20100  0.99440  Biso   1.000  H
  H54      1.0000 0.55510  0.08560  0.00700  Biso   1.000  H
  H55      1.0000 0.56220  0.18640  0.03810  Biso   1.000  H
  H56      1.0000 0.86560  0.16440  0.06150  Biso   1.000  H
  H57      1.0000 0.73720  0.16600  0.08140  Biso   1.000  H
  H58      1.0000 0.72720  0.06340  0.05080  Biso   1.000  H
  H59      1.0000 0.56970  0.97160  0.79200  Biso   1.000  H
  H60      1.0000 0.54270  0.88820  0.75210  Biso   1.000  H
  H61      1.0000 0.19160  0.73480  0.75880  Biso   1.000  H
  H62      1.0000 0.26050  0.82540  0.73260  Biso   1.000  H
  H63      1.0000 0.45190  0.74040  0.79510  Biso   1.000  H
  H64      1.0000 0.46420  0.82640  0.83330  Biso   1.000  H
  H65      1.0000 0.27840  0.95800  0.79350  Biso   1.000  H
  H66      1.0000 0.22910  0.86800  0.82090  Biso   1.000  H
  H67      1.0000 0.12290  0.68920  0.68660  Biso   1.000  H
  H68      1.0000 0.05980  0.60080  0.62160  Biso   1.000  H
  H69      1.0000 0.37000  0.51960  0.62040  Biso   1.000  H
  H70      1.0000 0.43310  0.60800  0.68400  Biso   1.000  H
  H71      1.0000 0.47240  0.68580  0.86100  Biso   1.000  H
  H72      1.0000 0.44990  0.60400  0.91650  Biso   1.000  H
  H73      1.0000 0.05980  0.53780  0.91180  Biso   1.000  H
  H74      1.0000 0.08080  0.61420  0.85540  Biso   1.000  H
  H75      1.0000 0.56180  0.13580  0.89020  Biso   1.000  H
  H76      1.0000 0.52400  0.25000  0.94160  Biso   1.000  H
  H77      1.0000 0.13390  0.10240  0.91180  Biso   1.000  H
  H78      1.0000 0.17100  0.99300  0.85820  Biso   1.000  H
  H79      1.0000 0.45070  0.34280  0.46330  Biso   1.000  H
  H80      1.0000 0.48430  0.23960  0.45330  Biso   1.000  H
  H81      1.0000 0.58030  0.34320  0.48300  Biso   1.000  H
  H82      1.0000 0.60380  0.20100  0.49440  Biso   1.000  H
  H83      1.0000 0.53050  0.08560  0.50700  Biso   1.000  H
  H84      1.0000 0.62420  0.18640  0.53810  Biso   1.000  H
  H85      1.0000 0.29880  0.16440  0.56150  Biso   1.000  H
  H86      1.0000 0.42880  0.16600  0.58140  Biso   1.000  H
  H87      1.0000 0.33620  0.06340  0.55080  Biso   1.000  H
  H88      1.0000 0.59810  0.02840  0.70800  Biso   1.000  H
  H89      1.0000 0.65450  0.11180  0.74790  Biso   1.000  H
  H90      1.0000 0.45680  0.26520  0.74120  Biso   1.000  H
  H91      1.0000 0.43510  0.17460  0.76740  Biso   1.000  H
  H92      1.0000 0.71150  0.25960  0.70490  Biso   1.000  H
  H93      1.0000 0.63780  0.17360  0.66670  Biso   1.000  H
  H94      1.0000 0.32040  0.04200  0.70650  Biso   1.000  H
  H95      1.0000 0.36110  0.13200  0.67910  Biso   1.000  H
  H96      1.0000 0.43370  0.31080  0.81340  Biso   1.000  H
  H97      1.0000 0.45900  0.39920  0.87840  Biso   1.000  H
  H98      1.0000 0.85040  0.48040  0.87960  Biso   1.000  H
  H99      1.0000 0.82510  0.39200  0.81600  Biso   1.000  H
  H100     1.0000 0.78660  0.31420  0.63900  Biso   1.000  H
  H101     1.0000 0.84590  0.39600  0.58350  Biso   1.000  H
  H102     1.0000 0.52200  0.46220  0.58820  Biso   1.000  H
  H103     1.0000 0.46660  0.38580  0.64460  Biso   1.000  H
  H104     1.0000 0.42600  0.86420  0.60980  Biso   1.000  H
  H105     1.0000 0.27400  0.75000  0.55840  Biso   1.000  H
  H106     1.0000 0.03150  0.89760  0.58820  Biso   1.000  H
  H107     1.0000 0.17800  0.00700  0.64180  Biso   1.000  H
  H108     1.0000 0.10790  0.65720  0.03670  Biso   1.000  H
  H109     1.0000 0.24470  0.76040  0.04670  Biso   1.000  H
  H110     1.0000 0.23710  0.65680  0.01700  Biso   1.000  H
  H111     1.0000 0.40280  0.79900  0.00560  Biso   1.000  H
  H112     1.0000 0.44490  0.91440  0.99300  Biso   1.000  H
  H113     1.0000 0.43780  0.81360  0.96190  Biso   1.000  H
  H114     1.0000 0.13440  0.83560  0.93850  Biso   1.000  H
  H115     1.0000 0.26280  0.83400  0.91860  Biso   1.000  H
  H116     1.0000 0.27280  0.93660  0.94920  Biso   1.000  H
  C1       1.0000 0.62521  0.14762  0.21547  Biso   1.000  C
  C2       1.0000 0.49524  0.07048  0.23009  Biso   1.000  C
  C3       1.0000 0.72351  0.21962  0.25043  Biso   1.000  C
  C4       1.0000 0.59319  0.21898  0.18989  Biso   1.000  C
  C5       1.0000 0.69311  0.08282  0.19049  Biso   1.000  C
  C6       1.0000 0.71389  0.33898  0.30871  Biso   1.000  C
  C7       1.0000 0.82564  0.34368  0.32684  Biso   1.000  C
  C8       1.0000 0.86422  0.39804  0.36586  Biso   1.000  C
  C9       1.0000 0.79201  0.44962  0.38601  Biso   1.000  C
  C10      1.0000 0.68050  0.44580  0.36665  Biso   1.000  C
  C11      1.0000 0.64230  0.39240  0.32867  Biso   1.000  C
  C12      1.0000 0.83101  0.50402  0.42820  Biso   1.000  C
  C13      1.0000 0.72028  0.33996  0.14601  Biso   1.000  C
  C14      1.0000 0.61080  0.34420  0.12872  Biso   1.000  C
  C15      1.0000 0.62476  0.39392  0.09564  Biso   1.000  C
  C16      1.0000 0.74928  0.44056  0.08054  Biso   1.000  C
  C17      1.0000 0.85701  0.43402  0.09861  Biso   1.000  C
  C18      1.0000 0.84450  0.38640  0.13188  Biso   1.000  C
  C19      1.0000 0.76631  0.49642  0.04558  Biso   1.000  C
  C20      1.0000 0.62954  0.94648  0.13076  Biso   1.000  C
  C21      1.0000 0.52500  0.87060  0.10588  Biso   1.000  C
  C22      1.0000 0.54797  0.80294  0.07479  Biso   1.000  C
  C23      1.0000 0.67501  0.81322  0.06788  Biso   1.000  C
  C24      1.0000 0.77911  0.88982  0.09276  Biso   1.000  C
  C25      1.0000 0.75750  0.95640  0.12472  Biso   1.000  C
  C26      1.0000 0.69547  0.73714  0.03420  Biso   1.000  C
  C27      1.0000 0.58941  0.74782  0.49254  Biso   1.000  C
  C28      1.0000 0.51150  0.70140  0.52630  Biso   1.000  C
  C29      1.0000 0.43880  0.83660  0.48450  Biso   1.000  C
  C30      1.0000 0.62860  0.85800  0.44240  Biso   1.000  C
  C31      1.0000 0.47759  0.85238  0.28453  Biso   1.000  C
  C32      1.0000 0.42476  0.92952  0.26991  Biso   1.000  C
  C33      1.0000 0.50389  0.78038  0.24957  Biso   1.000  C
  C34      1.0000 0.37421  0.78102  0.31011  Biso   1.000  C
  C35      1.0000 0.61029  0.91718  0.30951  Biso   1.000  C
  C36      1.0000 0.37491  0.66102  0.19129  Biso   1.000  C
  C37      1.0000 0.48196  0.65632  0.17316  Biso   1.000  C
  C38      1.0000 0.46618  0.60196  0.13414  Biso   1.000  C
  C39      1.0000 0.34239  0.55038  0.11399  Biso   1.000  C
  C40      1.0000 0.23470  0.55420  0.13335  Biso   1.000  C
  C41      1.0000 0.24990  0.60760  0.17133  Biso   1.000  C
  C42      1.0000 0.32699  0.49598  0.07180  Biso   1.000  C
  C43      1.0000 0.38032  0.66004  0.35399  Biso   1.000  C
  C44      1.0000 0.26660  0.65580  0.37128  Biso   1.000  C
  C45      1.0000 0.23084  0.60608  0.40436  Biso   1.000  C
  C46      1.0000 0.30872  0.55944  0.41946  Biso   1.000  C
  C47      1.0000 0.42299  0.56598  0.40139  Biso   1.000  C
  C48      1.0000 0.45810  0.61360  0.36812  Biso   1.000  C
  C49      1.0000 0.26989  0.50358  0.45442  Biso   1.000  C
  C50      1.0000 0.68306  0.05352  0.36924  Biso   1.000  C
  C51      1.0000 0.65440  0.12940  0.39412  Biso   1.000  C
  C52      1.0000 0.74503  0.19706  0.42521  Biso   1.000  C
  C53      1.0000 0.86179  0.18678  0.43212  Biso   1.000  C
  C54      1.0000 0.88929  0.11018  0.40724  Biso   1.000  C
  C55      1.0000 0.80110  0.04360  0.37528  Biso   1.000  C
  C56      1.0000 0.95833  0.26286  0.46580  Biso   1.000  C
  C57      1.0000 0.84159  0.25218  0.00746  Biso   1.000  C
  C58      1.0000 0.81010  0.29860  0.97370  Biso   1.000  C
  C59      1.0000 0.60220  0.16340  0.01550  Biso   1.000  C
  C60      1.0000 0.77060  0.14200  0.05760  Biso   1.000  C
  C61      1.0000 0.37479  0.85238  0.78453  Biso   1.000  C
  C62      1.0000 0.50476  0.92952  0.76991  Biso   1.000  C
  C63      1.0000 0.27649  0.78038  0.74957  Biso   1.000  C
  C64      1.0000 0.40681  0.78102  0.81011  Biso   1.000  C
  C65      1.0000 0.30689  0.91718  0.80951  Biso   1.000  C
  C66      1.0000 0.28611  0.66102  0.69129  Biso   1.000  C
  C67      1.0000 0.17436  0.65632  0.67316  Biso   1.000  C
  C68      1.0000 0.13578  0.60196  0.63414  Biso   1.000  C
  C69      1.0000 0.20799  0.55038  0.61399  Biso   1.000  C
  C70      1.0000 0.31950  0.55420  0.63335  Biso   1.000  C
  C71      1.0000 0.35770  0.60760  0.67133  Biso   1.000  C
  C72      1.0000 0.16899  0.49598  0.57180  Biso   1.000  C
  C73      1.0000 0.27972  0.66004  0.85399  Biso   1.000  C
  C74      1.0000 0.38920  0.65580  0.87128  Biso   1.000  C
  C75      1.0000 0.37524  0.60608  0.90436  Biso   1.000  C
  C76      1.0000 0.25072  0.55944  0.91946  Biso   1.000  C
  C77      1.0000 0.14299  0.56598  0.90139  Biso   1.000  C
  C78      1.0000 0.15550  0.61360  0.86812  Biso   1.000  C
  C79      1.0000 0.23369  0.50358  0.95442  Biso   1.000  C
  C80      1.0000 0.37046  0.05352  0.86924  Biso   1.000  C
  C81      1.0000 0.47500  0.12940  0.89412  Biso   1.000  C
  C82      1.0000 0.45203  0.19706  0.92521  Biso   1.000  C
  C83      1.0000 0.32499  0.18678  0.93212  Biso   1.000  C
  C84      1.0000 0.22089  0.11018  0.90724  Biso   1.000  C
  C85      1.0000 0.24250  0.04360  0.87528  Biso   1.000  C
  C86      1.0000 0.30453  0.26286  0.96580  Biso   1.000  C
  C87      1.0000 0.41059  0.25218  0.50746  Biso   1.000  C
  C88      1.0000 0.48850  0.29860  0.47370  Biso   1.000  C
  C89      1.0000 0.56120  0.16340  0.51550  Biso   1.000  C
  C90      1.0000 0.37140  0.14200  0.55760  Biso   1.000  C
  C91      1.0000 0.52241  0.14762  0.71547  Biso   1.000  C
  C92      1.0000 0.57524  0.07048  0.73009  Biso   1.000  C
  C93      1.0000 0.49611  0.21962  0.75043  Biso   1.000  C
  C94      1.0000 0.62579  0.21898  0.68989  Biso   1.000  C
  C95      1.0000 0.38971  0.08282  0.69049  Biso   1.000  C
  C96      1.0000 0.62509  0.33898  0.80871  Biso   1.000  C
  C97      1.0000 0.51804  0.34368  0.82684  Biso   1.000  C
  C98      1.0000 0.53382  0.39804  0.86586  Biso   1.000  C
  C99      1.0000 0.65761  0.44962  0.88601  Biso   1.000  C
  C100     1.0000 0.76530  0.44580  0.86665  Biso   1.000  C
  C101     1.0000 0.75010  0.39240  0.82867  Biso   1.000  C
  C102     1.0000 0.67301  0.50402  0.92820  Biso   1.000  C
  C103     1.0000 0.61968  0.33996  0.64601  Biso   1.000  C
  C104     1.0000 0.73340  0.34420  0.62872  Biso   1.000  C
  C105     1.0000 0.76916  0.39392  0.59564  Biso   1.000  C
  C106     1.0000 0.69128  0.44056  0.58054  Biso   1.000  C
  C107     1.0000 0.57701  0.43402  0.59861  Biso   1.000  C
  C108     1.0000 0.54190  0.38640  0.63188  Biso   1.000  C
  C109     1.0000 0.73011  0.49642  0.54558  Biso   1.000  C
  C110     1.0000 0.31694  0.94648  0.63076  Biso   1.000  C
  C111     1.0000 0.34560  0.87060  0.60588  Biso   1.000  C
  C112     1.0000 0.25497  0.80294  0.57479  Biso   1.000  C
  C113     1.0000 0.13821  0.81322  0.56788  Biso   1.000  C
  C114     1.0000 0.11071  0.88982  0.59276  Biso   1.000  C
  C115     1.0000 0.19890  0.95640  0.62472  Biso   1.000  C
  C116     1.0000 0.04167  0.73714  0.53420  Biso   1.000  C
  C117     1.0000 0.15841  0.74782  0.99254  Biso   1.000  C
  C118     1.0000 0.18990  0.70140  0.02630  Biso   1.000  C
  C119     1.0000 0.39780  0.83660  0.98450  Biso   1.000  C
  C120     1.0000 0.22940  0.85800  0.94240  Biso   1.000  C
  N1       1.0000 0.55378  0.81016  0.47365  Biso   1.000  N
  N2       1.0000 0.74362  0.18984  0.02635  Biso   1.000  N
  N3       1.0000 0.44622  0.18984  0.52635  Biso   1.000  N
  N4       1.0000 0.25638  0.81016  0.97365  Biso   1.000  N
  O1       1.0000 0.66313  0.28626  0.27137  Biso   1.000  O
  O2       1.0000 0.71775  0.29190  0.17868  Biso   1.000  O
  O3       1.0000 0.59375  0.00910  0.15974  Biso   1.000  O
  O4       1.0000 0.92592  0.49504  0.44471  Biso   1.000  O
  O5       1.0000 0.76378  0.55576  0.44387  Biso   1.000  O
  O6       1.0000 0.88476  0.55052  0.03685  Biso   1.000  O
  O7       1.0000 0.66902  0.49104  0.02594  Biso   1.000  O
  O8       1.0000 0.59435  0.66990  0.01250  Biso   1.000  O
  O9       1.0000 0.81358  0.74656  0.02945  Biso   1.000  O
  O10      1.0000 0.69030  0.72920  0.48245  Biso   1.000  O
  O11      1.0000 0.37687  0.71374  0.22863  Biso   1.000  O
  O12      1.0000 0.42585  0.70810  0.32132  Biso   1.000  O
  O13      1.0000 0.58465  0.99090  0.34026  Biso   1.000  O
  O14      1.0000 0.43088  0.50496  0.05529  Biso   1.000  O
  O15      1.0000 0.20802  0.44424  0.05613  Biso   1.000  O
  O16      1.0000 0.33424  0.44948  0.46315  Biso   1.000  O
  O17      1.0000 0.17798  0.50896  0.47406  Biso   1.000  O
  O18      1.0000 0.92445  0.33010  0.48750  Biso   1.000  O
  O19      1.0000 0.06702  0.25344  0.47055  Biso   1.000  O
  O20      1.0000 0.96110  0.27080  0.01755  Biso   1.000  O
  O21      1.0000 0.33687  0.71374  0.72863  Biso   1.000  O
  O22      1.0000 0.28225  0.70810  0.82132  Biso   1.000  O
  O23      1.0000 0.40625  0.99090  0.84026  Biso   1.000  O
  O24      1.0000 0.07408  0.50496  0.55529  Biso   1.000  O
  O25      1.0000 0.23622  0.44424  0.55613  Biso   1.000  O
  O26      1.0000 0.11524  0.44948  0.96315  Biso   1.000  O
  O27      1.0000 0.33098  0.50896  0.97406  Biso   1.000  O
  O28      1.0000 0.40565  0.33010  0.98750  Biso   1.000  O
  O29      1.0000 0.18642  0.25344  0.97055  Biso   1.000  O
  O30      1.0000 0.30970  0.27080  0.51755  Biso   1.000  O
  O31      1.0000 0.62313  0.28626  0.77137  Biso   1.000  O
  O32      1.0000 0.57415  0.29190  0.67868  Biso   1.000  O
  O33      1.0000 0.41535  0.00910  0.65974  Biso   1.000  O
  O34      1.0000 0.56912  0.49504  0.94471  Biso   1.000  O
  O35      1.0000 0.79198  0.55576  0.94387  Biso   1.000  O
  O36      1.0000 0.66576  0.55052  0.53685  Biso   1.000  O
  O37      1.0000 0.82202  0.49104  0.52594  Biso   1.000  O
  O38      1.0000 0.07555  0.66990  0.51250  Biso   1.000  O
  O39      1.0000 0.93298  0.74656  0.52945  Biso   1.000  O
  O40      1.0000 0.03890  0.72920  0.98245  Biso   1.000  O
  O41      1.0000 0.52880  0.00000  0.25000  Biso   1.000  O
  O42      1.0000 0.47120  0.00000  0.75000  Biso   1.000  O
