data_image0
_cell_length_a       15.277
_cell_length_b       15.277
_cell_length_c       15.776
_cell_angle_alpha    90
_cell_angle_beta     90
_cell_angle_gamma    120

_symmetry_space_group_name_H-M    P 1
_symmetry_int_tables_number       1

loop_
  _symmetry_equiv_pos_as_xyz
  'x, y, z'

loop_
  _atom_site_label
  _atom_site_occupancy
  _atom_site_fract_x
  _atom_site_fract_y
  _atom_site_fract_z
  _atom_site_thermal_displace_type
  _atom_site_B_iso_or_equiv
  _atom_site_type_symbol
  Dy1      1.0000 0.33333  0.66666  0.75000  Biso   1.000  Dy
  Dy2      1.0000 0.66667  0.33334  0.75000  Biso   1.000  Dy
  Dy3      1.0000 0.66667  0.33334  0.25000  Biso   1.000  Dy
  Dy4      1.0000 0.33333  0.66666  0.25000  Biso   1.000  Dy
  Mn1      1.0000 0.50000  0.00000  0.00000  Biso   1.000  Mn
  Mn2      1.0000 0.50000  0.50000  0.00000  Biso   1.000  Mn
  Mn3      1.0000 0.00000  0.50000  0.00000  Biso   1.000  Mn
  Mn4      1.0000 0.50000  0.00000  0.50000  Biso   1.000  Mn
  Mn5      1.0000 0.00000  0.50000  0.50000  Biso   1.000  Mn
  Mn6      1.0000 0.50000  0.50000  0.50000  Biso   1.000  Mn
  H1       1.0000 0.71080  0.94380  0.84440  Biso   1.000  H
  H2       1.0000 0.23300  0.28920  0.84440  Biso   1.000  H
  H3       1.0000 0.05620  0.76700  0.84440  Biso   1.000  H
  H4       1.0000 0.28920  0.05620  0.84440  Biso   1.000  H
  H5       1.0000 0.76700  0.71080  0.84440  Biso   1.000  H
  H6       1.0000 0.94380  0.23300  0.84440  Biso   1.000  H
  H7       1.0000 0.76700  0.05620  0.65560  Biso   1.000  H
  H8       1.0000 0.94380  0.71080  0.65560  Biso   1.000  H
  H9       1.0000 0.28920  0.23300  0.65560  Biso   1.000  H
  H10      1.0000 0.23300  0.94380  0.65560  Biso   1.000  H
  H11      1.0000 0.05620  0.28920  0.65560  Biso   1.000  H
  H12      1.0000 0.71080  0.76700  0.65560  Biso   1.000  H
  H13      1.0000 0.28920  0.05620  0.15560  Biso   1.000  H
  H14      1.0000 0.76700  0.71080  0.15560  Biso   1.000  H
  H15      1.0000 0.94380  0.23300  0.15560  Biso   1.000  H
  H16      1.0000 0.71080  0.94380  0.15560  Biso   1.000  H
  H17      1.0000 0.23300  0.28920  0.15560  Biso   1.000  H
  H18      1.0000 0.05620  0.76700  0.15560  Biso   1.000  H
  H19      1.0000 0.23300  0.94380  0.34440  Biso   1.000  H
  H20      1.0000 0.05620  0.28920  0.34440  Biso   1.000  H
  H21      1.0000 0.71080  0.76700  0.34440  Biso   1.000  H
  H22      1.0000 0.76700  0.05620  0.34440  Biso   1.000  H
  H23      1.0000 0.94380  0.71080  0.34440  Biso   1.000  H
  H24      1.0000 0.28920  0.23300  0.34440  Biso   1.000  H
  H25      1.0000 0.79990  0.89995  0.75000  Biso   1.000  H
  H26      1.0000 0.10005  0.20010  0.75000  Biso   1.000  H
  H27      1.0000 0.10005  0.89995  0.75000  Biso   1.000  H
  H28      1.0000 0.20010  0.10005  0.75000  Biso   1.000  H
  H29      1.0000 0.89995  0.79990  0.75000  Biso   1.000  H
  H30      1.0000 0.89995  0.10005  0.75000  Biso   1.000  H
  H31      1.0000 0.20010  0.10005  0.25000  Biso   1.000  H
  H32      1.0000 0.89995  0.79990  0.25000  Biso   1.000  H
  H33      1.0000 0.89995  0.10005  0.25000  Biso   1.000  H
  H34      1.0000 0.79990  0.89995  0.25000  Biso   1.000  H
  H35      1.0000 0.10005  0.20010  0.25000  Biso   1.000  H
  H36      1.0000 0.10005  0.89995  0.25000  Biso   1.000  H
  C1       1.0000 0.50577  0.86245  0.85897  Biso   1.000  C
  C2       1.0000 0.57177  0.83865  0.80277  Biso   1.000  C
  C3       1.0000 0.67670  0.89153  0.80576  Biso   1.000  C
  C4       1.0000 0.35668  0.49423  0.85897  Biso   1.000  C
  C5       1.0000 0.26688  0.42823  0.80277  Biso   1.000  C
  C6       1.0000 0.21483  0.32330  0.80576  Biso   1.000  C
  C7       1.0000 0.13755  0.64332  0.85897  Biso   1.000  C
  C8       1.0000 0.16135  0.73312  0.80277  Biso   1.000  C
  C9       1.0000 0.10847  0.78517  0.80576  Biso   1.000  C
  C10      1.0000 0.49423  0.13755  0.85897  Biso   1.000  C
  C11      1.0000 0.42823  0.16135  0.80277  Biso   1.000  C
  C12      1.0000 0.32330  0.10847  0.80576  Biso   1.000  C
  C13      1.0000 0.64332  0.50577  0.85897  Biso   1.000  C
  C14      1.0000 0.73312  0.57177  0.80277  Biso   1.000  C
  C15      1.0000 0.78517  0.67670  0.80576  Biso   1.000  C
  C16      1.0000 0.86245  0.35668  0.85897  Biso   1.000  C
  C17      1.0000 0.83865  0.26688  0.80277  Biso   1.000  C
  C18      1.0000 0.89153  0.21483  0.80576  Biso   1.000  C
  C19      1.0000 0.64332  0.13755  0.64103  Biso   1.000  C
  C20      1.0000 0.73312  0.16135  0.69723  Biso   1.000  C
  C21      1.0000 0.78517  0.10847  0.69424  Biso   1.000  C
  C22      1.0000 0.86245  0.50577  0.64103  Biso   1.000  C
  C23      1.0000 0.83865  0.57177  0.69723  Biso   1.000  C
  C24      1.0000 0.89153  0.67670  0.69424  Biso   1.000  C
  C25      1.0000 0.49423  0.35668  0.64103  Biso   1.000  C
  C26      1.0000 0.42823  0.26688  0.69723  Biso   1.000  C
  C27      1.0000 0.32330  0.21483  0.69424  Biso   1.000  C
  C28      1.0000 0.35668  0.86245  0.64103  Biso   1.000  C
  C29      1.0000 0.26688  0.83865  0.69723  Biso   1.000  C
  C30      1.0000 0.21483  0.89153  0.69424  Biso   1.000  C
  C31      1.0000 0.13755  0.49423  0.64103  Biso   1.000  C
  C32      1.0000 0.16135  0.42823  0.69723  Biso   1.000  C
  C33      1.0000 0.10847  0.32330  0.69424  Biso   1.000  C
  C34      1.0000 0.50577  0.64332  0.64103  Biso   1.000  C
  C35      1.0000 0.57177  0.73312  0.69723  Biso   1.000  C
  C36      1.0000 0.67670  0.78517  0.69424  Biso   1.000  C
  C37      1.0000 0.49423  0.13755  0.14103  Biso   1.000  C
  C38      1.0000 0.42823  0.16135  0.19723  Biso   1.000  C
  C39      1.0000 0.32330  0.10847  0.19424  Biso   1.000  C
  C40      1.0000 0.64332  0.50577  0.14103  Biso   1.000  C
  C41      1.0000 0.73312  0.57177  0.19723  Biso   1.000  C
  C42      1.0000 0.78517  0.67670  0.19424  Biso   1.000  C
  C43      1.0000 0.86245  0.35668  0.14103  Biso   1.000  C
  C44      1.0000 0.83865  0.26688  0.19723  Biso   1.000  C
  C45      1.0000 0.89153  0.21483  0.19424  Biso   1.000  C
  C46      1.0000 0.50577  0.86245  0.14103  Biso   1.000  C
  C47      1.0000 0.57177  0.83865  0.19723  Biso   1.000  C
  C48      1.0000 0.67670  0.89153  0.19424  Biso   1.000  C
  C49      1.0000 0.35668  0.49423  0.14103  Biso   1.000  C
  C50      1.0000 0.26688  0.42823  0.19723  Biso   1.000  C
  C51      1.0000 0.21483  0.32330  0.19424  Biso   1.000  C
  C52      1.0000 0.13755  0.64332  0.14103  Biso   1.000  C
  C53      1.0000 0.16135  0.73312  0.19723  Biso   1.000  C
  C54      1.0000 0.10847  0.78517  0.19424  Biso   1.000  C
  C55      1.0000 0.35668  0.86245  0.35897  Biso   1.000  C
  C56      1.0000 0.26688  0.83865  0.30277  Biso   1.000  C
  C57      1.0000 0.21483  0.89153  0.30576  Biso   1.000  C
  C58      1.0000 0.13755  0.49423  0.35897  Biso   1.000  C
  C59      1.0000 0.16135  0.42823  0.30277  Biso   1.000  C
  C60      1.0000 0.10847  0.32330  0.30576  Biso   1.000  C
  C61      1.0000 0.50577  0.64332  0.35897  Biso   1.000  C
  C62      1.0000 0.57177  0.73312  0.30277  Biso   1.000  C
  C63      1.0000 0.67670  0.78517  0.30576  Biso   1.000  C
  C64      1.0000 0.64332  0.13755  0.35897  Biso   1.000  C
  C65      1.0000 0.73312  0.16135  0.30277  Biso   1.000  C
  C66      1.0000 0.78517  0.10847  0.30576  Biso   1.000  C
  C67      1.0000 0.86245  0.50577  0.35897  Biso   1.000  C
  C68      1.0000 0.83865  0.57177  0.30277  Biso   1.000  C
  C69      1.0000 0.89153  0.67670  0.30576  Biso   1.000  C
  C70      1.0000 0.49423  0.35668  0.35897  Biso   1.000  C
  C71      1.0000 0.42823  0.26688  0.30277  Biso   1.000  C
  C72      1.0000 0.32330  0.21483  0.30576  Biso   1.000  C
  C73      1.0000 0.72956  0.86478  0.75000  Biso   1.000  C
  C74      1.0000 0.13522  0.27044  0.75000  Biso   1.000  C
  C75      1.0000 0.13522  0.86479  0.75000  Biso   1.000  C
  C76      1.0000 0.27043  0.13521  0.75000  Biso   1.000  C
  C77      1.0000 0.86478  0.72956  0.75000  Biso   1.000  C
  C78      1.0000 0.86478  0.13522  0.75000  Biso   1.000  C
  C79      1.0000 0.27043  0.13521  0.25000  Biso   1.000  C
  C80      1.0000 0.86478  0.72956  0.25000  Biso   1.000  C
  C81      1.0000 0.86478  0.13522  0.25000  Biso   1.000  C
  C82      1.0000 0.72956  0.86478  0.25000  Biso   1.000  C
  C83      1.0000 0.13522  0.27044  0.25000  Biso   1.000  C
  C84      1.0000 0.13522  0.86479  0.25000  Biso   1.000  C
  N1       1.0000 0.51997  0.75999  0.75000  Biso   1.000  N
  N2       1.0000 0.24002  0.48004  0.75000  Biso   1.000  N
  N3       1.0000 0.24002  0.75999  0.75000  Biso   1.000  N
  N4       1.0000 0.48003  0.24001  0.75000  Biso   1.000  N
  N5       1.0000 0.75998  0.51996  0.75000  Biso   1.000  N
  N6       1.0000 0.75998  0.24001  0.75000  Biso   1.000  N
  N7       1.0000 0.48003  0.24001  0.25000  Biso   1.000  N
  N8       1.0000 0.75998  0.51996  0.25000  Biso   1.000  N
  N9       1.0000 0.75998  0.24001  0.25000  Biso   1.000  N
  N10      1.0000 0.51997  0.75999  0.25000  Biso   1.000  N
  N11      1.0000 0.24002  0.48004  0.25000  Biso   1.000  N
  N12      1.0000 0.24002  0.75999  0.25000  Biso   1.000  N
  O1       1.0000 0.54973  0.93568  0.90625  Biso   1.000  O
  O2       1.0000 0.41351  0.80139  0.85452  Biso   1.000  O
  O3       1.0000 0.38595  0.45027  0.90625  Biso   1.000  O
  O4       1.0000 0.38788  0.58649  0.85452  Biso   1.000  O
  O5       1.0000 0.06432  0.61405  0.90625  Biso   1.000  O
  O6       1.0000 0.19861  0.61212  0.85452  Biso   1.000  O
  O7       1.0000 0.45027  0.06432  0.90625  Biso   1.000  O
  O8       1.0000 0.58649  0.19861  0.85452  Biso   1.000  O
  O9       1.0000 0.61405  0.54973  0.90625  Biso   1.000  O
  O10      1.0000 0.61212  0.41351  0.85452  Biso   1.000  O
  O11      1.0000 0.93568  0.38595  0.90625  Biso   1.000  O
  O12      1.0000 0.80139  0.38788  0.85452  Biso   1.000  O
  O13      1.0000 0.61405  0.06432  0.59375  Biso   1.000  O
  O14      1.0000 0.61212  0.19861  0.64548  Biso   1.000  O
  O15      1.0000 0.93568  0.54973  0.59375  Biso   1.000  O
  O16      1.0000 0.80139  0.41351  0.64548  Biso   1.000  O
  O17      1.0000 0.45027  0.38595  0.59375  Biso   1.000  O
  O18      1.0000 0.58649  0.38788  0.64548  Biso   1.000  O
  O19      1.0000 0.38595  0.93568  0.59375  Biso   1.000  O
  O20      1.0000 0.38788  0.80139  0.64548  Biso   1.000  O
  O21      1.0000 0.06432  0.45027  0.59375  Biso   1.000  O
  O22      1.0000 0.19861  0.58649  0.64548  Biso   1.000  O
  O23      1.0000 0.54973  0.61405  0.59375  Biso   1.000  O
  O24      1.0000 0.41351  0.61212  0.64548  Biso   1.000  O
  O25      1.0000 0.45027  0.06432  0.09375  Biso   1.000  O
  O26      1.0000 0.58649  0.19861  0.14548  Biso   1.000  O
  O27      1.0000 0.61405  0.54973  0.09375  Biso   1.000  O
  O28      1.0000 0.61212  0.41351  0.14548  Biso   1.000  O
  O29      1.0000 0.93568  0.38595  0.09375  Biso   1.000  O
  O30      1.0000 0.80139  0.38788  0.14548  Biso   1.000  O
  O31      1.0000 0.54973  0.93568  0.09375  Biso   1.000  O
  O32      1.0000 0.41351  0.80139  0.14548  Biso   1.000  O
  O33      1.0000 0.38595  0.45027  0.09375  Biso   1.000  O
  O34      1.0000 0.38788  0.58649  0.14548  Biso   1.000  O
  O35      1.0000 0.06432  0.61405  0.09375  Biso   1.000  O
  O36      1.0000 0.19861  0.61212  0.14548  Biso   1.000  O
  O37      1.0000 0.38595  0.93568  0.40625  Biso   1.000  O
  O38      1.0000 0.38788  0.80139  0.35452  Biso   1.000  O
  O39      1.0000 0.06432  0.45027  0.40625  Biso   1.000  O
  O40      1.0000 0.19861  0.58649  0.35452  Biso   1.000  O
  O41      1.0000 0.54973  0.61405  0.40625  Biso   1.000  O
  O42      1.0000 0.41351  0.61212  0.35452  Biso   1.000  O
  O43      1.0000 0.61405  0.06432  0.40625  Biso   1.000  O
  O44      1.0000 0.61212  0.19861  0.35452  Biso   1.000  O
  O45      1.0000 0.93568  0.54973  0.40625  Biso   1.000  O
  O46      1.0000 0.80139  0.41351  0.35452  Biso   1.000  O
  O47      1.0000 0.45027  0.38595  0.40625  Biso   1.000  O
  O48      1.0000 0.58649  0.38788  0.35452  Biso   1.000  O
  O49      1.0000 0.34701  0.85586  0.00000  Biso   1.000  O
  O50      1.0000 0.50885  0.65299  0.00000  Biso   1.000  O
  O51      1.0000 0.14414  0.49116  0.00000  Biso   1.000  O
  O52      1.0000 0.65299  0.14414  0.00000  Biso   1.000  O
  O53      1.0000 0.49115  0.34701  0.00000  Biso   1.000  O
  O54      1.0000 0.85586  0.50885  0.00000  Biso   1.000  O
  O55      1.0000 0.49115  0.14413  0.50000  Biso   1.000  O
  O56      1.0000 0.85586  0.34701  0.50000  Biso   1.000  O
  O57      1.0000 0.65299  0.50885  0.50000  Biso   1.000  O
  O58      1.0000 0.50885  0.85587  0.50000  Biso   1.000  O
  O59      1.0000 0.14414  0.65299  0.50000  Biso   1.000  O
  O60      1.0000 0.34701  0.49115  0.50000  Biso   1.000  O
