data_image0
_cell_length_a       10.4307
_cell_length_b       19.6228
_cell_length_c       12.7867
_cell_angle_alpha    90
_cell_angle_beta     90
_cell_angle_gamma    90

_symmetry_space_group_name_H-M    P 1
_symmetry_int_tables_number       1

loop_
  _symmetry_equiv_pos_as_xyz
  'x, y, z'

loop_
  _atom_site_label
  _atom_site_occupancy
  _atom_site_fract_x
  _atom_site_fract_y
  _atom_site_fract_z
  _atom_site_thermal_displace_type
  _atom_site_B_iso_or_equiv
  _atom_site_type_symbol
  Ag1      1.0000 0.14245  0.46479  0.67302  Biso   1.000  Ag
  Ag2      1.0000 0.85755  0.03521  0.67302  Biso   1.000  Ag
  Ag3      1.0000 0.64245  0.03521  0.82698  Biso   1.000  Ag
  Ag4      1.0000 0.35755  0.46479  0.82698  Biso   1.000  Ag
  Ag5      1.0000 0.25000  0.33366  0.25000  Biso   1.000  Ag
  Ag6      1.0000 0.75000  0.16634  0.25000  Biso   1.000  Ag
  Ag7      1.0000 0.00000  0.75000  0.82958  Biso   1.000  Ag
  Ag8      1.0000 0.50000  0.75000  0.67042  Biso   1.000  Ag
  H1       1.0000 0.21720  0.30020  0.64780  Biso   1.000  H
  H2       1.0000 0.24960  0.24490  0.47630  Biso   1.000  H
  H3       1.0000 0.19130  0.46130  0.33420  Biso   1.000  H
  H4       1.0000 0.25270  0.49720  0.43470  Biso   1.000  H
  H5       1.0000 0.10090  0.48660  0.42750  Biso   1.000  H
  H6       1.0000 0.98850  0.61260  0.97860  Biso   1.000  H
  H7       1.0000 0.04110  0.49690  0.91580  Biso   1.000  H
  H8       1.0000 0.10300  0.68670  0.64530  Biso   1.000  H
  H9       1.0000 0.06090  0.61680  0.59080  Biso   1.000  H
  H10      1.0000 0.20540  0.62680  0.63010  Biso   1.000  H
  H11      1.0000 0.78280  0.19980  0.64780  Biso   1.000  H
  H12      1.0000 0.75040  0.25510  0.47630  Biso   1.000  H
  H13      1.0000 0.80870  0.03870  0.33420  Biso   1.000  H
  H14      1.0000 0.74730  0.00280  0.43470  Biso   1.000  H
  H15      1.0000 0.89910  0.01340  0.42750  Biso   1.000  H
  H16      1.0000 0.01150  0.88740  0.97860  Biso   1.000  H
  H17      1.0000 0.95890  0.00310  0.91580  Biso   1.000  H
  H18      1.0000 0.89700  0.81330  0.64530  Biso   1.000  H
  H19      1.0000 0.93910  0.88320  0.59080  Biso   1.000  H
  H20      1.0000 0.79460  0.87320  0.63010  Biso   1.000  H
  H21      1.0000 0.71720  0.19980  0.85220  Biso   1.000  H
  H22      1.0000 0.74960  0.25510  0.02370  Biso   1.000  H
  H23      1.0000 0.69130  0.03870  0.16580  Biso   1.000  H
  H24      1.0000 0.75270  0.00280  0.06530  Biso   1.000  H
  H25      1.0000 0.60090  0.01340  0.07250  Biso   1.000  H
  H26      1.0000 0.48850  0.88740  0.52140  Biso   1.000  H
  H27      1.0000 0.54110  0.00310  0.58420  Biso   1.000  H
  H28      1.0000 0.60300  0.81330  0.85470  Biso   1.000  H
  H29      1.0000 0.56090  0.88320  0.90920  Biso   1.000  H
  H30      1.0000 0.70540  0.87320  0.86990  Biso   1.000  H
  H31      1.0000 0.28280  0.30020  0.85220  Biso   1.000  H
  H32      1.0000 0.25040  0.24490  0.02370  Biso   1.000  H
  H33      1.0000 0.30870  0.46130  0.16580  Biso   1.000  H
  H34      1.0000 0.24730  0.49720  0.06530  Biso   1.000  H
  H35      1.0000 0.39910  0.48660  0.07250  Biso   1.000  H
  H36      1.0000 0.51150  0.61260  0.52140  Biso   1.000  H
  H37      1.0000 0.45890  0.49690  0.58420  Biso   1.000  H
  H38      1.0000 0.39700  0.68670  0.85470  Biso   1.000  H
  H39      1.0000 0.43910  0.61680  0.90920  Biso   1.000  H
  H40      1.0000 0.29460  0.62680  0.86990  Biso   1.000  H
  C1       1.0000 0.19770  0.39925  0.46180  Biso   1.000  C
  C2       1.0000 0.21460  0.32227  0.58170  Biso   1.000  C
  C3       1.0000 0.23260  0.29186  0.48740  Biso   1.000  C
  C4       1.0000 0.18450  0.46685  0.41010  Biso   1.000  C
  C5       1.0000 0.07970  0.60866  0.74923  Biso   1.000  C
  C6       1.0000 0.01830  0.60121  0.91060  Biso   1.000  C
  C7       1.0000 0.04680  0.53768  0.87590  Biso   1.000  C
  C8       1.0000 0.11530  0.63716  0.64490  Biso   1.000  C
  C9       1.0000 0.80230  0.10075  0.46180  Biso   1.000  C
  C10      1.0000 0.78540  0.17773  0.58170  Biso   1.000  C
  C11      1.0000 0.76740  0.20814  0.48740  Biso   1.000  C
  C12      1.0000 0.81550  0.03315  0.41010  Biso   1.000  C
  C13      1.0000 0.92030  0.89134  0.74923  Biso   1.000  C
  C14      1.0000 0.98170  0.89879  0.91060  Biso   1.000  C
  C15      1.0000 0.95320  0.96232  0.87590  Biso   1.000  C
  C16      1.0000 0.88470  0.86284  0.64490  Biso   1.000  C
  C17      1.0000 0.69770  0.10075  0.03820  Biso   1.000  C
  C18      1.0000 0.71460  0.17773  0.91830  Biso   1.000  C
  C19      1.0000 0.73260  0.20814  0.01260  Biso   1.000  C
  C20      1.0000 0.68450  0.03315  0.08990  Biso   1.000  C
  C21      1.0000 0.57970  0.89134  0.75077  Biso   1.000  C
  C22      1.0000 0.51830  0.89879  0.58940  Biso   1.000  C
  C23      1.0000 0.54680  0.96232  0.62410  Biso   1.000  C
  C24      1.0000 0.61530  0.86284  0.85510  Biso   1.000  C
  C25      1.0000 0.30230  0.39925  0.03820  Biso   1.000  C
  C26      1.0000 0.28540  0.32227  0.91830  Biso   1.000  C
  C27      1.0000 0.26740  0.29186  0.01260  Biso   1.000  C
  C28      1.0000 0.31550  0.46685  0.08990  Biso   1.000  C
  C29      1.0000 0.42030  0.60866  0.75077  Biso   1.000  C
  C30      1.0000 0.48170  0.60121  0.58940  Biso   1.000  C
  C31      1.0000 0.45320  0.53768  0.62410  Biso   1.000  C
  C32      1.0000 0.38470  0.63716  0.85510  Biso   1.000  C
  N1       1.0000 0.22190  0.34073  0.41080  Biso   1.000  N
  N2       1.0000 0.19200  0.39046  0.56543  Biso   1.000  N
  N3       1.0000 0.08560  0.54228  0.77320  Biso   1.000  N
  N4       1.0000 0.03990  0.64661  0.82979  Biso   1.000  N
  N5       1.0000 0.77810  0.15927  0.41080  Biso   1.000  N
  N6       1.0000 0.80800  0.10954  0.56543  Biso   1.000  N
  N7       1.0000 0.91440  0.95772  0.77320  Biso   1.000  N
  N8       1.0000 0.96010  0.85339  0.82979  Biso   1.000  N
  N9       1.0000 0.72190  0.15927  0.08920  Biso   1.000  N
  N10      1.0000 0.69200  0.10954  0.93457  Biso   1.000  N
  N11      1.0000 0.58560  0.95772  0.72680  Biso   1.000  N
  N12      1.0000 0.53990  0.85339  0.67021  Biso   1.000  N
  N13      1.0000 0.27810  0.34073  0.08920  Biso   1.000  N
  N14      1.0000 0.30800  0.39046  0.93457  Biso   1.000  N
  N15      1.0000 0.41440  0.54228  0.72680  Biso   1.000  N
  N16      1.0000 0.46010  0.64661  0.67021  Biso   1.000  N
  Ag9      1.0000 0.85755  0.53521  0.32698  Biso   1.000  Ag
  Ag10     1.0000 0.14245  0.96479  0.32698  Biso   1.000  Ag
  Ag11     1.0000 0.35755  0.96479  0.17302  Biso   1.000  Ag
  Ag12     1.0000 0.64245  0.53521  0.17302  Biso   1.000  Ag
  Ag13     1.0000 0.75000  0.66634  0.75000  Biso   1.000  Ag
  Ag14     1.0000 0.25000  0.83366  0.75000  Biso   1.000  Ag
  Ag15     1.0000 0.00000  0.25000  0.17042  Biso   1.000  Ag
  Ag16     1.0000 0.50000  0.25000  0.32958  Biso   1.000  Ag
  H41      1.0000 0.78280  0.69980  0.35220  Biso   1.000  H
  H42      1.0000 0.75040  0.75510  0.52370  Biso   1.000  H
  H43      1.0000 0.80870  0.53870  0.66580  Biso   1.000  H
  H44      1.0000 0.74730  0.50280  0.56530  Biso   1.000  H
  H45      1.0000 0.89910  0.51340  0.57250  Biso   1.000  H
  H46      1.0000 0.01150  0.38740  0.02140  Biso   1.000  H
  H47      1.0000 0.95890  0.50310  0.08420  Biso   1.000  H
  H48      1.0000 0.89700  0.31330  0.35470  Biso   1.000  H
  H49      1.0000 0.93910  0.38320  0.40920  Biso   1.000  H
  H50      1.0000 0.79460  0.37320  0.36990  Biso   1.000  H
  H51      1.0000 0.21720  0.80020  0.35220  Biso   1.000  H
  H52      1.0000 0.24960  0.74490  0.52370  Biso   1.000  H
  H53      1.0000 0.19130  0.96130  0.66580  Biso   1.000  H
  H54      1.0000 0.25270  0.99720  0.56530  Biso   1.000  H
  H55      1.0000 0.10090  0.98660  0.57250  Biso   1.000  H
  H56      1.0000 0.98850  0.11260  0.02140  Biso   1.000  H
  H57      1.0000 0.04110  0.99690  0.08420  Biso   1.000  H
  H58      1.0000 0.10300  0.18670  0.35470  Biso   1.000  H
  H59      1.0000 0.06090  0.11680  0.40920  Biso   1.000  H
  H60      1.0000 0.20540  0.12680  0.36990  Biso   1.000  H
  H61      1.0000 0.28280  0.80020  0.14780  Biso   1.000  H
  H62      1.0000 0.25040  0.74490  0.97630  Biso   1.000  H
  H63      1.0000 0.30870  0.96130  0.83420  Biso   1.000  H
  H64      1.0000 0.24730  0.99720  0.93470  Biso   1.000  H
  H65      1.0000 0.39910  0.98660  0.92750  Biso   1.000  H
  H66      1.0000 0.51150  0.11260  0.47860  Biso   1.000  H
  H67      1.0000 0.45890  0.99690  0.41580  Biso   1.000  H
  H68      1.0000 0.39700  0.18670  0.14530  Biso   1.000  H
  H69      1.0000 0.43910  0.11680  0.09080  Biso   1.000  H
  H70      1.0000 0.29460  0.12680  0.13010  Biso   1.000  H
  H71      1.0000 0.71720  0.69980  0.14780  Biso   1.000  H
  H72      1.0000 0.74960  0.75510  0.97630  Biso   1.000  H
  H73      1.0000 0.69130  0.53870  0.83420  Biso   1.000  H
  H74      1.0000 0.75270  0.50280  0.93470  Biso   1.000  H
  H75      1.0000 0.60090  0.51340  0.92750  Biso   1.000  H
  H76      1.0000 0.48850  0.38740  0.47860  Biso   1.000  H
  H77      1.0000 0.54110  0.50310  0.41580  Biso   1.000  H
  H78      1.0000 0.60300  0.31330  0.14530  Biso   1.000  H
  H79      1.0000 0.56090  0.38320  0.09080  Biso   1.000  H
  H80      1.0000 0.70540  0.37320  0.13010  Biso   1.000  H
  C33      1.0000 0.80230  0.60075  0.53820  Biso   1.000  C
  C34      1.0000 0.78540  0.67773  0.41830  Biso   1.000  C
  C35      1.0000 0.76740  0.70814  0.51260  Biso   1.000  C
  C36      1.0000 0.81550  0.53315  0.58990  Biso   1.000  C
  C37      1.0000 0.92030  0.39134  0.25077  Biso   1.000  C
  C38      1.0000 0.98170  0.39879  0.08940  Biso   1.000  C
  C39      1.0000 0.95320  0.46232  0.12410  Biso   1.000  C
  C40      1.0000 0.88470  0.36284  0.35510  Biso   1.000  C
  C41      1.0000 0.19770  0.89925  0.53820  Biso   1.000  C
  C42      1.0000 0.21460  0.82227  0.41830  Biso   1.000  C
  C43      1.0000 0.23260  0.79186  0.51260  Biso   1.000  C
  C44      1.0000 0.18450  0.96685  0.58990  Biso   1.000  C
  C45      1.0000 0.07970  0.10866  0.25077  Biso   1.000  C
  C46      1.0000 0.01830  0.10121  0.08940  Biso   1.000  C
  C47      1.0000 0.04680  0.03768  0.12410  Biso   1.000  C
  C48      1.0000 0.11530  0.13716  0.35510  Biso   1.000  C
  C49      1.0000 0.30230  0.89925  0.96180  Biso   1.000  C
  C50      1.0000 0.28540  0.82227  0.08170  Biso   1.000  C
  C51      1.0000 0.26740  0.79186  0.98740  Biso   1.000  C
  C52      1.0000 0.31550  0.96685  0.91010  Biso   1.000  C
  C53      1.0000 0.42030  0.10866  0.24923  Biso   1.000  C
  C54      1.0000 0.48170  0.10121  0.41060  Biso   1.000  C
  C55      1.0000 0.45320  0.03768  0.37590  Biso   1.000  C
  C56      1.0000 0.38470  0.13716  0.14490  Biso   1.000  C
  C57      1.0000 0.69770  0.60075  0.96180  Biso   1.000  C
  C58      1.0000 0.71460  0.67773  0.08170  Biso   1.000  C
  C59      1.0000 0.73260  0.70814  0.98740  Biso   1.000  C
  C60      1.0000 0.68450  0.53315  0.91010  Biso   1.000  C
  C61      1.0000 0.57970  0.39134  0.24923  Biso   1.000  C
  C62      1.0000 0.51830  0.39879  0.41060  Biso   1.000  C
  C63      1.0000 0.54680  0.46232  0.37590  Biso   1.000  C
  C64      1.0000 0.61530  0.36284  0.14490  Biso   1.000  C
  N17      1.0000 0.77810  0.65927  0.58920  Biso   1.000  N
  N18      1.0000 0.80800  0.60954  0.43457  Biso   1.000  N
  N19      1.0000 0.91440  0.45772  0.22680  Biso   1.000  N
  N20      1.0000 0.96010  0.35339  0.17021  Biso   1.000  N
  N21      1.0000 0.22190  0.84073  0.58920  Biso   1.000  N
  N22      1.0000 0.19200  0.89046  0.43457  Biso   1.000  N
  N23      1.0000 0.08560  0.04228  0.22680  Biso   1.000  N
  N24      1.0000 0.03990  0.14661  0.17021  Biso   1.000  N
  N25      1.0000 0.27810  0.84073  0.91080  Biso   1.000  N
  N26      1.0000 0.30800  0.89046  0.06543  Biso   1.000  N
  N27      1.0000 0.41440  0.04228  0.27320  Biso   1.000  N
  N28      1.0000 0.46010  0.14661  0.32979  Biso   1.000  N
  N29      1.0000 0.72190  0.65927  0.91080  Biso   1.000  N
  N30      1.0000 0.69200  0.60954  0.06543  Biso   1.000  N
  N31      1.0000 0.58560  0.45772  0.27320  Biso   1.000  N
  N32      1.0000 0.53990  0.35339  0.32979  Biso   1.000  N
