data_image0
_cell_length_a       11.1137
_cell_length_b       12.6836
_cell_length_c       19.726
_cell_angle_alpha    90
_cell_angle_beta     90
_cell_angle_gamma    101.835

_symmetry_space_group_name_H-M    P 1
_symmetry_int_tables_number       1

loop_
  _symmetry_equiv_pos_as_xyz
  'x, y, z'

loop_
  _atom_site_label
  _atom_site_occupancy
  _atom_site_fract_x
  _atom_site_fract_y
  _atom_site_fract_z
  _atom_site_thermal_displace_type
  _atom_site_B_iso_or_equiv
  _atom_site_type_symbol
  Ag1      1.0000 0.64230  0.65442  0.04760  Biso   1.000  Ag
  Ag2      1.0000 0.76515  0.24512  0.16705  Biso   1.000  Ag
  Ag3      1.0000 0.85890  0.84004  0.02988  Biso   1.000  Ag
  Ag4      1.0000 0.48587  0.76418  0.76511  Biso   1.000  Ag
  Ag5      1.0000 0.85770  0.34558  0.54760  Biso   1.000  Ag
  Ag6      1.0000 0.73485  0.75488  0.66705  Biso   1.000  Ag
  Ag7      1.0000 0.64110  0.15996  0.52988  Biso   1.000  Ag
  Ag8      1.0000 0.01413  0.23582  0.26511  Biso   1.000  Ag
  Ag9      1.0000 0.35770  0.34558  0.95240  Biso   1.000  Ag
  Ag10     1.0000 0.23485  0.75488  0.83295  Biso   1.000  Ag
  Ag11     1.0000 0.14110  0.15996  0.97012  Biso   1.000  Ag
  Ag12     1.0000 0.51413  0.23582  0.23489  Biso   1.000  Ag
  Ag13     1.0000 0.14230  0.65442  0.45240  Biso   1.000  Ag
  Ag14     1.0000 0.26515  0.24512  0.33295  Biso   1.000  Ag
  Ag15     1.0000 0.35890  0.84004  0.47012  Biso   1.000  Ag
  Ag16     1.0000 0.98587  0.76418  0.73489  Biso   1.000  Ag
  H1       1.0000 0.68370  0.62410  0.21350  Biso   1.000  H
  H2       1.0000 0.73200  0.45910  0.26290  Biso   1.000  H
  H3       1.0000 0.70950  0.45980  0.00320  Biso   1.000  H
  H4       1.0000 0.80860  0.39410  0.02990  Biso   1.000  H
  H5       1.0000 0.66500  0.34150  0.03400  Biso   1.000  H
  H6       1.0000 0.80050  0.02450  0.25570  Biso   1.000  H
  H7       1.0000 0.84430  0.86210  0.20040  Biso   1.000  H
  H8       1.0000 0.77010  0.15770  0.03760  Biso   1.000  H
  H9       1.0000 0.86680  0.09230  0.00760  Biso   1.000  H
  H10      1.0000 0.72290  0.04050  0.00580  Biso   1.000  H
  H11      1.0000 0.44930  0.61550  0.52410  Biso   1.000  H
  H12      1.0000 0.48790  0.58360  0.64540  Biso   1.000  H
  H13      1.0000 0.34920  0.93650  0.59420  Biso   1.000  H
  H14      1.0000 0.44130  0.94960  0.65740  Biso   1.000  H
  H15      1.0000 0.30100  0.88930  0.66680  Biso   1.000  H
  H16      1.0000 0.53850  0.88010  0.01460  Biso   1.000  H
  H17      1.0000 0.48380  0.92840  0.89840  Biso   1.000  H
  H18      1.0000 0.60020  0.61390  0.82850  Biso   1.000  H
  H19      1.0000 0.55930  0.55420  0.89880  Biso   1.000  H
  H20      1.0000 0.69800  0.61780  0.88850  Biso   1.000  H
  H21      1.0000 0.81630  0.37590  0.71350  Biso   1.000  H
  H22      1.0000 0.76800  0.54090  0.76290  Biso   1.000  H
  H23      1.0000 0.79050  0.54020  0.50320  Biso   1.000  H
  H24      1.0000 0.69140  0.60590  0.52990  Biso   1.000  H
  H25      1.0000 0.83500  0.65850  0.53400  Biso   1.000  H
  H26      1.0000 0.69950  0.97550  0.75570  Biso   1.000  H
  H27      1.0000 0.65570  0.13790  0.70040  Biso   1.000  H
  H28      1.0000 0.72990  0.84230  0.53760  Biso   1.000  H
  H29      1.0000 0.63320  0.90770  0.50760  Biso   1.000  H
  H30      1.0000 0.77710  0.95950  0.50580  Biso   1.000  H
  H31      1.0000 0.05070  0.38450  0.02410  Biso   1.000  H
  H32      1.0000 0.01210  0.41640  0.14540  Biso   1.000  H
  H33      1.0000 0.15080  0.06350  0.09420  Biso   1.000  H
  H34      1.0000 0.05870  0.05040  0.15740  Biso   1.000  H
  H35      1.0000 0.19900  0.11070  0.16680  Biso   1.000  H
  H36      1.0000 0.96150  0.11990  0.51460  Biso   1.000  H
  H37      1.0000 0.01620  0.07160  0.39840  Biso   1.000  H
  H38      1.0000 0.89980  0.38610  0.32850  Biso   1.000  H
  H39      1.0000 0.94070  0.44580  0.39880  Biso   1.000  H
  H40      1.0000 0.80200  0.38220  0.38850  Biso   1.000  H
  H41      1.0000 0.31630  0.37590  0.78650  Biso   1.000  H
  H42      1.0000 0.26800  0.54090  0.73710  Biso   1.000  H
  H43      1.0000 0.29050  0.54020  0.99680  Biso   1.000  H
  H44      1.0000 0.19140  0.60590  0.97010  Biso   1.000  H
  H45      1.0000 0.33500  0.65850  0.96600  Biso   1.000  H
  H46      1.0000 0.19950  0.97550  0.74430  Biso   1.000  H
  H47      1.0000 0.15570  0.13790  0.79960  Biso   1.000  H
  H48      1.0000 0.22990  0.84230  0.96240  Biso   1.000  H
  H49      1.0000 0.13320  0.90770  0.99240  Biso   1.000  H
  H50      1.0000 0.27710  0.95950  0.99420  Biso   1.000  H
  H51      1.0000 0.55070  0.38450  0.47590  Biso   1.000  H
  H52      1.0000 0.51210  0.41640  0.35460  Biso   1.000  H
  H53      1.0000 0.65080  0.06350  0.40580  Biso   1.000  H
  H54      1.0000 0.55870  0.05040  0.34260  Biso   1.000  H
  H55      1.0000 0.69900  0.11070  0.33320  Biso   1.000  H
  H56      1.0000 0.46150  0.11990  0.98540  Biso   1.000  H
  H57      1.0000 0.51620  0.07160  0.10160  Biso   1.000  H
  H58      1.0000 0.39980  0.38610  0.17150  Biso   1.000  H
  H59      1.0000 0.44070  0.44580  0.10120  Biso   1.000  H
  H60      1.0000 0.30200  0.38220  0.11150  Biso   1.000  H
  H61      1.0000 0.18370  0.62410  0.28650  Biso   1.000  H
  H62      1.0000 0.23200  0.45910  0.23710  Biso   1.000  H
  H63      1.0000 0.20950  0.45980  0.49680  Biso   1.000  H
  H64      1.0000 0.30860  0.39410  0.47010  Biso   1.000  H
  H65      1.0000 0.16500  0.34150  0.46600  Biso   1.000  H
  H66      1.0000 0.30050  0.02450  0.24430  Biso   1.000  H
  H67      1.0000 0.34430  0.86210  0.29960  Biso   1.000  H
  H68      1.0000 0.27010  0.15770  0.46240  Biso   1.000  H
  H69      1.0000 0.36680  0.09230  0.49240  Biso   1.000  H
  H70      1.0000 0.22290  0.04050  0.49420  Biso   1.000  H
  H71      1.0000 0.94930  0.61550  0.97590  Biso   1.000  H
  H72      1.0000 0.98790  0.58360  0.85460  Biso   1.000  H
  H73      1.0000 0.84920  0.93650  0.90580  Biso   1.000  H
  H74      1.0000 0.94130  0.94960  0.84260  Biso   1.000  H
  H75      1.0000 0.80100  0.88930  0.83320  Biso   1.000  H
  H76      1.0000 0.03850  0.88010  0.48540  Biso   1.000  H
  H77      1.0000 0.98380  0.92840  0.60160  Biso   1.000  H
  H78      1.0000 0.10020  0.61390  0.67150  Biso   1.000  H
  H79      1.0000 0.05930  0.55420  0.60120  Biso   1.000  H
  H80      1.0000 0.19800  0.61780  0.61150  Biso   1.000  H
  C1       1.0000 0.72060  0.45620  0.10650  Biso   1.000  C
  C2       1.0000 0.69800  0.56350  0.18870  Biso   1.000  C
  C3       1.0000 0.72490  0.47300  0.21590  Biso   1.000  C
  C4       1.0000 0.72640  0.40880  0.03740  Biso   1.000  C
  C5       1.0000 0.79850  0.03670  0.09980  Biso   1.000  C
  C6       1.0000 0.80370  0.01320  0.20820  Biso   1.000  C
  C7       1.0000 0.82750  0.92370  0.17780  Biso   1.000  C
  C8       1.0000 0.78880  0.08600  0.03190  Biso   1.000  C
  C9       1.0000 0.40520  0.79730  0.61810  Biso   1.000  C
  C10      1.0000 0.44060  0.66220  0.56060  Biso   1.000  C
  C11      1.0000 0.46190  0.64470  0.62730  Biso   1.000  C
  C12      1.0000 0.37130  0.90220  0.63560  Biso   1.000  C
  C13      1.0000 0.57810  0.71740  0.90460  Biso   1.000  C
  C14      1.0000 0.54440  0.83980  0.97460  Biso   1.000  C
  C15      1.0000 0.51450  0.86630  0.91050  Biso   1.000  C
  C16      1.0000 0.61180  0.61720  0.87780  Biso   1.000  C
  C17      1.0000 0.77940  0.54380  0.60650  Biso   1.000  C
  C18      1.0000 0.80200  0.43650  0.68870  Biso   1.000  C
  C19      1.0000 0.77510  0.52700  0.71590  Biso   1.000  C
  C20      1.0000 0.77360  0.59120  0.53740  Biso   1.000  C
  C21      1.0000 0.70150  0.96330  0.59980  Biso   1.000  C
  C22      1.0000 0.69630  0.98680  0.70820  Biso   1.000  C
  C23      1.0000 0.67250  0.07630  0.67780  Biso   1.000  C
  C24      1.0000 0.71120  0.91400  0.53190  Biso   1.000  C
  C25      1.0000 0.09480  0.20270  0.11810  Biso   1.000  C
  C26      1.0000 0.05940  0.33780  0.06060  Biso   1.000  C
  C27      1.0000 0.03810  0.35530  0.12730  Biso   1.000  C
  C28      1.0000 0.12870  0.09780  0.13560  Biso   1.000  C
  C29      1.0000 0.92190  0.28260  0.40460  Biso   1.000  C
  C30      1.0000 0.95560  0.16020  0.47460  Biso   1.000  C
  C31      1.0000 0.98550  0.13370  0.41050  Biso   1.000  C
  C32      1.0000 0.88820  0.38280  0.37780  Biso   1.000  C
  C33      1.0000 0.27940  0.54380  0.89350  Biso   1.000  C
  C34      1.0000 0.30200  0.43650  0.81130  Biso   1.000  C
  C35      1.0000 0.27510  0.52700  0.78410  Biso   1.000  C
  C36      1.0000 0.27360  0.59120  0.96260  Biso   1.000  C
  C37      1.0000 0.20150  0.96330  0.90020  Biso   1.000  C
  C38      1.0000 0.19630  0.98680  0.79180  Biso   1.000  C
  C39      1.0000 0.17250  0.07630  0.82220  Biso   1.000  C
  C40      1.0000 0.21120  0.91400  0.96810  Biso   1.000  C
  C41      1.0000 0.59480  0.20270  0.38190  Biso   1.000  C
  C42      1.0000 0.55940  0.33780  0.43940  Biso   1.000  C
  C43      1.0000 0.53810  0.35530  0.37270  Biso   1.000  C
  C44      1.0000 0.62870  0.09780  0.36440  Biso   1.000  C
  C45      1.0000 0.42190  0.28260  0.09540  Biso   1.000  C
  C46      1.0000 0.45560  0.16020  0.02540  Biso   1.000  C
  C47      1.0000 0.48550  0.13370  0.08950  Biso   1.000  C
  C48      1.0000 0.38820  0.38280  0.12220  Biso   1.000  C
  C49      1.0000 0.22060  0.45620  0.39350  Biso   1.000  C
  C50      1.0000 0.19800  0.56350  0.31130  Biso   1.000  C
  C51      1.0000 0.22490  0.47300  0.28410  Biso   1.000  C
  C52      1.0000 0.22640  0.40880  0.46260  Biso   1.000  C
  C53      1.0000 0.29850  0.03670  0.40020  Biso   1.000  C
  C54      1.0000 0.30370  0.01320  0.29180  Biso   1.000  C
  C55      1.0000 0.32750  0.92370  0.32220  Biso   1.000  C
  C56      1.0000 0.28880  0.08600  0.46810  Biso   1.000  C
  C57      1.0000 0.90520  0.79730  0.88190  Biso   1.000  C
  C58      1.0000 0.94060  0.66220  0.93940  Biso   1.000  C
  C59      1.0000 0.96190  0.64470  0.87270  Biso   1.000  C
  C60      1.0000 0.87130  0.90220  0.86440  Biso   1.000  C
  C61      1.0000 0.07810  0.71740  0.59540  Biso   1.000  C
  C62      1.0000 0.04440  0.83980  0.52540  Biso   1.000  C
  C63      1.0000 0.01450  0.86630  0.58950  Biso   1.000  C
  C64      1.0000 0.11180  0.61720  0.62220  Biso   1.000  C
  N1       1.0000 0.69470  0.55290  0.11890  Biso   1.000  N
  N2       1.0000 0.74030  0.40430  0.16370  Biso   1.000  N
  N3       1.0000 0.78500  0.08540  0.15870  Biso   1.000  N
  N4       1.0000 0.82320  0.93750  0.10820  Biso   1.000  N
  N5       1.0000 0.40440  0.75910  0.55540  Biso   1.000  N
  N6       1.0000 0.43910  0.73110  0.66400  Biso   1.000  N
  N7       1.0000 0.53580  0.78910  0.86700  Biso   1.000  N
  N8       1.0000 0.58470  0.74450  0.97080  Biso   1.000  N
  N9       1.0000 0.80530  0.44710  0.61890  Biso   1.000  N
  N10      1.0000 0.75970  0.59570  0.66370  Biso   1.000  N
  N11      1.0000 0.71500  0.91460  0.65870  Biso   1.000  N
  N12      1.0000 0.67680  0.06250  0.60820  Biso   1.000  N
  N13      1.0000 0.09560  0.24090  0.05540  Biso   1.000  N
  N14      1.0000 0.06090  0.26890  0.16400  Biso   1.000  N
  N15      1.0000 0.96420  0.21090  0.36700  Biso   1.000  N
  N16      1.0000 0.91530  0.25550  0.47080  Biso   1.000  N
  N17      1.0000 0.30530  0.44710  0.88110  Biso   1.000  N
  N18      1.0000 0.25970  0.59570  0.83630  Biso   1.000  N
  N19      1.0000 0.21500  0.91460  0.84130  Biso   1.000  N
  N20      1.0000 0.17680  0.06250  0.89180  Biso   1.000  N
  N21      1.0000 0.59560  0.24090  0.44460  Biso   1.000  N
  N22      1.0000 0.56090  0.26890  0.33600  Biso   1.000  N
  N23      1.0000 0.46420  0.21090  0.13300  Biso   1.000  N
  N24      1.0000 0.41530  0.25550  0.02920  Biso   1.000  N
  N25      1.0000 0.19470  0.55290  0.38110  Biso   1.000  N
  N26      1.0000 0.24030  0.40430  0.33630  Biso   1.000  N
  N27      1.0000 0.28500  0.08540  0.34130  Biso   1.000  N
  N28      1.0000 0.32320  0.93750  0.39180  Biso   1.000  N
  N29      1.0000 0.90440  0.75910  0.94460  Biso   1.000  N
  N30      1.0000 0.93910  0.73110  0.83600  Biso   1.000  N
  N31      1.0000 0.03580  0.78910  0.63300  Biso   1.000  N
  N32      1.0000 0.08470  0.74450  0.52920  Biso   1.000  N
