data_image0
_cell_length_a       13.6929
_cell_length_b       13.6929
_cell_length_c       50.664
_cell_angle_alpha    90
_cell_angle_beta     90
_cell_angle_gamma    90

_symmetry_space_group_name_H-M    P 1
_symmetry_int_tables_number       1

loop_
  _symmetry_equiv_pos_as_xyz
  'x, y, z'

loop_
  _atom_site_label
  _atom_site_occupancy
  _atom_site_fract_x
  _atom_site_fract_y
  _atom_site_fract_z
  _atom_site_thermal_displace_type
  _atom_site_B_iso_or_equiv
  _atom_site_type_symbol
  Zn1      1.0000 0.99525  0.58451  0.88233  Biso   1.000  Zn
  Zn2      1.0000 0.36198  0.48799  0.75532  Biso   1.000  Zn
  Zn3      1.0000 0.94603  0.73103  0.83189  Biso   1.000  Zn
  Zn4      1.0000 0.00475  0.41549  0.38233  Biso   1.000  Zn
  Zn5      1.0000 0.63802  0.51201  0.25532  Biso   1.000  Zn
  Zn6      1.0000 0.05397  0.26897  0.33189  Biso   1.000  Zn
  Zn7      1.0000 0.91549  0.49525  0.63233  Biso   1.000  Zn
  Zn8      1.0000 0.01201  0.86198  0.50532  Biso   1.000  Zn
  Zn9      1.0000 0.76897  0.44603  0.58189  Biso   1.000  Zn
  Zn10     1.0000 0.08451  0.50475  0.13233  Biso   1.000  Zn
  Zn11     1.0000 0.98799  0.13802  0.00532  Biso   1.000  Zn
  Zn12     1.0000 0.23103  0.55397  0.08189  Biso   1.000  Zn
  Zn13     1.0000 0.50475  0.08451  0.86767  Biso   1.000  Zn
  Zn14     1.0000 0.13802  0.98799  0.99468  Biso   1.000  Zn
  Zn15     1.0000 0.55397  0.23103  0.91811  Biso   1.000  Zn
  Zn16     1.0000 0.49525  0.91549  0.36767  Biso   1.000  Zn
  Zn17     1.0000 0.86198  0.01201  0.49468  Biso   1.000  Zn
  Zn18     1.0000 0.44603  0.76897  0.41811  Biso   1.000  Zn
  Zn19     1.0000 0.58451  0.99525  0.11767  Biso   1.000  Zn
  Zn20     1.0000 0.48799  0.36198  0.24468  Biso   1.000  Zn
  Zn21     1.0000 0.73103  0.94603  0.16811  Biso   1.000  Zn
  Zn22     1.0000 0.41549  0.00475  0.61767  Biso   1.000  Zn
  Zn23     1.0000 0.51201  0.63802  0.74468  Biso   1.000  Zn
  Zn24     1.0000 0.26897  0.05397  0.66811  Biso   1.000  Zn
  H1       1.0000 0.25680  0.83620  0.87440  Biso   1.000  H
  H2       1.0000 0.42710  0.83690  0.81010  Biso   1.000  H
  H3       1.0000 0.21270  0.63920  0.81670  Biso   1.000  H
  H4       1.0000 0.96210  0.83960  0.93470  Biso   1.000  H
  H5       1.0000 0.77930  0.06140  0.94630  Biso   1.000  H
  H6       1.0000 0.73350  0.87450  0.88630  Biso   1.000  H
  H7       1.0000 0.02100  0.88030  0.87340  Biso   1.000  H
  H8       1.0000 0.12460  0.00760  0.82300  Biso   1.000  H
  H9       1.0000 0.12310  0.10390  0.83970  Biso   1.000  H
  H10      1.0000 0.21350  0.03380  0.84110  Biso   1.000  H
  H11      1.0000 0.09170  0.98470  0.89900  Biso   1.000  H
  H12      1.0000 0.19290  0.02090  0.88830  Biso   1.000  H
  H13      1.0000 0.10170  0.08990  0.88710  Biso   1.000  H
  H14      1.0000 0.82570  0.91200  0.82990  Biso   1.000  H
  H15      1.0000 0.70350  0.79500  0.78390  Biso   1.000  H
  H16      1.0000 0.60470  0.84100  0.79340  Biso   1.000  H
  H17      1.0000 0.66360  0.88970  0.77030  Biso   1.000  H
  H18      1.0000 0.72090  0.03650  0.82570  Biso   1.000  H
  H19      1.0000 0.67390  0.04770  0.79760  Biso   1.000  H
  H20      1.0000 0.61550  0.99650  0.82040  Biso   1.000  H
  H21      1.0000 0.16290  0.49350  0.77000  Biso   1.000  H
  H22      1.0000 0.22860  0.29660  0.80260  Biso   1.000  H
  H23      1.0000 0.18600  0.33600  0.82920  Biso   1.000  H
  H24      1.0000 0.12280  0.26740  0.81130  Biso   1.000  H
  H25      1.0000 0.02520  0.50430  0.79390  Biso   1.000  H
  H26      1.0000 0.98950  0.40570  0.80630  Biso   1.000  H
  H27      1.0000 0.05070  0.47910  0.82330  Biso   1.000  H
  H28      1.0000 0.74320  0.16380  0.37440  Biso   1.000  H
  H29      1.0000 0.57290  0.16310  0.31010  Biso   1.000  H
  H30      1.0000 0.78730  0.36080  0.31670  Biso   1.000  H
  H31      1.0000 0.03790  0.16040  0.43470  Biso   1.000  H
  H32      1.0000 0.22070  0.93860  0.44630  Biso   1.000  H
  H33      1.0000 0.26650  0.12550  0.38630  Biso   1.000  H
  H34      1.0000 0.97900  0.11970  0.37340  Biso   1.000  H
  H35      1.0000 0.87540  0.99240  0.32300  Biso   1.000  H
  H36      1.0000 0.87690  0.89610  0.33970  Biso   1.000  H
  H37      1.0000 0.78650  0.96620  0.34110  Biso   1.000  H
  H38      1.0000 0.90830  0.01530  0.39900  Biso   1.000  H
  H39      1.0000 0.80710  0.97910  0.38830  Biso   1.000  H
  H40      1.0000 0.89830  0.91010  0.38710  Biso   1.000  H
  H41      1.0000 0.17430  0.08800  0.32990  Biso   1.000  H
  H42      1.0000 0.29650  0.20500  0.28390  Biso   1.000  H
  H43      1.0000 0.39530  0.15900  0.29340  Biso   1.000  H
  H44      1.0000 0.33640  0.11030  0.27030  Biso   1.000  H
  H45      1.0000 0.27910  0.96350  0.32570  Biso   1.000  H
  H46      1.0000 0.32610  0.95230  0.29760  Biso   1.000  H
  H47      1.0000 0.38450  0.00350  0.32040  Biso   1.000  H
  H48      1.0000 0.83710  0.50650  0.27000  Biso   1.000  H
  H49      1.0000 0.77140  0.70340  0.30260  Biso   1.000  H
  H50      1.0000 0.81400  0.66400  0.32920  Biso   1.000  H
  H51      1.0000 0.87720  0.73260  0.31130  Biso   1.000  H
  H52      1.0000 0.97480  0.49570  0.29390  Biso   1.000  H
  H53      1.0000 0.01050  0.59430  0.30630  Biso   1.000  H
  H54      1.0000 0.94930  0.52090  0.32330  Biso   1.000  H
  H55      1.0000 0.66380  0.75680  0.62440  Biso   1.000  H
  H56      1.0000 0.66310  0.92710  0.56010  Biso   1.000  H
  H57      1.0000 0.86080  0.71270  0.56670  Biso   1.000  H
  H58      1.0000 0.66040  0.46210  0.68470  Biso   1.000  H
  H59      1.0000 0.43860  0.27930  0.69630  Biso   1.000  H
  H60      1.0000 0.62550  0.23350  0.63630  Biso   1.000  H
  H61      1.0000 0.61970  0.52100  0.62340  Biso   1.000  H
  H62      1.0000 0.49240  0.62460  0.57300  Biso   1.000  H
  H63      1.0000 0.39610  0.62310  0.58970  Biso   1.000  H
  H64      1.0000 0.46620  0.71350  0.59110  Biso   1.000  H
  H65      1.0000 0.51530  0.59170  0.64900  Biso   1.000  H
  H66      1.0000 0.47910  0.69290  0.63830  Biso   1.000  H
  H67      1.0000 0.41010  0.60170  0.63710  Biso   1.000  H
  H68      1.0000 0.58800  0.32570  0.57990  Biso   1.000  H
  H69      1.0000 0.70500  0.20350  0.53390  Biso   1.000  H
  H70      1.0000 0.65900  0.10470  0.54340  Biso   1.000  H
  H71      1.0000 0.61030  0.16360  0.52030  Biso   1.000  H
  H72      1.0000 0.46350  0.22090  0.57570  Biso   1.000  H
  H73      1.0000 0.45230  0.17390  0.54760  Biso   1.000  H
  H74      1.0000 0.50350  0.11550  0.57040  Biso   1.000  H
  H75      1.0000 0.00650  0.66290  0.52000  Biso   1.000  H
  H76      1.0000 0.20340  0.72860  0.55260  Biso   1.000  H
  H77      1.0000 0.16400  0.68600  0.57920  Biso   1.000  H
  H78      1.0000 0.23260  0.62280  0.56130  Biso   1.000  H
  H79      1.0000 0.99570  0.52520  0.54390  Biso   1.000  H
  H80      1.0000 0.09430  0.48950  0.55630  Biso   1.000  H
  H81      1.0000 0.02090  0.55070  0.57330  Biso   1.000  H
  H82      1.0000 0.33620  0.24320  0.12440  Biso   1.000  H
  H83      1.0000 0.33690  0.07290  0.06010  Biso   1.000  H
  H84      1.0000 0.13920  0.28730  0.06670  Biso   1.000  H
  H85      1.0000 0.33960  0.53790  0.18470  Biso   1.000  H
  H86      1.0000 0.56140  0.72070  0.19630  Biso   1.000  H
  H87      1.0000 0.37450  0.76650  0.13630  Biso   1.000  H
  H88      1.0000 0.38030  0.47900  0.12340  Biso   1.000  H
  H89      1.0000 0.50760  0.37540  0.07300  Biso   1.000  H
  H90      1.0000 0.60390  0.37690  0.08970  Biso   1.000  H
  H91      1.0000 0.53380  0.28650  0.09110  Biso   1.000  H
  H92      1.0000 0.48470  0.40830  0.14900  Biso   1.000  H
  H93      1.0000 0.52090  0.30710  0.13830  Biso   1.000  H
  H94      1.0000 0.58990  0.39830  0.13710  Biso   1.000  H
  H95      1.0000 0.41200  0.67430  0.07990  Biso   1.000  H
  H96      1.0000 0.29500  0.79650  0.03390  Biso   1.000  H
  H97      1.0000 0.34100  0.89530  0.04340  Biso   1.000  H
  H98      1.0000 0.38970  0.83640  0.02030  Biso   1.000  H
  H99      1.0000 0.53650  0.77910  0.07570  Biso   1.000  H
  H100     1.0000 0.54770  0.82610  0.04760  Biso   1.000  H
  H101     1.0000 0.49650  0.88450  0.07040  Biso   1.000  H
  H102     1.0000 0.99350  0.33710  0.02000  Biso   1.000  H
  H103     1.0000 0.79660  0.27140  0.05260  Biso   1.000  H
  H104     1.0000 0.83600  0.31400  0.07920  Biso   1.000  H
  H105     1.0000 0.76740  0.37720  0.06130  Biso   1.000  H
  H106     1.0000 0.00430  0.47480  0.04390  Biso   1.000  H
  H107     1.0000 0.90570  0.51050  0.05630  Biso   1.000  H
  H108     1.0000 0.97910  0.44930  0.07330  Biso   1.000  H
  H109     1.0000 0.24320  0.33620  0.87560  Biso   1.000  H
  H110     1.0000 0.07290  0.33690  0.93990  Biso   1.000  H
  H111     1.0000 0.28730  0.13920  0.93330  Biso   1.000  H
  H112     1.0000 0.53790  0.33960  0.81530  Biso   1.000  H
  H113     1.0000 0.72070  0.56140  0.80370  Biso   1.000  H
  H114     1.0000 0.76650  0.37450  0.86370  Biso   1.000  H
  H115     1.0000 0.47900  0.38030  0.87660  Biso   1.000  H
  H116     1.0000 0.37540  0.50760  0.92700  Biso   1.000  H
  H117     1.0000 0.37690  0.60390  0.91030  Biso   1.000  H
  H118     1.0000 0.28650  0.53380  0.90890  Biso   1.000  H
  H119     1.0000 0.40830  0.48470  0.85100  Biso   1.000  H
  H120     1.0000 0.30710  0.52090  0.86170  Biso   1.000  H
  H121     1.0000 0.39830  0.58990  0.86290  Biso   1.000  H
  H122     1.0000 0.67430  0.41200  0.92010  Biso   1.000  H
  H123     1.0000 0.79650  0.29500  0.96610  Biso   1.000  H
  H124     1.0000 0.89530  0.34100  0.95660  Biso   1.000  H
  H125     1.0000 0.83640  0.38970  0.97970  Biso   1.000  H
  H126     1.0000 0.77910  0.53650  0.92430  Biso   1.000  H
  H127     1.0000 0.82610  0.54770  0.95240  Biso   1.000  H
  H128     1.0000 0.88450  0.49650  0.92960  Biso   1.000  H
  H129     1.0000 0.33710  0.99350  0.98000  Biso   1.000  H
  H130     1.0000 0.27140  0.79660  0.94740  Biso   1.000  H
  H131     1.0000 0.31400  0.83600  0.92080  Biso   1.000  H
  H132     1.0000 0.37720  0.76740  0.93870  Biso   1.000  H
  H133     1.0000 0.47480  0.00430  0.95610  Biso   1.000  H
  H134     1.0000 0.51050  0.90570  0.94370  Biso   1.000  H
  H135     1.0000 0.44930  0.97910  0.92670  Biso   1.000  H
  H136     1.0000 0.75680  0.66380  0.37560  Biso   1.000  H
  H137     1.0000 0.92710  0.66310  0.43990  Biso   1.000  H
  H138     1.0000 0.71270  0.86080  0.43330  Biso   1.000  H
  H139     1.0000 0.46210  0.66040  0.31530  Biso   1.000  H
  H140     1.0000 0.27930  0.43860  0.30370  Biso   1.000  H
  H141     1.0000 0.23350  0.62550  0.36370  Biso   1.000  H
  H142     1.0000 0.52100  0.61970  0.37660  Biso   1.000  H
  H143     1.0000 0.62460  0.49240  0.42700  Biso   1.000  H
  H144     1.0000 0.62310  0.39610  0.41030  Biso   1.000  H
  H145     1.0000 0.71350  0.46620  0.40890  Biso   1.000  H
  H146     1.0000 0.59170  0.51530  0.35100  Biso   1.000  H
  H147     1.0000 0.69290  0.47910  0.36170  Biso   1.000  H
  H148     1.0000 0.60170  0.41010  0.36290  Biso   1.000  H
  H149     1.0000 0.32570  0.58800  0.42010  Biso   1.000  H
  H150     1.0000 0.20350  0.70500  0.46610  Biso   1.000  H
  H151     1.0000 0.10470  0.65900  0.45660  Biso   1.000  H
  H152     1.0000 0.16360  0.61030  0.47970  Biso   1.000  H
  H153     1.0000 0.22090  0.46350  0.42430  Biso   1.000  H
  H154     1.0000 0.17390  0.45230  0.45240  Biso   1.000  H
  H155     1.0000 0.11550  0.50350  0.42960  Biso   1.000  H
  H156     1.0000 0.66290  0.00650  0.48000  Biso   1.000  H
  H157     1.0000 0.72860  0.20340  0.44740  Biso   1.000  H
  H158     1.0000 0.68600  0.16400  0.42080  Biso   1.000  H
  H159     1.0000 0.62280  0.23260  0.43870  Biso   1.000  H
  H160     1.0000 0.52520  0.99570  0.45610  Biso   1.000  H
  H161     1.0000 0.48950  0.09430  0.44370  Biso   1.000  H
  H162     1.0000 0.55070  0.02090  0.42670  Biso   1.000  H
  H163     1.0000 0.83620  0.25680  0.12560  Biso   1.000  H
  H164     1.0000 0.83690  0.42710  0.18990  Biso   1.000  H
  H165     1.0000 0.63920  0.21270  0.18330  Biso   1.000  H
  H166     1.0000 0.83960  0.96210  0.06530  Biso   1.000  H
  H167     1.0000 0.06140  0.77930  0.05370  Biso   1.000  H
  H168     1.0000 0.87450  0.73350  0.11370  Biso   1.000  H
  H169     1.0000 0.88030  0.02100  0.12660  Biso   1.000  H
  H170     1.0000 0.00760  0.12460  0.17700  Biso   1.000  H
  H171     1.0000 0.10390  0.12310  0.16030  Biso   1.000  H
  H172     1.0000 0.03380  0.21350  0.15890  Biso   1.000  H
  H173     1.0000 0.98470  0.09170  0.10100  Biso   1.000  H
  H174     1.0000 0.02090  0.19290  0.11170  Biso   1.000  H
  H175     1.0000 0.08990  0.10170  0.11290  Biso   1.000  H
  H176     1.0000 0.91200  0.82570  0.17010  Biso   1.000  H
  H177     1.0000 0.79500  0.70350  0.21610  Biso   1.000  H
  H178     1.0000 0.84100  0.60470  0.20660  Biso   1.000  H
  H179     1.0000 0.88970  0.66360  0.22970  Biso   1.000  H
  H180     1.0000 0.03650  0.72090  0.17430  Biso   1.000  H
  H181     1.0000 0.04770  0.67390  0.20240  Biso   1.000  H
  H182     1.0000 0.99650  0.61550  0.17960  Biso   1.000  H
  H183     1.0000 0.49350  0.16290  0.23000  Biso   1.000  H
  H184     1.0000 0.29660  0.22860  0.19740  Biso   1.000  H
  H185     1.0000 0.33600  0.18600  0.17080  Biso   1.000  H
  H186     1.0000 0.26740  0.12280  0.18870  Biso   1.000  H
  H187     1.0000 0.50430  0.02520  0.20610  Biso   1.000  H
  H188     1.0000 0.40570  0.98950  0.19370  Biso   1.000  H
  H189     1.0000 0.47910  0.05070  0.17670  Biso   1.000  H
  H190     1.0000 0.16380  0.74320  0.62560  Biso   1.000  H
  H191     1.0000 0.16310  0.57290  0.68990  Biso   1.000  H
  H192     1.0000 0.36080  0.78730  0.68330  Biso   1.000  H
  H193     1.0000 0.16040  0.03790  0.56530  Biso   1.000  H
  H194     1.0000 0.93860  0.22070  0.55370  Biso   1.000  H
  H195     1.0000 0.12550  0.26650  0.61370  Biso   1.000  H
  H196     1.0000 0.11970  0.97900  0.62660  Biso   1.000  H
  H197     1.0000 0.99240  0.87540  0.67700  Biso   1.000  H
  H198     1.0000 0.89610  0.87690  0.66030  Biso   1.000  H
  H199     1.0000 0.96620  0.78650  0.65890  Biso   1.000  H
  H200     1.0000 0.01530  0.90830  0.60100  Biso   1.000  H
  H201     1.0000 0.97910  0.80710  0.61170  Biso   1.000  H
  H202     1.0000 0.91010  0.89830  0.61290  Biso   1.000  H
  H203     1.0000 0.08800  0.17430  0.67010  Biso   1.000  H
  H204     1.0000 0.20500  0.29650  0.71610  Biso   1.000  H
  H205     1.0000 0.15900  0.39530  0.70660  Biso   1.000  H
  H206     1.0000 0.11030  0.33640  0.72970  Biso   1.000  H
  H207     1.0000 0.96350  0.27910  0.67430  Biso   1.000  H
  H208     1.0000 0.95230  0.32610  0.70240  Biso   1.000  H
  H209     1.0000 0.00350  0.38450  0.67960  Biso   1.000  H
  H210     1.0000 0.50650  0.83710  0.73000  Biso   1.000  H
  H211     1.0000 0.70340  0.77140  0.69740  Biso   1.000  H
  H212     1.0000 0.66400  0.81400  0.67080  Biso   1.000  H
  H213     1.0000 0.73260  0.87720  0.68870  Biso   1.000  H
  H214     1.0000 0.49570  0.97480  0.70610  Biso   1.000  H
  H215     1.0000 0.59430  0.01050  0.69370  Biso   1.000  H
  H216     1.0000 0.52090  0.94930  0.67670  Biso   1.000  H
  C1       1.0000 0.13870  0.69200  0.86433  Biso   1.000  C
  C2       1.0000 0.22030  0.73390  0.84762  Biso   1.000  C
  C3       1.0000 0.27290  0.81140  0.85791  Biso   1.000  C
  C4       1.0000 0.34970  0.85240  0.84370  Biso   1.000  C
  C5       1.0000 0.37630  0.80990  0.81983  Biso   1.000  C
  C6       1.0000 0.32860  0.72820  0.81034  Biso   1.000  C
  C7       1.0000 0.24790  0.69130  0.82365  Biso   1.000  C
  C8       1.0000 0.40370  0.93720  0.85474  Biso   1.000  C
  C9       1.0000 0.36540  0.67530  0.78644  Biso   1.000  C
  C10      1.0000 0.88640  0.75570  0.89189  Biso   1.000  C
  C11      1.0000 0.85200  0.84170  0.90806  Biso   1.000  C
  C12      1.0000 0.90710  0.87450  0.92955  Biso   1.000  C
  C13      1.0000 0.88170  0.95610  0.94290  Biso   1.000  C
  C14      1.0000 0.79770  0.00680  0.93652  Biso   1.000  C
  C15      1.0000 0.74020  0.97510  0.91514  Biso   1.000  C
  C16      1.0000 0.76960  0.89410  0.90089  Biso   1.000  C
  C17      1.0000 0.94600  0.99570  0.96540  Biso   1.000  C
  C18      1.0000 0.65140  0.03570  0.90761  Biso   1.000  C
  C19      1.0000 0.04380  0.90850  0.85789  Biso   1.000  C
  C20      1.0000 0.14380  0.03690  0.83937  Biso   1.000  C
  C21      1.0000 0.12350  0.02350  0.88577  Biso   1.000  C
  C22      1.0000 0.79670  0.87470  0.81677  Biso   1.000  C
  C23      1.0000 0.66890  0.85500  0.78670  Biso   1.000  C
  C24      1.0000 0.67910  0.00630  0.81290  Biso   1.000  C
  C25      1.0000 0.18400  0.43630  0.77809  Biso   1.000  C
  C26      1.0000 0.17060  0.31870  0.81140  Biso   1.000  C
  C27      1.0000 0.04150  0.45270  0.80595  Biso   1.000  C
  C28      1.0000 0.86130  0.30800  0.36433  Biso   1.000  C
  C29      1.0000 0.77970  0.26610  0.34762  Biso   1.000  C
  C30      1.0000 0.72710  0.18860  0.35791  Biso   1.000  C
  C31      1.0000 0.65030  0.14760  0.34370  Biso   1.000  C
  C32      1.0000 0.62370  0.19010  0.31983  Biso   1.000  C
  C33      1.0000 0.67140  0.27180  0.31034  Biso   1.000  C
  C34      1.0000 0.75210  0.30870  0.32365  Biso   1.000  C
  C35      1.0000 0.59630  0.06280  0.35474  Biso   1.000  C
  C36      1.0000 0.63460  0.32470  0.28644  Biso   1.000  C
  C37      1.0000 0.11360  0.24430  0.39189  Biso   1.000  C
  C38      1.0000 0.14800  0.15830  0.40806  Biso   1.000  C
  C39      1.0000 0.09290  0.12550  0.42955  Biso   1.000  C
  C40      1.0000 0.11830  0.04390  0.44290  Biso   1.000  C
  C41      1.0000 0.20230  0.99320  0.43652  Biso   1.000  C
  C42      1.0000 0.25980  0.02490  0.41514  Biso   1.000  C
  C43      1.0000 0.23040  0.10590  0.40089  Biso   1.000  C
  C44      1.0000 0.05400  0.00430  0.46540  Biso   1.000  C
  C45      1.0000 0.34860  0.96430  0.40761  Biso   1.000  C
  C46      1.0000 0.95620  0.09150  0.35789  Biso   1.000  C
  C47      1.0000 0.85620  0.96310  0.33937  Biso   1.000  C
  C48      1.0000 0.87650  0.97650  0.38577  Biso   1.000  C
  C49      1.0000 0.20330  0.12530  0.31677  Biso   1.000  C
  C50      1.0000 0.33110  0.14500  0.28670  Biso   1.000  C
  C51      1.0000 0.32090  0.99370  0.31290  Biso   1.000  C
  C52      1.0000 0.81600  0.56370  0.27809  Biso   1.000  C
  C53      1.0000 0.82940  0.68130  0.31140  Biso   1.000  C
  C54      1.0000 0.95850  0.54730  0.30595  Biso   1.000  C
  C55      1.0000 0.80800  0.63870  0.61433  Biso   1.000  C
  C56      1.0000 0.76610  0.72030  0.59762  Biso   1.000  C
  C57      1.0000 0.68860  0.77290  0.60791  Biso   1.000  C
  C58      1.0000 0.64760  0.84970  0.59370  Biso   1.000  C
  C59      1.0000 0.69010  0.87630  0.56983  Biso   1.000  C
  C60      1.0000 0.77180  0.82860  0.56034  Biso   1.000  C
  C61      1.0000 0.80870  0.74790  0.57365  Biso   1.000  C
  C62      1.0000 0.56280  0.90370  0.60474  Biso   1.000  C
  C63      1.0000 0.82470  0.86540  0.53644  Biso   1.000  C
  C64      1.0000 0.74430  0.38640  0.64189  Biso   1.000  C
  C65      1.0000 0.65830  0.35200  0.65806  Biso   1.000  C
  C66      1.0000 0.62550  0.40710  0.67955  Biso   1.000  C
  C67      1.0000 0.54390  0.38170  0.69290  Biso   1.000  C
  C68      1.0000 0.49320  0.29770  0.68652  Biso   1.000  C
  C69      1.0000 0.52490  0.24020  0.66514  Biso   1.000  C
  C70      1.0000 0.60590  0.26960  0.65089  Biso   1.000  C
  C71      1.0000 0.50430  0.44600  0.71540  Biso   1.000  C
  C72      1.0000 0.46430  0.15140  0.65761  Biso   1.000  C
  C73      1.0000 0.59150  0.54380  0.60789  Biso   1.000  C
  C74      1.0000 0.46310  0.64380  0.58937  Biso   1.000  C
  C75      1.0000 0.47650  0.62350  0.63577  Biso   1.000  C
  C76      1.0000 0.62530  0.29670  0.56677  Biso   1.000  C
  C77      1.0000 0.64500  0.16890  0.53670  Biso   1.000  C
  C78      1.0000 0.49370  0.17910  0.56290  Biso   1.000  C
  C79      1.0000 0.06370  0.68400  0.52809  Biso   1.000  C
  C80      1.0000 0.18130  0.67060  0.56140  Biso   1.000  C
  C81      1.0000 0.04730  0.54150  0.55595  Biso   1.000  C
  C82      1.0000 0.19200  0.36130  0.11433  Biso   1.000  C
  C83      1.0000 0.23390  0.27970  0.09762  Biso   1.000  C
  C84      1.0000 0.31140  0.22710  0.10791  Biso   1.000  C
  C85      1.0000 0.35240  0.15030  0.09370  Biso   1.000  C
  C86      1.0000 0.30990  0.12370  0.06983  Biso   1.000  C
  C87      1.0000 0.22820  0.17140  0.06034  Biso   1.000  C
  C88      1.0000 0.19130  0.25210  0.07365  Biso   1.000  C
  C89      1.0000 0.43720  0.09630  0.10474  Biso   1.000  C
  C90      1.0000 0.17530  0.13460  0.03644  Biso   1.000  C
  C91      1.0000 0.25570  0.61360  0.14189  Biso   1.000  C
  C92      1.0000 0.34170  0.64800  0.15806  Biso   1.000  C
  C93      1.0000 0.37450  0.59290  0.17955  Biso   1.000  C
  C94      1.0000 0.45610  0.61830  0.19290  Biso   1.000  C
  C95      1.0000 0.50680  0.70230  0.18652  Biso   1.000  C
  C96      1.0000 0.47510  0.75980  0.16514  Biso   1.000  C
  C97      1.0000 0.39410  0.73040  0.15089  Biso   1.000  C
  C98      1.0000 0.49570  0.55400  0.21540  Biso   1.000  C
  C99      1.0000 0.53570  0.84860  0.15761  Biso   1.000  C
  C100     1.0000 0.40850  0.45620  0.10789  Biso   1.000  C
  C101     1.0000 0.53690  0.35620  0.08937  Biso   1.000  C
  C102     1.0000 0.52350  0.37650  0.13577  Biso   1.000  C
  C103     1.0000 0.37470  0.70330  0.06677  Biso   1.000  C
  C104     1.0000 0.35500  0.83110  0.03670  Biso   1.000  C
  C105     1.0000 0.50630  0.82090  0.06290  Biso   1.000  C
  C106     1.0000 0.93630  0.31600  0.02809  Biso   1.000  C
  C107     1.0000 0.81870  0.32940  0.06140  Biso   1.000  C
  C108     1.0000 0.95270  0.45850  0.05595  Biso   1.000  C
  C109     1.0000 0.36130  0.19200  0.88567  Biso   1.000  C
  C110     1.0000 0.27970  0.23390  0.90238  Biso   1.000  C
  C111     1.0000 0.22710  0.31140  0.89209  Biso   1.000  C
  C112     1.0000 0.15030  0.35240  0.90630  Biso   1.000  C
  C113     1.0000 0.12370  0.30990  0.93017  Biso   1.000  C
  C114     1.0000 0.17140  0.22820  0.93966  Biso   1.000  C
  C115     1.0000 0.25210  0.19130  0.92635  Biso   1.000  C
  C116     1.0000 0.09630  0.43720  0.89526  Biso   1.000  C
  C117     1.0000 0.13460  0.17530  0.96356  Biso   1.000  C
  C118     1.0000 0.61360  0.25570  0.85811  Biso   1.000  C
  C119     1.0000 0.64800  0.34170  0.84194  Biso   1.000  C
  C120     1.0000 0.59290  0.37450  0.82045  Biso   1.000  C
  C121     1.0000 0.61830  0.45610  0.80710  Biso   1.000  C
  C122     1.0000 0.70230  0.50680  0.81348  Biso   1.000  C
  C123     1.0000 0.75980  0.47510  0.83486  Biso   1.000  C
  C124     1.0000 0.73040  0.39410  0.84911  Biso   1.000  C
  C125     1.0000 0.55400  0.49570  0.78460  Biso   1.000  C
  C126     1.0000 0.84860  0.53570  0.84239  Biso   1.000  C
  C127     1.0000 0.45620  0.40850  0.89211  Biso   1.000  C
  C128     1.0000 0.35620  0.53690  0.91063  Biso   1.000  C
  C129     1.0000 0.37650  0.52350  0.86423  Biso   1.000  C
  C130     1.0000 0.70330  0.37470  0.93323  Biso   1.000  C
  C131     1.0000 0.83110  0.35500  0.96330  Biso   1.000  C
  C132     1.0000 0.82090  0.50630  0.93710  Biso   1.000  C
  C133     1.0000 0.31600  0.93630  0.97191  Biso   1.000  C
  C134     1.0000 0.32940  0.81870  0.93860  Biso   1.000  C
  C135     1.0000 0.45850  0.95270  0.94405  Biso   1.000  C
  C136     1.0000 0.63870  0.80800  0.38567  Biso   1.000  C
  C137     1.0000 0.72030  0.76610  0.40238  Biso   1.000  C
  C138     1.0000 0.77290  0.68860  0.39209  Biso   1.000  C
  C139     1.0000 0.84970  0.64760  0.40630  Biso   1.000  C
  C140     1.0000 0.87630  0.69010  0.43017  Biso   1.000  C
  C141     1.0000 0.82860  0.77180  0.43966  Biso   1.000  C
  C142     1.0000 0.74790  0.80870  0.42635  Biso   1.000  C
  C143     1.0000 0.90370  0.56280  0.39526  Biso   1.000  C
  C144     1.0000 0.86540  0.82470  0.46356  Biso   1.000  C
  C145     1.0000 0.38640  0.74430  0.35811  Biso   1.000  C
  C146     1.0000 0.35200  0.65830  0.34194  Biso   1.000  C
  C147     1.0000 0.40710  0.62550  0.32045  Biso   1.000  C
  C148     1.0000 0.38170  0.54390  0.30710  Biso   1.000  C
  C149     1.0000 0.29770  0.49320  0.31348  Biso   1.000  C
  C150     1.0000 0.24020  0.52490  0.33486  Biso   1.000  C
  C151     1.0000 0.26960  0.60590  0.34911  Biso   1.000  C
  C152     1.0000 0.44600  0.50430  0.28460  Biso   1.000  C
  C153     1.0000 0.15140  0.46430  0.34239  Biso   1.000  C
  C154     1.0000 0.54380  0.59150  0.39211  Biso   1.000  C
  C155     1.0000 0.64380  0.46310  0.41063  Biso   1.000  C
  C156     1.0000 0.62350  0.47650  0.36423  Biso   1.000  C
  C157     1.0000 0.29670  0.62530  0.43323  Biso   1.000  C
  C158     1.0000 0.16890  0.64500  0.46330  Biso   1.000  C
  C159     1.0000 0.17910  0.49370  0.43710  Biso   1.000  C
  C160     1.0000 0.68400  0.06370  0.47191  Biso   1.000  C
  C161     1.0000 0.67060  0.18130  0.43860  Biso   1.000  C
  C162     1.0000 0.54150  0.04730  0.44405  Biso   1.000  C
  C163     1.0000 0.69200  0.13870  0.13567  Biso   1.000  C
  C164     1.0000 0.73390  0.22030  0.15238  Biso   1.000  C
  C165     1.0000 0.81140  0.27290  0.14209  Biso   1.000  C
  C166     1.0000 0.85240  0.34970  0.15630  Biso   1.000  C
  C167     1.0000 0.80990  0.37630  0.18017  Biso   1.000  C
  C168     1.0000 0.72820  0.32860  0.18966  Biso   1.000  C
  C169     1.0000 0.69130  0.24790  0.17635  Biso   1.000  C
  C170     1.0000 0.93720  0.40370  0.14526  Biso   1.000  C
  C171     1.0000 0.67530  0.36540  0.21356  Biso   1.000  C
  C172     1.0000 0.75570  0.88640  0.10811  Biso   1.000  C
  C173     1.0000 0.84170  0.85200  0.09194  Biso   1.000  C
  C174     1.0000 0.87450  0.90710  0.07045  Biso   1.000  C
  C175     1.0000 0.95610  0.88170  0.05710  Biso   1.000  C
  C176     1.0000 0.00680  0.79770  0.06348  Biso   1.000  C
  C177     1.0000 0.97510  0.74020  0.08486  Biso   1.000  C
  C178     1.0000 0.89410  0.76960  0.09911  Biso   1.000  C
  C179     1.0000 0.99570  0.94600  0.03460  Biso   1.000  C
  C180     1.0000 0.03570  0.65140  0.09239  Biso   1.000  C
  C181     1.0000 0.90850  0.04380  0.14211  Biso   1.000  C
  C182     1.0000 0.03690  0.14380  0.16063  Biso   1.000  C
  C183     1.0000 0.02350  0.12350  0.11423  Biso   1.000  C
  C184     1.0000 0.87470  0.79670  0.18323  Biso   1.000  C
  C185     1.0000 0.85500  0.66890  0.21330  Biso   1.000  C
  C186     1.0000 0.00630  0.67910  0.18710  Biso   1.000  C
  C187     1.0000 0.43630  0.18400  0.22191  Biso   1.000  C
  C188     1.0000 0.31870  0.17060  0.18860  Biso   1.000  C
  C189     1.0000 0.45270  0.04150  0.19405  Biso   1.000  C
  C190     1.0000 0.30800  0.86130  0.63567  Biso   1.000  C
  C191     1.0000 0.26610  0.77970  0.65238  Biso   1.000  C
  C192     1.0000 0.18860  0.72710  0.64209  Biso   1.000  C
  C193     1.0000 0.14760  0.65030  0.65630  Biso   1.000  C
  C194     1.0000 0.19010  0.62370  0.68017  Biso   1.000  C
  C195     1.0000 0.27180  0.67140  0.68966  Biso   1.000  C
  C196     1.0000 0.30870  0.75210  0.67635  Biso   1.000  C
  C197     1.0000 0.06280  0.59630  0.64526  Biso   1.000  C
  C198     1.0000 0.32470  0.63460  0.71356  Biso   1.000  C
  C199     1.0000 0.24430  0.11360  0.60811  Biso   1.000  C
  C200     1.0000 0.15830  0.14800  0.59194  Biso   1.000  C
  C201     1.0000 0.12550  0.09290  0.57045  Biso   1.000  C
  C202     1.0000 0.04390  0.11830  0.55710  Biso   1.000  C
  C203     1.0000 0.99320  0.20230  0.56348  Biso   1.000  C
  C204     1.0000 0.02490  0.25980  0.58486  Biso   1.000  C
  C205     1.0000 0.10590  0.23040  0.59911  Biso   1.000  C
  C206     1.0000 0.00430  0.05400  0.53460  Biso   1.000  C
  C207     1.0000 0.96430  0.34860  0.59239  Biso   1.000  C
  C208     1.0000 0.09150  0.95620  0.64211  Biso   1.000  C
  C209     1.0000 0.96310  0.85620  0.66063  Biso   1.000  C
  C210     1.0000 0.97650  0.87650  0.61423  Biso   1.000  C
  C211     1.0000 0.12530  0.20330  0.68323  Biso   1.000  C
  C212     1.0000 0.14500  0.33110  0.71330  Biso   1.000  C
  C213     1.0000 0.99370  0.32090  0.68710  Biso   1.000  C
  C214     1.0000 0.56370  0.81600  0.72191  Biso   1.000  C
  C215     1.0000 0.68130  0.82940  0.68860  Biso   1.000  C
  C216     1.0000 0.54730  0.95850  0.69405  Biso   1.000  C
  N1       1.0000 0.10000  0.98630  0.86039  Biso   1.000  N
  N2       1.0000 0.72000  0.91270  0.80515  Biso   1.000  N
  N3       1.0000 0.13080  0.40550  0.79735  Biso   1.000  N
  N4       1.0000 0.90000  0.01370  0.36039  Biso   1.000  N
  N5       1.0000 0.28000  0.08730  0.30515  Biso   1.000  N
  N6       1.0000 0.86920  0.59450  0.29735  Biso   1.000  N
  N7       1.0000 0.51370  0.60000  0.61039  Biso   1.000  N
  N8       1.0000 0.58730  0.22000  0.55515  Biso   1.000  N
  N9       1.0000 0.09450  0.63080  0.54735  Biso   1.000  N
  N10      1.0000 0.48630  0.40000  0.11039  Biso   1.000  N
  N11      1.0000 0.41270  0.78000  0.05515  Biso   1.000  N
  N12      1.0000 0.90550  0.36920  0.04735  Biso   1.000  N
  N13      1.0000 0.40000  0.48630  0.88961  Biso   1.000  N
  N14      1.0000 0.78000  0.41270  0.94485  Biso   1.000  N
  N15      1.0000 0.36920  0.90550  0.95265  Biso   1.000  N
  N16      1.0000 0.60000  0.51370  0.38961  Biso   1.000  N
  N17      1.0000 0.22000  0.58730  0.44485  Biso   1.000  N
  N18      1.0000 0.63080  0.09450  0.45265  Biso   1.000  N
  N19      1.0000 0.98630  0.10000  0.13961  Biso   1.000  N
  N20      1.0000 0.91270  0.72000  0.19485  Biso   1.000  N
  N21      1.0000 0.40550  0.13080  0.20265  Biso   1.000  N
  N22      1.0000 0.01370  0.90000  0.63961  Biso   1.000  N
  N23      1.0000 0.08730  0.28000  0.69485  Biso   1.000  N
  N24      1.0000 0.59450  0.86920  0.70265  Biso   1.000  N
  O1       1.0000 0.06140  0.65900  0.85249  Biso   1.000  O
  O2       1.0000 0.14710  0.68660  0.88826  Biso   1.000  O
  O3       1.0000 0.32110  0.60010  0.77976  Biso   1.000  O
  O4       1.0000 0.44160  0.70820  0.77532  Biso   1.000  O
  O5       1.0000 0.38530  0.96160  0.87803  Biso   1.000  O
  O6       1.0000 0.46320  0.98230  0.84059  Biso   1.000  O
  O7       1.0000 0.92940  0.68910  0.90347  Biso   1.000  O
  O8       1.0000 0.86850  0.75980  0.86750  Biso   1.000  O
  O9       1.0000 0.02720  0.95720  0.96825  Biso   1.000  O
  O10      1.0000 0.91310  0.06580  0.97799  Biso   1.000  O
  O11      1.0000 0.61480  0.01480  0.88502  Biso   1.000  O
  O12      1.0000 0.62470  0.10030  0.92259  Biso   1.000  O
  O13      1.0000 0.01880  0.87010  0.83740  Biso   1.000  O
  O14      1.0000 0.83340  0.79730  0.81228  Biso   1.000  O
  O15      1.0000 0.25950  0.39980  0.76898  Biso   1.000  O
  O16      1.0000 0.02000  0.72210  0.79642  Biso   1.000  O
  O17      1.0000 0.93860  0.34100  0.35249  Biso   1.000  O
  O18      1.0000 0.85290  0.31340  0.38826  Biso   1.000  O
  O19      1.0000 0.67890  0.39990  0.27976  Biso   1.000  O
  O20      1.0000 0.55840  0.29180  0.27532  Biso   1.000  O
  O21      1.0000 0.61470  0.03840  0.37803  Biso   1.000  O
  O22      1.0000 0.53680  0.01770  0.34059  Biso   1.000  O
  O23      1.0000 0.07060  0.31090  0.40347  Biso   1.000  O
  O24      1.0000 0.13150  0.24020  0.36750  Biso   1.000  O
  O25      1.0000 0.97280  0.04280  0.46825  Biso   1.000  O
  O26      1.0000 0.08690  0.93420  0.47799  Biso   1.000  O
  O27      1.0000 0.38520  0.98520  0.38502  Biso   1.000  O
  O28      1.0000 0.37530  0.89970  0.42259  Biso   1.000  O
  O29      1.0000 0.98120  0.12990  0.33740  Biso   1.000  O
  O30      1.0000 0.16660  0.20270  0.31228  Biso   1.000  O
  O31      1.0000 0.74050  0.60020  0.26898  Biso   1.000  O
  O32      1.0000 0.98000  0.27790  0.29642  Biso   1.000  O
  O33      1.0000 0.84100  0.56140  0.60249  Biso   1.000  O
  O34      1.0000 0.81340  0.64710  0.63826  Biso   1.000  O
  O35      1.0000 0.89990  0.82110  0.52976  Biso   1.000  O
  O36      1.0000 0.79180  0.94160  0.52532  Biso   1.000  O
  O37      1.0000 0.53840  0.88530  0.62803  Biso   1.000  O
  O38      1.0000 0.51770  0.96320  0.59059  Biso   1.000  O
  O39      1.0000 0.81090  0.42940  0.65347  Biso   1.000  O
  O40      1.0000 0.74020  0.36850  0.61750  Biso   1.000  O
  O41      1.0000 0.54280  0.52720  0.71825  Biso   1.000  O
  O42      1.0000 0.43420  0.41310  0.72799  Biso   1.000  O
  O43      1.0000 0.48520  0.11480  0.63502  Biso   1.000  O
  O44      1.0000 0.39970  0.12470  0.67259  Biso   1.000  O
  O45      1.0000 0.62990  0.51880  0.58740  Biso   1.000  O
  O46      1.0000 0.70270  0.33340  0.56228  Biso   1.000  O
  O47      1.0000 0.10020  0.75950  0.51898  Biso   1.000  O
  O48      1.0000 0.77790  0.52000  0.54642  Biso   1.000  O
  O49      1.0000 0.15900  0.43860  0.10249  Biso   1.000  O
  O50      1.0000 0.18660  0.35290  0.13826  Biso   1.000  O
  O51      1.0000 0.10010  0.17890  0.02976  Biso   1.000  O
  O52      1.0000 0.20820  0.05840  0.02532  Biso   1.000  O
  O53      1.0000 0.46160  0.11470  0.12803  Biso   1.000  O
  O54      1.0000 0.48230  0.03680  0.09059  Biso   1.000  O
  O55      1.0000 0.18910  0.57060  0.15347  Biso   1.000  O
  O56      1.0000 0.25980  0.63150  0.11750  Biso   1.000  O
  O57      1.0000 0.45720  0.47280  0.21825  Biso   1.000  O
  O58      1.0000 0.56580  0.58690  0.22799  Biso   1.000  O
  O59      1.0000 0.51480  0.88520  0.13502  Biso   1.000  O
  O60      1.0000 0.60030  0.87530  0.17259  Biso   1.000  O
  O61      1.0000 0.37010  0.48120  0.08740  Biso   1.000  O
  O62      1.0000 0.29730  0.66660  0.06228  Biso   1.000  O
  O63      1.0000 0.89980  0.24050  0.01898  Biso   1.000  O
  O64      1.0000 0.22210  0.48000  0.04642  Biso   1.000  O
  O65      1.0000 0.43860  0.15900  0.89751  Biso   1.000  O
  O66      1.0000 0.35290  0.18660  0.86174  Biso   1.000  O
  O67      1.0000 0.17890  0.10010  0.97024  Biso   1.000  O
  O68      1.0000 0.05840  0.20820  0.97468  Biso   1.000  O
  O69      1.0000 0.11470  0.46160  0.87197  Biso   1.000  O
  O70      1.0000 0.03680  0.48230  0.90941  Biso   1.000  O
  O71      1.0000 0.57060  0.18910  0.84653  Biso   1.000  O
  O72      1.0000 0.63150  0.25980  0.88250  Biso   1.000  O
  O73      1.0000 0.47280  0.45720  0.78175  Biso   1.000  O
  O74      1.0000 0.58690  0.56580  0.77201  Biso   1.000  O
  O75      1.0000 0.88520  0.51480  0.86498  Biso   1.000  O
  O76      1.0000 0.87530  0.60030  0.82741  Biso   1.000  O
  O77      1.0000 0.48120  0.37010  0.91260  Biso   1.000  O
  O78      1.0000 0.66660  0.29730  0.93772  Biso   1.000  O
  O79      1.0000 0.24050  0.89980  0.98102  Biso   1.000  O
  O80      1.0000 0.48000  0.22210  0.95358  Biso   1.000  O
  O81      1.0000 0.56140  0.84100  0.39751  Biso   1.000  O
  O82      1.0000 0.64710  0.81340  0.36174  Biso   1.000  O
  O83      1.0000 0.82110  0.89990  0.47024  Biso   1.000  O
  O84      1.0000 0.94160  0.79180  0.47468  Biso   1.000  O
  O85      1.0000 0.88530  0.53840  0.37197  Biso   1.000  O
  O86      1.0000 0.96320  0.51770  0.40941  Biso   1.000  O
  O87      1.0000 0.42940  0.81090  0.34653  Biso   1.000  O
  O88      1.0000 0.36850  0.74020  0.38250  Biso   1.000  O
  O89      1.0000 0.52720  0.54280  0.28175  Biso   1.000  O
  O90      1.0000 0.41310  0.43420  0.27201  Biso   1.000  O
  O91      1.0000 0.11480  0.48520  0.36498  Biso   1.000  O
  O92      1.0000 0.12470  0.39970  0.32741  Biso   1.000  O
  O93      1.0000 0.51880  0.62990  0.41260  Biso   1.000  O
  O94      1.0000 0.33340  0.70270  0.43772  Biso   1.000  O
  O95      1.0000 0.75950  0.10020  0.48102  Biso   1.000  O
  O96      1.0000 0.52000  0.77790  0.45358  Biso   1.000  O
  O97      1.0000 0.65900  0.06140  0.14751  Biso   1.000  O
  O98      1.0000 0.68660  0.14710  0.11174  Biso   1.000  O
  O99      1.0000 0.60010  0.32110  0.22024  Biso   1.000  O
  O100     1.0000 0.70820  0.44160  0.22468  Biso   1.000  O
  O101     1.0000 0.96160  0.38530  0.12197  Biso   1.000  O
  O102     1.0000 0.98230  0.46320  0.15941  Biso   1.000  O
  O103     1.0000 0.68910  0.92940  0.09653  Biso   1.000  O
  O104     1.0000 0.75980  0.86850  0.13250  Biso   1.000  O
  O105     1.0000 0.95720  0.02720  0.03175  Biso   1.000  O
  O106     1.0000 0.06580  0.91310  0.02201  Biso   1.000  O
  O107     1.0000 0.01480  0.61480  0.11498  Biso   1.000  O
  O108     1.0000 0.10030  0.62470  0.07741  Biso   1.000  O
  O109     1.0000 0.87010  0.01880  0.16260  Biso   1.000  O
  O110     1.0000 0.79730  0.83340  0.18772  Biso   1.000  O
  O111     1.0000 0.39980  0.25950  0.23102  Biso   1.000  O
  O112     1.0000 0.72210  0.02000  0.20358  Biso   1.000  O
  O113     1.0000 0.34100  0.93860  0.64751  Biso   1.000  O
  O114     1.0000 0.31340  0.85290  0.61174  Biso   1.000  O
  O115     1.0000 0.39990  0.67890  0.72024  Biso   1.000  O
  O116     1.0000 0.29180  0.55840  0.72468  Biso   1.000  O
  O117     1.0000 0.03840  0.61470  0.62197  Biso   1.000  O
  O118     1.0000 0.01770  0.53680  0.65941  Biso   1.000  O
  O119     1.0000 0.31090  0.07060  0.59653  Biso   1.000  O
  O120     1.0000 0.24020  0.13150  0.63250  Biso   1.000  O
  O121     1.0000 0.04280  0.97280  0.53175  Biso   1.000  O
  O122     1.0000 0.93420  0.08690  0.52201  Biso   1.000  O
  O123     1.0000 0.98520  0.38520  0.61498  Biso   1.000  O
  O124     1.0000 0.89970  0.37530  0.57741  Biso   1.000  O
  O125     1.0000 0.12990  0.98120  0.66260  Biso   1.000  O
  O126     1.0000 0.20270  0.16660  0.68772  Biso   1.000  O
  O127     1.0000 0.60020  0.74050  0.73102  Biso   1.000  O
  O128     1.0000 0.27790  0.98000  0.70358  Biso   1.000  O
