data_image0
_cell_length_a       9.7153
_cell_length_b       9.7153
_cell_length_c       8.2024
_cell_angle_alpha    90
_cell_angle_beta     90
_cell_angle_gamma    90

_symmetry_space_group_name_H-M    "P 1"
_symmetry_int_tables_number       1

loop_
  _symmetry_equiv_pos_as_xyz
  'x, y, z'

loop_
  _atom_site_label
  _atom_site_occupancy
  _atom_site_fract_x
  _atom_site_fract_y
  _atom_site_fract_z
  _atom_site_thermal_displace_type
  _atom_site_B_iso_or_equiv
  _atom_site_type_symbol
  C1       1.0000 0.58490  0.51640  0.62650  Biso   1.000  C
  H1       1.0000 0.64240  0.52520  0.71650  Biso   1.000  H
  C2       1.0000 0.91510  0.98360  0.62650  Biso   1.000  C
  H2       1.0000 0.85760  0.97480  0.71650  Biso   1.000  H
  C3       1.0000 0.98360  0.58490  0.62650  Biso   1.000  C
  H3       1.0000 0.97480  0.64240  0.71650  Biso   1.000  H
  C4       1.0000 0.51640  0.91510  0.62650  Biso   1.000  C
  H4       1.0000 0.52520  0.85760  0.71650  Biso   1.000  H
  C5       1.0000 0.91510  0.51640  0.37350  Biso   1.000  C
  H5       1.0000 0.85760  0.52520  0.28350  Biso   1.000  H
  C6       1.0000 0.58490  0.98360  0.37350  Biso   1.000  C
  H6       1.0000 0.64240  0.97480  0.28350  Biso   1.000  H
  C7       1.0000 0.51640  0.58490  0.37350  Biso   1.000  C
  H7       1.0000 0.52520  0.64240  0.28350  Biso   1.000  H
  C8       1.0000 0.98360  0.91510  0.37350  Biso   1.000  C
  H8       1.0000 0.97480  0.85760  0.28350  Biso   1.000  H
  C9       1.0000 0.41510  0.48360  0.37350  Biso   1.000  C
  H9       1.0000 0.35760  0.47480  0.28350  Biso   1.000  H
  C10      1.0000 0.08490  0.01640  0.37350  Biso   1.000  C
  H10      1.0000 0.14240  0.02520  0.28350  Biso   1.000  H
  C11      1.0000 0.01640  0.41510  0.37350  Biso   1.000  C
  H11      1.0000 0.02520  0.35760  0.28350  Biso   1.000  H
  C12      1.0000 0.48360  0.08490  0.37350  Biso   1.000  C
  H12      1.0000 0.47480  0.14240  0.28350  Biso   1.000  H
  C13      1.0000 0.08490  0.48360  0.62650  Biso   1.000  C
  H13      1.0000 0.14240  0.47480  0.71650  Biso   1.000  H
  C14      1.0000 0.41510  0.01640  0.62650  Biso   1.000  C
  H14      1.0000 0.35760  0.02520  0.71650  Biso   1.000  H
  C15      1.0000 0.48360  0.41510  0.62650  Biso   1.000  C
  H15      1.0000 0.47480  0.35760  0.71650  Biso   1.000  H
  C16      1.0000 0.01640  0.08490  0.62650  Biso   1.000  C
  H16      1.0000 0.02520  0.14240  0.71650  Biso   1.000  H
  Cu1      1.0000 0.75000  0.75000  0.50000  Biso   1.000  Cu
  Cu2      1.0000 0.25000  0.25000  0.50000  Biso   1.000  Cu
  V1       1.0000 0.75000  0.75000  0.00000  Biso   1.000  V
  V2       1.0000 0.25000  0.25000  0.00000  Biso   1.000  V
  O1       1.0000 0.75000  0.55020  0.00000  Biso   1.000  O
  F1       1.0000 0.75000  0.94980  0.00000  Biso   1.000  F
  O2       1.0000 0.94980  0.75000  0.00000  Biso   1.000  O
  F2       1.0000 0.55020  0.75000  0.00000  Biso   1.000  F
  O3       1.0000 0.25000  0.44980  0.00000  Biso   1.000  O
  F3       1.0000 0.25000  0.05020  0.00000  Biso   1.000  F
  O4       1.0000 0.05020  0.25000  0.00000  Biso   1.000  O
  F4       1.0000 0.44980  0.25000  0.00000  Biso   1.000  F
  F5       1.0000 0.75000  0.75000  0.23290  Biso   1.000  F
  F6       1.0000 0.75000  0.75000  0.76710  Biso   1.000  F
  F7       1.0000 0.25000  0.25000  0.76710  Biso   1.000  F
  F8       1.0000 0.25000  0.25000  0.23290  Biso   1.000  F
  N1       1.0000 0.60113  0.60113  0.50000  Biso   1.000  N
  N2       1.0000 0.89887  0.89887  0.50000  Biso   1.000  N
  N3       1.0000 0.89887  0.60113  0.50000  Biso   1.000  N
  N4       1.0000 0.60113  0.89887  0.50000  Biso   1.000  N
  N5       1.0000 0.39887  0.39887  0.50000  Biso   1.000  N
  N6       1.0000 0.10113  0.10113  0.50000  Biso   1.000  N
  N7       1.0000 0.10113  0.39887  0.50000  Biso   1.000  N
  N8       1.0000 0.39887  0.10113  0.50000  Biso   1.000  N
