data_image0
_cell_length_a       11.4303
_cell_length_b       8.8546
_cell_length_c       15.6
_cell_angle_alpha    90
_cell_angle_beta     114.81
_cell_angle_gamma    90

_symmetry_space_group_name_H-M    "P 1"
_symmetry_int_tables_number       1

loop_
  _symmetry_equiv_pos_as_xyz
  'x, y, z'

loop_
  _atom_site_label
  _atom_site_occupancy
  _atom_site_fract_x
  _atom_site_fract_y
  _atom_site_fract_z
  _atom_site_thermal_displace_type
  _atom_site_B_iso_or_equiv
  _atom_site_type_symbol
  Ag1      1.0000 0.29400  0.00744  0.06683  Biso   1.000  Ag
  Ag2      1.0000 0.20123  0.53805  0.87973  Biso   1.000  Ag
  N1       1.0000 0.24260  0.21570  0.99480  Biso   1.000  N
  N2       1.0000 0.40750  0.81350  0.05406  Biso   1.000  N
  N3       1.0000 0.28370  0.54030  0.70890  Biso   1.000  N
  N4       1.0000 0.09170  0.71300  0.91940  Biso   1.000  N
  C1       1.0000 0.21440  0.32830  0.96130  Biso   1.000  C
  C2       1.0000 0.44170  0.70430  0.03550  Biso   1.000  C
  C3       1.0000 0.25680  0.54170  0.76400  Biso   1.000  C
  C4       1.0000 0.05930  0.81420  0.94900  Biso   1.000  C
  Ag3      1.0000 0.70600  0.50744  0.43317  Biso   1.000  Ag
  Ag4      1.0000 0.79877  0.03805  0.62027  Biso   1.000  Ag
  N5       1.0000 0.75740  0.71570  0.50520  Biso   1.000  N
  N6       1.0000 0.59250  0.31350  0.44594  Biso   1.000  N
  N7       1.0000 0.71630  0.04030  0.79110  Biso   1.000  N
  N8       1.0000 0.90830  0.21300  0.58060  Biso   1.000  N
  C5       1.0000 0.78560  0.82830  0.53870  Biso   1.000  C
  C6       1.0000 0.55830  0.20430  0.46450  Biso   1.000  C
  C7       1.0000 0.74320  0.04170  0.73600  Biso   1.000  C
  C8       1.0000 0.94070  0.31420  0.55100  Biso   1.000  C
  Ag5      1.0000 0.70600  0.99256  0.93317  Biso   1.000  Ag
  Ag6      1.0000 0.79877  0.46195  0.12027  Biso   1.000  Ag
  N9       1.0000 0.75740  0.78430  0.00520  Biso   1.000  N
  N10      1.0000 0.59250  0.18650  0.94594  Biso   1.000  N
  N11      1.0000 0.71630  0.45970  0.29110  Biso   1.000  N
  N12      1.0000 0.90830  0.28700  0.08060  Biso   1.000  N
  C9       1.0000 0.78560  0.67170  0.03870  Biso   1.000  C
  C10      1.0000 0.55830  0.29570  0.96450  Biso   1.000  C
  C11      1.0000 0.74320  0.45830  0.23600  Biso   1.000  C
  C12      1.0000 0.94070  0.18580  0.05100  Biso   1.000  C
  Ag7      1.0000 0.29400  0.49256  0.56683  Biso   1.000  Ag
  Ag8      1.0000 0.20123  0.96195  0.37973  Biso   1.000  Ag
  N13      1.0000 0.24260  0.28430  0.49480  Biso   1.000  N
  N14      1.0000 0.40750  0.68650  0.55406  Biso   1.000  N
  N15      1.0000 0.28370  0.95970  0.20890  Biso   1.000  N
  N16      1.0000 0.09170  0.78700  0.41940  Biso   1.000  N
  C13      1.0000 0.21440  0.17170  0.46130  Biso   1.000  C
  C14      1.0000 0.44170  0.79570  0.53550  Biso   1.000  C
  C15      1.0000 0.25680  0.95830  0.26400  Biso   1.000  C
  C16      1.0000 0.05930  0.68580  0.44900  Biso   1.000  C
  Ag9      1.0000 0.00000  0.00000  0.00000  Biso   1.000  Ag
  Ag10     1.0000 0.00000  0.50000  0.50000  Biso   1.000  Ag
  Ag11     1.0000 0.50000  0.50000  0.00000  Biso   1.000  Ag
  Ag12     1.0000 0.50000  0.00000  0.50000  Biso   1.000  Ag
