data_image0
_cell_length_a       10.286
_cell_length_b       19.161
_cell_length_c       19.787
_cell_angle_alpha    77.52
_cell_angle_beta     76.72
_cell_angle_gamma    81.02

_symmetry_space_group_name_H-M    P 1
_symmetry_int_tables_number       1

loop_
  _symmetry_equiv_pos_as_xyz
  'x, y, z'

loop_
  _atom_site_label
  _atom_site_occupancy
  _atom_site_fract_x
  _atom_site_fract_y
  _atom_site_fract_z
  _atom_site_thermal_displace_type
  _atom_site_B_iso_or_equiv
  _atom_site_type_symbol
  Dy1      1.0000 0.36700  0.94167  0.57157  Biso   1.000  Dy
  Dy2      1.0000 0.81608  0.48064  0.56761  Biso   1.000  Dy
  Dy3      1.0000 0.85156  0.58003  0.96141  Biso   1.000  Dy
  Dy4      1.0000 0.63300  0.05833  0.42843  Biso   1.000  Dy
  Dy5      1.0000 0.18392  0.51936  0.43239  Biso   1.000  Dy
  Dy6      1.0000 0.14844  0.41997  0.03859  Biso   1.000  Dy
  H1       1.0000 0.88420  0.00350  0.57040  Biso   1.000  H
  H2       1.0000 0.59010  0.00030  0.74300  Biso   1.000  H
  H3       1.0000 0.74600  0.99660  0.81090  Biso   1.000  H
  H4       1.0000 0.97240  0.99210  0.76010  Biso   1.000  H
  H5       1.0000 0.70660  0.73260  0.52890  Biso   1.000  H
  H6       1.0000 0.00500  0.71550  0.36130  Biso   1.000  H
  H7       1.0000 0.95620  0.83570  0.31530  Biso   1.000  H
  H8       1.0000 0.77860  0.90430  0.37370  Biso   1.000  H
  H9       1.0000 0.98340  0.48570  0.25300  Biso   1.000  H
  H10      1.0000 0.65890  0.58070  0.17790  Biso   1.000  H
  H11      1.0000 0.55050  0.59860  0.29060  Biso   1.000  H
  H12      1.0000 0.65930  0.55850  0.38430  Biso   1.000  H
  H13      1.0000 0.61150  0.41770  0.00310  Biso   1.000  H
  H14      1.0000 0.52700  0.22450  0.99240  Biso   1.000  H
  H15      1.0000 0.74860  0.17700  0.99620  Biso   1.000  H
  H16      1.0000 0.90090  0.25080  0.00390  Biso   1.000  H
  H17      1.0000 0.15920  0.87260  0.49930  Biso   1.000  H
  H18      1.0000 0.03580  0.77670  0.51000  Biso   1.000  H
  H19      1.0000 0.03870  0.68490  0.60460  Biso   1.000  H
  H20      1.0000 0.12730  0.62630  0.72610  Biso   1.000  H
  H21      1.0000 0.21920  0.63840  0.80420  Biso   1.000  H
  H22      1.0000 0.35970  0.71220  0.85230  Biso   1.000  H
  H23      1.0000 0.46370  0.81040  0.83580  Biso   1.000  H
  H24      1.0000 0.47490  0.89220  0.73030  Biso   1.000  H
  H25      1.0000 0.64950  0.40220  0.47980  Biso   1.000  H
  H26      1.0000 0.54970  0.30180  0.48030  Biso   1.000  H
  H27      1.0000 0.55460  0.20610  0.57240  Biso   1.000  H
  H28      1.0000 0.61870  0.15400  0.69310  Biso   1.000  H
  H29      1.0000 0.68760  0.16920  0.78630  Biso   1.000  H
  H30      1.0000 0.76540  0.25070  0.84680  Biso   1.000  H
  H31      1.0000 0.82950  0.36060  0.84510  Biso   1.000  H
  H32      1.0000 0.83760  0.44840  0.74240  Biso   1.000  H
  H33      1.0000 0.99360  0.74230  0.88530  Biso   1.000  H
  H34      1.0000 0.00350  0.83930  0.79260  Biso   1.000  H
  H35      1.0000 0.88520  0.84550  0.70550  Biso   1.000  H
  H36      1.0000 0.73880  0.78500  0.65210  Biso   1.000  H
  H37      1.0000 0.60260  0.69980  0.66630  Biso   1.000  H
  H38      1.0000 0.49340  0.59290  0.74380  Biso   1.000  H
  H39      1.0000 0.48140  0.50610  0.84330  Biso   1.000  H
  H40      1.0000 0.63040  0.49890  0.91640  Biso   1.000  H
  H41      1.0000 0.11580  0.99650  0.42960  Biso   1.000  H
  H42      1.0000 0.40990  0.99970  0.25700  Biso   1.000  H
  H43      1.0000 0.25400  0.00340  0.18910  Biso   1.000  H
  H44      1.0000 0.02760  0.00790  0.23990  Biso   1.000  H
  H45      1.0000 0.29340  0.26740  0.47110  Biso   1.000  H
  H46      1.0000 0.99500  0.28450  0.63870  Biso   1.000  H
  H47      1.0000 0.04380  0.16430  0.68470  Biso   1.000  H
  H48      1.0000 0.22140  0.09570  0.62630  Biso   1.000  H
  H49      1.0000 0.01660  0.51430  0.74700  Biso   1.000  H
  H50      1.0000 0.34110  0.41930  0.82210  Biso   1.000  H
  H51      1.0000 0.44950  0.40140  0.70940  Biso   1.000  H
  H52      1.0000 0.34070  0.44150  0.61570  Biso   1.000  H
  H53      1.0000 0.38850  0.58230  0.99690  Biso   1.000  H
  H54      1.0000 0.47300  0.77550  0.00760  Biso   1.000  H
  H55      1.0000 0.25140  0.82300  0.00380  Biso   1.000  H
  H56      1.0000 0.09910  0.74920  0.99610  Biso   1.000  H
  H57      1.0000 0.84080  0.12740  0.50070  Biso   1.000  H
  H58      1.0000 0.96420  0.22330  0.49000  Biso   1.000  H
  H59      1.0000 0.96130  0.31510  0.39540  Biso   1.000  H
  H60      1.0000 0.87270  0.37370  0.27390  Biso   1.000  H
  H61      1.0000 0.78080  0.36160  0.19580  Biso   1.000  H
  H62      1.0000 0.64030  0.28780  0.14770  Biso   1.000  H
  H63      1.0000 0.53630  0.18960  0.16420  Biso   1.000  H
  H64      1.0000 0.52510  0.10780  0.26970  Biso   1.000  H
  H65      1.0000 0.35050  0.59780  0.52020  Biso   1.000  H
  H66      1.0000 0.45030  0.69820  0.51970  Biso   1.000  H
  H67      1.0000 0.44540  0.79390  0.42760  Biso   1.000  H
  H68      1.0000 0.38130  0.84600  0.30690  Biso   1.000  H
  H69      1.0000 0.31240  0.83080  0.21370  Biso   1.000  H
  H70      1.0000 0.23460  0.74930  0.15320  Biso   1.000  H
  H71      1.0000 0.17050  0.63940  0.15490  Biso   1.000  H
  H72      1.0000 0.16240  0.55160  0.25760  Biso   1.000  H
  H73      1.0000 0.00640  0.25770  0.11470  Biso   1.000  H
  H74      1.0000 0.99650  0.16070  0.20740  Biso   1.000  H
  H75      1.0000 0.11480  0.15450  0.29450  Biso   1.000  H
  H76      1.0000 0.26120  0.21500  0.34790  Biso   1.000  H
  H77      1.0000 0.39740  0.30020  0.33370  Biso   1.000  H
  H78      1.0000 0.50660  0.40710  0.25620  Biso   1.000  H
  H79      1.0000 0.51860  0.49390  0.15670  Biso   1.000  H
  H80      1.0000 0.36960  0.50110  0.08360  Biso   1.000  H
  C1       1.0000 0.95110  0.99386  0.66059  Biso   1.000  C
  C2       1.0000 0.85650  0.00083  0.61897  Biso   1.000  C
  C3       1.0000 0.72000  0.00390  0.64973  Biso   1.000  C
  C4       1.0000 0.68070  0.00040  0.72181  Biso   1.000  C
  C5       1.0000 0.77420  0.99690  0.76274  Biso   1.000  C
  C6       1.0000 0.90950  0.99400  0.73246  Biso   1.000  C
  C7       1.0000 0.09800  0.98510  0.62725  Biso   1.000  C
  C8       1.0000 0.61910  0.01349  0.60281  Biso   1.000  C
  C9       1.0000 0.72620  0.82594  0.45872  Biso   1.000  C
  C10      1.0000 0.75680  0.75349  0.48589  Biso   1.000  C
  C11      1.0000 0.86030  0.71222  0.45010  Biso   1.000  C
  C12      1.0000 0.93500  0.74320  0.38580  Biso   1.000  C
  C13      1.0000 0.90520  0.81500  0.35810  Biso   1.000  C
  C14      1.0000 0.80010  0.85640  0.39340  Biso   1.000  C
  C15      1.0000 0.61720  0.87065  0.49839  Biso   1.000  C
  C16      1.0000 0.89510  0.63468  0.47880  Biso   1.000  C
  C17      1.0000 0.83470  0.51976  0.32763  Biso   1.000  C
  C18      1.0000 0.89600  0.50841  0.26059  Biso   1.000  C
  C19      1.0000 0.83090  0.52996  0.20400  Biso   1.000  C
  C20      1.0000 0.70280  0.56450  0.21550  Biso   1.000  C
  C21      1.0000 0.63770  0.57560  0.28310  Biso   1.000  C
  C22      1.0000 0.70330  0.55230  0.33897  Biso   1.000  C
  C23      1.0000 0.90770  0.49766  0.38773  Biso   1.000  C
  C24      1.0000 0.89580  0.51504  0.13197  Biso   1.000  C
  C25      1.0000 0.77220  0.34212  0.00333  Biso   1.000  C
  C26      1.0000 0.63960  0.36945  0.00144  Biso   1.000  C
  C27      1.0000 0.54940  0.32508  0.99708  Biso   1.000  C
  C28      1.0000 0.58870  0.25390  0.99520  Biso   1.000  C
  C29      1.0000 0.72150  0.22540  0.99760  Biso   1.000  C
  C30      1.0000 0.81250  0.26960  0.00190  Biso   1.000  C
  C31      1.0000 0.87000  0.39125  0.00640  Biso   1.000  C
  C32      1.0000 0.40730  0.35800  0.99571  Biso   1.000  C
  C33      1.0000 0.16010  0.83490  0.53780  Biso   1.000  C
  C34      1.0000 0.08520  0.77730  0.54370  Biso   1.000  C
  C35      1.0000 0.08770  0.72320  0.59990  Biso   1.000  C
  C36      1.0000 0.15970  0.72270  0.65030  Biso   1.000  C
  C37      1.0000 0.23210  0.78300  0.64130  Biso   1.000  C
  C38      1.0000 0.16810  0.66800  0.71900  Biso   1.000  C
  C39      1.0000 0.22330  0.67490  0.76440  Biso   1.000  C
  C40      1.0000 0.29640  0.73540  0.76250  Biso   1.000  C
  C41      1.0000 0.36010  0.74610  0.81080  Biso   1.000  C
  C42      1.0000 0.42290  0.80300  0.80090  Biso   1.000  C
  C43      1.0000 0.42800  0.85260  0.73710  Biso   1.000  C
  C44      1.0000 0.30140  0.78800  0.69510  Biso   1.000  C
  C45      1.0000 0.64610  0.36500  0.51890  Biso   1.000  C
  C46      1.0000 0.58790  0.30390  0.51800  Biso   1.000  C
  C47      1.0000 0.58870  0.24810  0.57300  Biso   1.000  C
  C48      1.0000 0.63960  0.25340  0.62980  Biso   1.000  C
  C49      1.0000 0.68960  0.31857  0.62870  Biso   1.000  C
  C50      1.0000 0.64570  0.19840  0.69220  Biso   1.000  C
  C51      1.0000 0.68680  0.20680  0.74770  Biso   1.000  C
  C52      1.0000 0.72980  0.27300  0.74930  Biso   1.000  C
  C53      1.0000 0.76690  0.28630  0.80650  Biso   1.000  C
  C54      1.0000 0.80630  0.35110  0.80550  Biso   1.000  C
  C55      1.0000 0.81120  0.40400  0.74310  Biso   1.000  C
  C56      1.0000 0.73610  0.32860  0.68890  Biso   1.000  C
  C57      1.0000 0.94660  0.74360  0.85000  Biso   1.000  C
  C58      1.0000 0.95260  0.80260  0.79430  Biso   1.000  C
  C59      1.0000 0.88300  0.80600  0.74250  Biso   1.000  C
  C60      1.0000 0.80840  0.75020  0.74490  Biso   1.000  C
  C61      1.0000 0.80590  0.69270  0.80359  Biso   1.000  C
  C62      1.0000 0.73220  0.74920  0.69240  Biso   1.000  C
  C63      1.0000 0.65250  0.69820  0.70040  Biso   1.000  C
  C64      1.0000 0.64270  0.64080  0.76075  Biso   1.000  C
  C65      1.0000 0.55010  0.59060  0.77480  Biso   1.000  C
  C66      1.0000 0.54350  0.53930  0.83300  Biso   1.000  C
  C67      1.0000 0.63140  0.53660  0.87780  Biso   1.000  C
  C68      1.0000 0.72200  0.63720  0.81048  Biso   1.000  C
  C69      1.0000 0.04890  0.00614  0.33941  Biso   1.000  C
  C70      1.0000 0.14350  0.99917  0.38103  Biso   1.000  C
  C71      1.0000 0.28000  0.99610  0.35027  Biso   1.000  C
  C72      1.0000 0.31930  0.99960  0.27819  Biso   1.000  C
  C73      1.0000 0.22580  0.00310  0.23726  Biso   1.000  C
  C74      1.0000 0.09050  0.00600  0.26754  Biso   1.000  C
  C75      1.0000 0.90200  0.01490  0.37275  Biso   1.000  C
  C76      1.0000 0.38090  0.98651  0.39719  Biso   1.000  C
  C77      1.0000 0.27380  0.17406  0.54128  Biso   1.000  C
  C78      1.0000 0.24320  0.24651  0.51411  Biso   1.000  C
  C79      1.0000 0.13970  0.28778  0.54990  Biso   1.000  C
  C80      1.0000 0.06500  0.25680  0.61420  Biso   1.000  C
  C81      1.0000 0.09480  0.18500  0.64190  Biso   1.000  C
  C82      1.0000 0.19990  0.14360  0.60660  Biso   1.000  C
  C83      1.0000 0.38280  0.12935  0.50161  Biso   1.000  C
  C84      1.0000 0.10490  0.36532  0.52120  Biso   1.000  C
  C85      1.0000 0.16530  0.48024  0.67237  Biso   1.000  C
  C86      1.0000 0.10400  0.49159  0.73941  Biso   1.000  C
  C87      1.0000 0.16910  0.47004  0.79600  Biso   1.000  C
  C88      1.0000 0.29720  0.43550  0.78450  Biso   1.000  C
  C89      1.0000 0.36230  0.42440  0.71690  Biso   1.000  C
  C90      1.0000 0.29670  0.44770  0.66103  Biso   1.000  C
  C91      1.0000 0.09230  0.50234  0.61227  Biso   1.000  C
  C92      1.0000 0.10420  0.48496  0.86803  Biso   1.000  C
  C93      1.0000 0.22780  0.65788  0.99667  Biso   1.000  C
  C94      1.0000 0.36040  0.63055  0.99856  Biso   1.000  C
  C95      1.0000 0.45060  0.67492  0.00292  Biso   1.000  C
  C96      1.0000 0.41130  0.74610  0.00480  Biso   1.000  C
  C97      1.0000 0.27850  0.77460  0.00240  Biso   1.000  C
  C98      1.0000 0.18750  0.73040  0.99810  Biso   1.000  C
  C99      1.0000 0.13000  0.60875  0.99360  Biso   1.000  C
  C100     1.0000 0.59270  0.64200  0.00429  Biso   1.000  C
  C101     1.0000 0.83990  0.16510  0.46220  Biso   1.000  C
  C102     1.0000 0.91480  0.22270  0.45630  Biso   1.000  C
  C103     1.0000 0.91230  0.27680  0.40010  Biso   1.000  C
  C104     1.0000 0.84030  0.27730  0.34970  Biso   1.000  C
  C105     1.0000 0.76790  0.21700  0.35870  Biso   1.000  C
  C106     1.0000 0.83190  0.33200  0.28100  Biso   1.000  C
  C107     1.0000 0.77670  0.32510  0.23560  Biso   1.000  C
  C108     1.0000 0.70360  0.26460  0.23750  Biso   1.000  C
  C109     1.0000 0.63990  0.25390  0.18920  Biso   1.000  C
  C110     1.0000 0.57710  0.19700  0.19910  Biso   1.000  C
  C111     1.0000 0.57200  0.14740  0.26290  Biso   1.000  C
  C112     1.0000 0.69860  0.21200  0.30490  Biso   1.000  C
  C113     1.0000 0.35390  0.63500  0.48110  Biso   1.000  C
  C114     1.0000 0.41210  0.69610  0.48200  Biso   1.000  C
  C115     1.0000 0.41130  0.75190  0.42700  Biso   1.000  C
  C116     1.0000 0.36040  0.74660  0.37020  Biso   1.000  C
  C117     1.0000 0.31040  0.68143  0.37130  Biso   1.000  C
  C118     1.0000 0.35430  0.80160  0.30780  Biso   1.000  C
  C119     1.0000 0.31320  0.79320  0.25230  Biso   1.000  C
  C120     1.0000 0.27020  0.72700  0.25070  Biso   1.000  C
  C121     1.0000 0.23310  0.71370  0.19350  Biso   1.000  C
  C122     1.0000 0.19370  0.64890  0.19450  Biso   1.000  C
  C123     1.0000 0.18880  0.59600  0.25690  Biso   1.000  C
  C124     1.0000 0.26390  0.67140  0.31110  Biso   1.000  C
  C125     1.0000 0.05340  0.25640  0.15000  Biso   1.000  C
  C126     1.0000 0.04740  0.19740  0.20570  Biso   1.000  C
  C127     1.0000 0.11700  0.19400  0.25750  Biso   1.000  C
  C128     1.0000 0.19160  0.24980  0.25510  Biso   1.000  C
  C129     1.0000 0.19410  0.30730  0.19641  Biso   1.000  C
  C130     1.0000 0.26780  0.25080  0.30760  Biso   1.000  C
  C131     1.0000 0.34750  0.30180  0.29960  Biso   1.000  C
  C132     1.0000 0.35730  0.35920  0.23925  Biso   1.000  C
  C133     1.0000 0.44990  0.40940  0.22520  Biso   1.000  C
  C134     1.0000 0.45650  0.46070  0.16700  Biso   1.000  C
  C135     1.0000 0.36860  0.46340  0.12220  Biso   1.000  C
  C136     1.0000 0.27800  0.36280  0.18952  Biso   1.000  C
  N1       1.0000 0.77960  0.39223  0.68583  Biso   1.000  N
  N2       1.0000 0.69600  0.37274  0.57178  Biso   1.000  N
  N3       1.0000 0.23190  0.83748  0.58494  Biso   1.000  N
  N4       1.0000 0.36970  0.84640  0.68577  Biso   1.000  N
  N5       1.0000 0.87660  0.68900  0.85502  Biso   1.000  N
  N6       1.0000 0.71700  0.58518  0.86854  Biso   1.000  N
  N7       1.0000 0.55550  0.55190  0.60901  Biso   1.000  N
  N8       1.0000 0.22040  0.60777  0.31417  Biso   1.000  N
  N9       1.0000 0.30400  0.62726  0.42822  Biso   1.000  N
  N10      1.0000 0.76810  0.16252  0.41506  Biso   1.000  N
  N11      1.0000 0.63030  0.15360  0.31423  Biso   1.000  N
  N12      1.0000 0.12340  0.31100  0.14498  Biso   1.000  N
  N13      1.0000 0.28300  0.41482  0.13146  Biso   1.000  N
  N14      1.0000 0.44450  0.44810  0.39099  Biso   1.000  N
  O1       1.0000 0.13400  0.98955  0.56234  Biso   1.000  O
  O2       1.0000 0.18500  0.97172  0.66688  Biso   1.000  O
  O3       1.0000 0.51780  0.97891  0.62610  Biso   1.000  O
  O4       1.0000 0.64560  0.05436  0.54460  Biso   1.000  O
  O5       1.0000 0.53010  0.84107  0.54560  Biso   1.000  O
  O6       1.0000 0.61300  0.93888  0.48239  Biso   1.000  O
  O7       1.0000 0.81190  0.60501  0.52838  Biso   1.000  O
  O8       1.0000 0.00540  0.60331  0.45133  Biso   1.000  O
  O9       1.0000 0.83640  0.48807  0.44880  Biso   1.000  O
  O10      1.0000 0.03330  0.49048  0.37365  Biso   1.000  O
  O11      1.0000 0.85380  0.55527  0.08046  Biso   1.000  O
  O12      1.0000 0.98740  0.46357  0.12768  Biso   1.000  O
  O13      1.0000 0.84060  0.45763  0.98797  Biso   1.000  O
  O14      1.0000 0.97610  0.36280  0.02788  Biso   1.000  O
  O15      1.0000 0.31370  0.31836  0.01224  Biso   1.000  O
  O16      1.0000 0.38230  0.42597  0.98211  Biso   1.000  O
  O17      1.0000 0.58290  0.52963  0.55249  Biso   1.000  O
  O18      1.0000 0.64000  0.53210  0.64893  Biso   1.000  O
  O19      1.0000 0.45430  0.59320  0.62610  Biso   1.000  O
  O20      1.0000 0.86600  0.01045  0.43766  Biso   1.000  O
  O21      1.0000 0.81500  0.02828  0.33312  Biso   1.000  O
  O22      1.0000 0.48220  0.02109  0.37390  Biso   1.000  O
  O23      1.0000 0.35440  0.94564  0.45540  Biso   1.000  O
  O24      1.0000 0.46990  0.15893  0.45440  Biso   1.000  O
  O25      1.0000 0.38700  0.06112  0.51761  Biso   1.000  O
  O26      1.0000 0.18810  0.39499  0.47162  Biso   1.000  O
  O27      1.0000 0.99460  0.39669  0.54867  Biso   1.000  O
  O28      1.0000 0.16360  0.51193  0.55120  Biso   1.000  O
  O29      1.0000 0.96670  0.50952  0.62635  Biso   1.000  O
  O30      1.0000 0.14620  0.44473  0.91954  Biso   1.000  O
  O31      1.0000 0.01260  0.53643  0.87232  Biso   1.000  O
  O32      1.0000 0.15940  0.54237  0.01203  Biso   1.000  O
  O33      1.0000 0.02390  0.63720  0.97212  Biso   1.000  O
  O34      1.0000 0.68630  0.68164  0.98776  Biso   1.000  O
  O35      1.0000 0.61770  0.57403  0.01789  Biso   1.000  O
  O36      1.0000 0.41710  0.47037  0.44751  Biso   1.000  O
  O37      1.0000 0.36000  0.46790  0.35107  Biso   1.000  O
  O38      1.0000 0.54570  0.40680  0.37390  Biso   1.000  O
