data_image0
_cell_length_a       16.1652
_cell_length_b       16.1652
_cell_length_c       29.4964
_cell_angle_alpha    74.316
_cell_angle_beta     74.316
_cell_angle_gamma    63.7851

_symmetry_space_group_name_H-M    P 1
_symmetry_int_tables_number       1

loop_
  _symmetry_equiv_pos_as_xyz
  'x, y, z'

loop_
  _atom_site_label
  _atom_site_occupancy
  _atom_site_fract_x
  _atom_site_fract_y
  _atom_site_fract_z
  _atom_site_thermal_displace_type
  _atom_site_B_iso_or_equiv
  _atom_site_type_symbol
  Co1      1.0000 0.78939  0.12525  0.51700  Biso   1.000  Co
  Co2      1.0000 0.03762  0.81996  0.58090  Biso   1.000  Co
  Co3      1.0000 0.87475  0.21061  0.98300  Biso   1.000  Co
  Co4      1.0000 0.18004  0.96238  0.91910  Biso   1.000  Co
  Co5      1.0000 0.21061  0.87475  0.48300  Biso   1.000  Co
  Co6      1.0000 0.96238  0.18004  0.41910  Biso   1.000  Co
  Co7      1.0000 0.12525  0.78939  0.01700  Biso   1.000  Co
  Co8      1.0000 0.81996  0.03762  0.08090  Biso   1.000  Co
  Co9      1.0000 0.00000  0.00000  0.50000  Biso   1.000  Co
  Co10     1.0000 0.00000  0.00000  0.00000  Biso   1.000  Co
  H1       1.0000 0.71740  0.01980  0.61340  Biso   1.000  H
  H2       1.0000 0.63470  0.05030  0.68760  Biso   1.000  H
  H3       1.0000 0.54650  0.32370  0.63260  Biso   1.000  H
  H4       1.0000 0.63010  0.28530  0.55990  Biso   1.000  H
  H5       1.0000 0.48100  0.11440  0.73800  Biso   1.000  H
  H6       1.0000 0.37840  0.29640  0.82880  Biso   1.000  H
  H7       1.0000 0.56430  0.32550  0.71110  Biso   1.000  H
  H8       1.0000 0.47030  0.02030  0.83110  Biso   1.000  H
  H9       1.0000 0.38070  0.94170  0.87710  Biso   1.000  H
  H10      1.0000 0.15350  0.16230  0.86090  Biso   1.000  H
  H11      1.0000 0.23670  0.24930  0.81790  Biso   1.000  H
  H12      1.0000 0.38970  0.46870  0.85910  Biso   1.000  H
  H13      1.0000 0.17320  0.68120  0.80450  Biso   1.000  H
  H14      1.0000 0.37150  0.49970  0.72250  Biso   1.000  H
  H15      1.0000 0.36470  0.57450  0.90450  Biso   1.000  H
  H16      1.0000 0.30850  0.64290  0.97080  Biso   1.000  H
  H17      1.0000 0.05240  0.72420  0.95430  Biso   1.000  H
  H18      1.0000 0.10090  0.66270  0.88650  Biso   1.000  H
  H19      1.0000 0.13750  0.77650  0.73820  Biso   1.000  H
  H20      1.0000 0.06390  0.85430  0.67450  Biso   1.000  H
  H21      1.0000 0.20950  0.64410  0.60890  Biso   1.000  H
  H22      1.0000 0.28340  0.55880  0.67200  Biso   1.000  H
  H23      1.0000 0.95460  0.72820  0.52580  Biso   1.000  H
  H24      1.0000 0.90260  0.60880  0.54420  Biso   1.000  H
  H25      1.0000 0.63800  0.79400  0.56440  Biso   1.000  H
  H26      1.0000 0.68890  0.91390  0.54630  Biso   1.000  H
  H27      1.0000 0.83530  0.58350  0.48710  Biso   1.000  H
  H28      1.0000 0.87570  0.45170  0.45650  Biso   1.000  H
  H29      1.0000 0.73240  0.35420  0.57510  Biso   1.000  H
  H30      1.0000 0.69730  0.48270  0.60720  Biso   1.000  H
  H31      1.0000 0.11780  0.03260  0.30270  Biso   1.000  H
  H32      1.0000 0.17950  0.94570  0.24280  Biso   1.000  H
  H33      1.0000 0.21660  0.71160  0.33960  Biso   1.000  H
  H34      1.0000 0.15970  0.79810  0.40010  Biso   1.000  H
  H35      1.0000 0.98020  0.28260  0.88660  Biso   1.000  H
  H36      1.0000 0.94970  0.36530  0.81240  Biso   1.000  H
  H37      1.0000 0.67630  0.45350  0.86740  Biso   1.000  H
  H38      1.0000 0.71470  0.36990  0.94010  Biso   1.000  H
  H39      1.0000 0.88560  0.51900  0.76200  Biso   1.000  H
  H40      1.0000 0.70360  0.62160  0.67120  Biso   1.000  H
  H41      1.0000 0.67450  0.43570  0.78890  Biso   1.000  H
  H42      1.0000 0.97970  0.52970  0.66890  Biso   1.000  H
  H43      1.0000 0.05830  0.61930  0.62290  Biso   1.000  H
  H44      1.0000 0.83770  0.84650  0.63910  Biso   1.000  H
  H45      1.0000 0.75070  0.76330  0.68210  Biso   1.000  H
  H46      1.0000 0.53130  0.61030  0.64090  Biso   1.000  H
  H47      1.0000 0.31880  0.82680  0.69550  Biso   1.000  H
  H48      1.0000 0.50030  0.62850  0.77750  Biso   1.000  H
  H49      1.0000 0.42550  0.63530  0.59550  Biso   1.000  H
  H50      1.0000 0.35710  0.69150  0.52920  Biso   1.000  H
  H51      1.0000 0.27580  0.94760  0.54570  Biso   1.000  H
  H52      1.0000 0.33730  0.89910  0.61350  Biso   1.000  H
  H53      1.0000 0.22350  0.86250  0.76180  Biso   1.000  H
  H54      1.0000 0.14570  0.93610  0.82550  Biso   1.000  H
  H55      1.0000 0.35590  0.79050  0.89110  Biso   1.000  H
  H56      1.0000 0.44120  0.71660  0.82800  Biso   1.000  H
  H57      1.0000 0.27180  0.04540  0.97420  Biso   1.000  H
  H58      1.0000 0.39120  0.09740  0.95580  Biso   1.000  H
  H59      1.0000 0.20600  0.36200  0.93560  Biso   1.000  H
  H60      1.0000 0.08610  0.31110  0.95370  Biso   1.000  H
  H61      1.0000 0.41650  0.16470  0.01290  Biso   1.000  H
  H62      1.0000 0.54830  0.12430  0.04350  Biso   1.000  H
  H63      1.0000 0.64580  0.26760  0.92490  Biso   1.000  H
  H64      1.0000 0.51730  0.30270  0.89280  Biso   1.000  H
  H65      1.0000 0.96740  0.88220  0.19730  Biso   1.000  H
  H66      1.0000 0.05430  0.82050  0.25720  Biso   1.000  H
  H67      1.0000 0.28840  0.78340  0.16040  Biso   1.000  H
  H68      1.0000 0.20190  0.84030  0.09990  Biso   1.000  H
  H69      1.0000 0.28260  0.98020  0.38660  Biso   1.000  H
  H70      1.0000 0.36530  0.94970  0.31240  Biso   1.000  H
  H71      1.0000 0.45350  0.67630  0.36740  Biso   1.000  H
  H72      1.0000 0.36990  0.71470  0.44010  Biso   1.000  H
  H73      1.0000 0.51900  0.88560  0.26200  Biso   1.000  H
  H74      1.0000 0.62160  0.70360  0.17120  Biso   1.000  H
  H75      1.0000 0.43570  0.67450  0.28890  Biso   1.000  H
  H76      1.0000 0.52970  0.97970  0.16890  Biso   1.000  H
  H77      1.0000 0.61930  0.05830  0.12290  Biso   1.000  H
  H78      1.0000 0.84650  0.83770  0.13910  Biso   1.000  H
  H79      1.0000 0.76330  0.75070  0.18210  Biso   1.000  H
  H80      1.0000 0.61030  0.53130  0.14090  Biso   1.000  H
  H81      1.0000 0.82680  0.31880  0.19550  Biso   1.000  H
  H82      1.0000 0.62850  0.50030  0.27750  Biso   1.000  H
  H83      1.0000 0.63530  0.42550  0.09550  Biso   1.000  H
  H84      1.0000 0.69150  0.35710  0.02920  Biso   1.000  H
  H85      1.0000 0.94760  0.27580  0.04570  Biso   1.000  H
  H86      1.0000 0.89910  0.33730  0.11350  Biso   1.000  H
  H87      1.0000 0.86250  0.22350  0.26180  Biso   1.000  H
  H88      1.0000 0.93610  0.14570  0.32550  Biso   1.000  H
  H89      1.0000 0.79050  0.35590  0.39110  Biso   1.000  H
  H90      1.0000 0.71660  0.44120  0.32800  Biso   1.000  H
  H91      1.0000 0.04540  0.27180  0.47420  Biso   1.000  H
  H92      1.0000 0.09740  0.39120  0.45580  Biso   1.000  H
  H93      1.0000 0.36200  0.20600  0.43560  Biso   1.000  H
  H94      1.0000 0.31110  0.08610  0.45370  Biso   1.000  H
  H95      1.0000 0.16470  0.41650  0.51290  Biso   1.000  H
  H96      1.0000 0.12430  0.54830  0.54350  Biso   1.000  H
  H97      1.0000 0.26760  0.64580  0.42490  Biso   1.000  H
  H98      1.0000 0.30270  0.51730  0.39280  Biso   1.000  H
  H99      1.0000 0.88220  0.96740  0.69730  Biso   1.000  H
  H100     1.0000 0.82050  0.05430  0.75720  Biso   1.000  H
  H101     1.0000 0.78340  0.28840  0.66040  Biso   1.000  H
  H102     1.0000 0.84030  0.20190  0.59990  Biso   1.000  H
  H103     1.0000 0.01980  0.71740  0.11340  Biso   1.000  H
  H104     1.0000 0.05030  0.63470  0.18760  Biso   1.000  H
  H105     1.0000 0.32370  0.54650  0.13260  Biso   1.000  H
  H106     1.0000 0.28530  0.63010  0.05990  Biso   1.000  H
  H107     1.0000 0.11440  0.48100  0.23800  Biso   1.000  H
  H108     1.0000 0.29640  0.37840  0.32880  Biso   1.000  H
  H109     1.0000 0.32550  0.56430  0.21110  Biso   1.000  H
  H110     1.0000 0.02030  0.47030  0.33110  Biso   1.000  H
  H111     1.0000 0.94170  0.38070  0.37710  Biso   1.000  H
  H112     1.0000 0.16230  0.15350  0.36090  Biso   1.000  H
  H113     1.0000 0.24930  0.23670  0.31790  Biso   1.000  H
  H114     1.0000 0.46870  0.38970  0.35910  Biso   1.000  H
  H115     1.0000 0.68120  0.17320  0.30450  Biso   1.000  H
  H116     1.0000 0.49970  0.37150  0.22250  Biso   1.000  H
  H117     1.0000 0.57450  0.36470  0.40450  Biso   1.000  H
  H118     1.0000 0.64290  0.30850  0.47080  Biso   1.000  H
  H119     1.0000 0.72420  0.05240  0.45430  Biso   1.000  H
  H120     1.0000 0.66270  0.10090  0.38650  Biso   1.000  H
  H121     1.0000 0.77650  0.13750  0.23820  Biso   1.000  H
  H122     1.0000 0.85430  0.06390  0.17450  Biso   1.000  H
  H123     1.0000 0.64410  0.20950  0.10890  Biso   1.000  H
  H124     1.0000 0.55880  0.28340  0.17200  Biso   1.000  H
  H125     1.0000 0.72820  0.95460  0.02580  Biso   1.000  H
  H126     1.0000 0.60880  0.90260  0.04420  Biso   1.000  H
  H127     1.0000 0.79400  0.63800  0.06440  Biso   1.000  H
  H128     1.0000 0.91390  0.68890  0.04630  Biso   1.000  H
  H129     1.0000 0.58350  0.83530  0.98710  Biso   1.000  H
  H130     1.0000 0.45170  0.87570  0.95650  Biso   1.000  H
  H131     1.0000 0.35420  0.73240  0.07510  Biso   1.000  H
  H132     1.0000 0.48270  0.69730  0.10720  Biso   1.000  H
  H133     1.0000 0.03260  0.11780  0.80270  Biso   1.000  H
  H134     1.0000 0.94570  0.17950  0.74280  Biso   1.000  H
  H135     1.0000 0.71160  0.21660  0.83960  Biso   1.000  H
  H136     1.0000 0.79810  0.15970  0.90010  Biso   1.000  H
  C1       1.0000 0.68357  0.08179  0.61755  Biso   1.000  C
  C2       1.0000 0.63395  0.09955  0.66231  Biso   1.000  C
  C3       1.0000 0.58310  0.19100  0.66941  Biso   1.000  C
  C4       1.0000 0.58165  0.26117  0.62976  Biso   1.000  C
  C5       1.0000 0.63263  0.23745  0.58619  Biso   1.000  C
  C6       1.0000 0.53046  0.21612  0.71652  Biso   1.000  C
  C7       1.0000 0.47803  0.16743  0.74624  Biso   1.000  C
  C8       1.0000 0.42096  0.19730  0.78835  Biso   1.000  C
  C9       1.0000 0.41743  0.27513  0.80113  Biso   1.000  C
  C10      1.0000 0.47296  0.32096  0.77201  Biso   1.000  C
  C11      1.0000 0.52825  0.29313  0.73028  Biso   1.000  C
  C12      1.0000 0.36370  0.14474  0.81864  Biso   1.000  C
  C13      1.0000 0.40540  0.05154  0.83714  Biso   1.000  C
  C14      1.0000 0.35089  0.00473  0.86461  Biso   1.000  C
  C15      1.0000 0.21861  0.13327  0.85567  Biso   1.000  C
  C16      1.0000 0.26807  0.18583  0.82897  Biso   1.000  C
  C17      1.0000 0.39165  0.47243  0.79024  Biso   1.000  C
  C18      1.0000 0.35766  0.50162  0.83368  Biso   1.000  C
  C19      1.0000 0.27511  0.58071  0.83935  Biso   1.000  C
  C20      1.0000 0.22906  0.62888  0.80071  Biso   1.000  C
  C21      1.0000 0.26473  0.60053  0.75652  Biso   1.000  C
  C22      1.0000 0.34695  0.52049  0.75170  Biso   1.000  C
  C23      1.0000 0.23934  0.61474  0.88566  Biso   1.000  C
  C24      1.0000 0.30050  0.60704  0.91319  Biso   1.000  C
  C25      1.0000 0.26598  0.64760  0.95336  Biso   1.000  C
  C26      1.0000 0.11640  0.69562  0.94347  Biso   1.000  C
  C27      1.0000 0.14495  0.65853  0.90276  Biso   1.000  C
  C28      1.0000 0.21692  0.65530  0.71447  Biso   1.000  C
  C29      1.0000 0.15208  0.74628  0.71258  Biso   1.000  C
  C30      1.0000 0.10835  0.79341  0.67375  Biso   1.000  C
  C31      1.0000 0.19254  0.67100  0.63601  Biso   1.000  C
  C32      1.0000 0.23805  0.61901  0.67391  Biso   1.000  C
  C33      1.0000 0.85807  0.91207  0.52720  Biso   1.000  C
  C34      1.0000 0.82721  0.83353  0.53477  Biso   1.000  C
  C35      1.0000 0.89077  0.74185  0.53378  Biso   1.000  C
  C36      1.0000 0.85981  0.67039  0.54456  Biso   1.000  C
  C37      1.0000 0.76613  0.69105  0.55576  Biso   1.000  C
  C38      1.0000 0.70172  0.78112  0.55668  Biso   1.000  C
  C39      1.0000 0.73229  0.85241  0.54599  Biso   1.000  C
  C40      1.0000 0.76219  0.54629  0.55010  Biso   1.000  C
  C41      1.0000 0.81537  0.53669  0.50505  Biso   1.000  C
  C42      1.0000 0.83884  0.45808  0.48661  Biso   1.000  C
  C43      1.0000 0.80849  0.38851  0.51219  Biso   1.000  C
  C44      1.0000 0.75417  0.39991  0.55746  Biso   1.000  C
  C45      1.0000 0.73217  0.47713  0.57659  Biso   1.000  C
  C46      1.0000 0.83107  0.30383  0.49228  Biso   1.000  C
  C47      1.0000 0.08897  0.98209  0.39689  Biso   1.000  C
  C48      1.0000 0.13089  0.92509  0.35802  Biso   1.000  C
  C49      1.0000 0.13770  0.96778  0.31035  Biso   1.000  C
  C50      1.0000 0.17302  0.91646  0.27459  Biso   1.000  C
  C51      1.0000 0.19913  0.82085  0.28581  Biso   1.000  C
  C52      1.0000 0.19592  0.77652  0.33232  Biso   1.000  C
  C53      1.0000 0.16191  0.82835  0.36837  Biso   1.000  C
  C54      1.0000 0.91821  0.31643  0.88245  Biso   1.000  C
  C55      1.0000 0.90045  0.36605  0.83769  Biso   1.000  C
  C56      1.0000 0.80900  0.41690  0.83059  Biso   1.000  C
  C57      1.0000 0.73883  0.41835  0.87024  Biso   1.000  C
  C58      1.0000 0.76255  0.36737  0.91381  Biso   1.000  C
  C59      1.0000 0.78388  0.46954  0.78348  Biso   1.000  C
  C60      1.0000 0.83257  0.52197  0.75376  Biso   1.000  C
  C61      1.0000 0.80270  0.57904  0.71165  Biso   1.000  C
  C62      1.0000 0.72487  0.58257  0.69887  Biso   1.000  C
  C63      1.0000 0.67904  0.52704  0.72799  Biso   1.000  C
  C64      1.0000 0.70687  0.47175  0.76972  Biso   1.000  C
  C65      1.0000 0.85526  0.63630  0.68136  Biso   1.000  C
  C66      1.0000 0.94846  0.59460  0.66286  Biso   1.000  C
  C67      1.0000 0.99527  0.64911  0.63539  Biso   1.000  C
  C68      1.0000 0.86673  0.78139  0.64433  Biso   1.000  C
  C69      1.0000 0.81417  0.73193  0.67103  Biso   1.000  C
  C70      1.0000 0.52757  0.60835  0.70976  Biso   1.000  C
  C71      1.0000 0.49838  0.64234  0.66632  Biso   1.000  C
  C72      1.0000 0.41929  0.72489  0.66065  Biso   1.000  C
  C73      1.0000 0.37112  0.77094  0.69929  Biso   1.000  C
  C74      1.0000 0.39947  0.73527  0.74348  Biso   1.000  C
  C75      1.0000 0.47951  0.65305  0.74830  Biso   1.000  C
  C76      1.0000 0.38526  0.76066  0.61434  Biso   1.000  C
  C77      1.0000 0.39296  0.69950  0.58681  Biso   1.000  C
  C78      1.0000 0.35240  0.73402  0.54664  Biso   1.000  C
  C79      1.0000 0.30438  0.88360  0.55653  Biso   1.000  C
  C80      1.0000 0.34147  0.85505  0.59724  Biso   1.000  C
  C81      1.0000 0.34470  0.78308  0.78553  Biso   1.000  C
  C82      1.0000 0.25372  0.84792  0.78742  Biso   1.000  C
  C83      1.0000 0.20659  0.89165  0.82625  Biso   1.000  C
  C84      1.0000 0.32900  0.80746  0.86399  Biso   1.000  C
  C85      1.0000 0.38099  0.76195  0.82609  Biso   1.000  C
  C86      1.0000 0.08793  0.14193  0.97280  Biso   1.000  C
  C87      1.0000 0.16647  0.17279  0.96523  Biso   1.000  C
  C88      1.0000 0.25815  0.10923  0.96622  Biso   1.000  C
  C89      1.0000 0.32961  0.14019  0.95544  Biso   1.000  C
  C90      1.0000 0.30895  0.23387  0.94424  Biso   1.000  C
  C91      1.0000 0.21888  0.29828  0.94332  Biso   1.000  C
  C92      1.0000 0.14759  0.26771  0.95401  Biso   1.000  C
  C93      1.0000 0.45371  0.23781  0.94990  Biso   1.000  C
  C94      1.0000 0.46331  0.18463  0.99495  Biso   1.000  C
  C95      1.0000 0.54192  0.16116  0.01339  Biso   1.000  C
  C96      1.0000 0.61149  0.19151  0.98781  Biso   1.000  C
  C97      1.0000 0.60009  0.24583  0.94254  Biso   1.000  C
  C98      1.0000 0.52287  0.26783  0.92341  Biso   1.000  C
  C99      1.0000 0.69617  0.16893  0.00772  Biso   1.000  C
  C100     1.0000 0.01791  0.91103  0.10311  Biso   1.000  C
  C101     1.0000 0.07491  0.86911  0.14198  Biso   1.000  C
  C102     1.0000 0.03222  0.86230  0.18965  Biso   1.000  C
  C103     1.0000 0.08354  0.82698  0.22541  Biso   1.000  C
  C104     1.0000 0.17915  0.80087  0.21419  Biso   1.000  C
  C105     1.0000 0.22348  0.80408  0.16768  Biso   1.000  C
  C106     1.0000 0.17165  0.83809  0.13163  Biso   1.000  C
  C107     1.0000 0.31643  0.91821  0.38245  Biso   1.000  C
  C108     1.0000 0.36605  0.90045  0.33769  Biso   1.000  C
  C109     1.0000 0.41690  0.80900  0.33059  Biso   1.000  C
  C110     1.0000 0.41835  0.73883  0.37024  Biso   1.000  C
  C111     1.0000 0.36737  0.76255  0.41381  Biso   1.000  C
  C112     1.0000 0.46954  0.78388  0.28348  Biso   1.000  C
  C113     1.0000 0.52197  0.83257  0.25376  Biso   1.000  C
  C114     1.0000 0.57904  0.80270  0.21165  Biso   1.000  C
  C115     1.0000 0.58257  0.72487  0.19887  Biso   1.000  C
  C116     1.0000 0.52704  0.67904  0.22799  Biso   1.000  C
  C117     1.0000 0.47175  0.70687  0.26972  Biso   1.000  C
  C118     1.0000 0.63630  0.85526  0.18136  Biso   1.000  C
  C119     1.0000 0.59460  0.94846  0.16286  Biso   1.000  C
  C120     1.0000 0.64911  0.99527  0.13539  Biso   1.000  C
  C121     1.0000 0.78139  0.86673  0.14433  Biso   1.000  C
  C122     1.0000 0.73193  0.81417  0.17103  Biso   1.000  C
  C123     1.0000 0.60835  0.52757  0.20976  Biso   1.000  C
  C124     1.0000 0.64234  0.49838  0.16632  Biso   1.000  C
  C125     1.0000 0.72489  0.41929  0.16065  Biso   1.000  C
  C126     1.0000 0.77094  0.37112  0.19929  Biso   1.000  C
  C127     1.0000 0.73527  0.39947  0.24348  Biso   1.000  C
  C128     1.0000 0.65305  0.47951  0.24830  Biso   1.000  C
  C129     1.0000 0.76066  0.38526  0.11434  Biso   1.000  C
  C130     1.0000 0.69950  0.39296  0.08681  Biso   1.000  C
  C131     1.0000 0.73402  0.35240  0.04664  Biso   1.000  C
  C132     1.0000 0.88360  0.30438  0.05653  Biso   1.000  C
  C133     1.0000 0.85505  0.34147  0.09724  Biso   1.000  C
  C134     1.0000 0.78308  0.34470  0.28553  Biso   1.000  C
  C135     1.0000 0.84792  0.25372  0.28742  Biso   1.000  C
  C136     1.0000 0.89165  0.20659  0.32625  Biso   1.000  C
  C137     1.0000 0.80746  0.32900  0.36399  Biso   1.000  C
  C138     1.0000 0.76195  0.38099  0.32609  Biso   1.000  C
  C139     1.0000 0.14193  0.08793  0.47280  Biso   1.000  C
  C140     1.0000 0.17279  0.16647  0.46523  Biso   1.000  C
  C141     1.0000 0.10923  0.25815  0.46622  Biso   1.000  C
  C142     1.0000 0.14019  0.32961  0.45544  Biso   1.000  C
  C143     1.0000 0.23387  0.30895  0.44424  Biso   1.000  C
  C144     1.0000 0.29828  0.21888  0.44332  Biso   1.000  C
  C145     1.0000 0.26771  0.14759  0.45401  Biso   1.000  C
  C146     1.0000 0.23781  0.45371  0.44990  Biso   1.000  C
  C147     1.0000 0.18463  0.46331  0.49495  Biso   1.000  C
  C148     1.0000 0.16116  0.54192  0.51339  Biso   1.000  C
  C149     1.0000 0.19151  0.61149  0.48781  Biso   1.000  C
  C150     1.0000 0.24583  0.60009  0.44254  Biso   1.000  C
  C151     1.0000 0.26783  0.52287  0.42341  Biso   1.000  C
  C152     1.0000 0.16893  0.69617  0.50772  Biso   1.000  C
  C153     1.0000 0.91103  0.01791  0.60311  Biso   1.000  C
  C154     1.0000 0.86911  0.07491  0.64198  Biso   1.000  C
  C155     1.0000 0.86230  0.03222  0.68965  Biso   1.000  C
  C156     1.0000 0.82698  0.08354  0.72541  Biso   1.000  C
  C157     1.0000 0.80087  0.17915  0.71419  Biso   1.000  C
  C158     1.0000 0.80408  0.22348  0.66768  Biso   1.000  C
  C159     1.0000 0.83809  0.17165  0.63163  Biso   1.000  C
  C160     1.0000 0.08179  0.68357  0.11755  Biso   1.000  C
  C161     1.0000 0.09955  0.63395  0.16231  Biso   1.000  C
  C162     1.0000 0.19100  0.58310  0.16941  Biso   1.000  C
  C163     1.0000 0.26117  0.58165  0.12976  Biso   1.000  C
  C164     1.0000 0.23745  0.63263  0.08619  Biso   1.000  C
  C165     1.0000 0.21612  0.53046  0.21652  Biso   1.000  C
  C166     1.0000 0.16743  0.47803  0.24624  Biso   1.000  C
  C167     1.0000 0.19730  0.42096  0.28835  Biso   1.000  C
  C168     1.0000 0.27513  0.41743  0.30113  Biso   1.000  C
  C169     1.0000 0.32096  0.47296  0.27201  Biso   1.000  C
  C170     1.0000 0.29313  0.52825  0.23028  Biso   1.000  C
  C171     1.0000 0.14474  0.36370  0.31864  Biso   1.000  C
  C172     1.0000 0.05154  0.40540  0.33714  Biso   1.000  C
  C173     1.0000 0.00473  0.35089  0.36461  Biso   1.000  C
  C174     1.0000 0.13327  0.21861  0.35567  Biso   1.000  C
  C175     1.0000 0.18583  0.26807  0.32897  Biso   1.000  C
  C176     1.0000 0.47243  0.39165  0.29024  Biso   1.000  C
  C177     1.0000 0.50162  0.35766  0.33368  Biso   1.000  C
  C178     1.0000 0.58071  0.27511  0.33935  Biso   1.000  C
  C179     1.0000 0.62888  0.22906  0.30071  Biso   1.000  C
  C180     1.0000 0.60053  0.26473  0.25652  Biso   1.000  C
  C181     1.0000 0.52049  0.34695  0.25170  Biso   1.000  C
  C182     1.0000 0.61474  0.23934  0.38566  Biso   1.000  C
  C183     1.0000 0.60704  0.30050  0.41319  Biso   1.000  C
  C184     1.0000 0.64760  0.26598  0.45336  Biso   1.000  C
  C185     1.0000 0.69562  0.11640  0.44347  Biso   1.000  C
  C186     1.0000 0.65853  0.14495  0.40276  Biso   1.000  C
  C187     1.0000 0.65530  0.21692  0.21447  Biso   1.000  C
  C188     1.0000 0.74628  0.15208  0.21258  Biso   1.000  C
  C189     1.0000 0.79341  0.10835  0.17375  Biso   1.000  C
  C190     1.0000 0.67100  0.19254  0.13601  Biso   1.000  C
  C191     1.0000 0.61901  0.23805  0.17391  Biso   1.000  C
  C192     1.0000 0.91207  0.85807  0.02720  Biso   1.000  C
  C193     1.0000 0.83353  0.82721  0.03477  Biso   1.000  C
  C194     1.0000 0.74185  0.89077  0.03378  Biso   1.000  C
  C195     1.0000 0.67039  0.85981  0.04456  Biso   1.000  C
  C196     1.0000 0.69105  0.76613  0.05576  Biso   1.000  C
  C197     1.0000 0.78112  0.70172  0.05668  Biso   1.000  C
  C198     1.0000 0.85241  0.73229  0.04599  Biso   1.000  C
  C199     1.0000 0.54629  0.76219  0.05010  Biso   1.000  C
  C200     1.0000 0.53669  0.81537  0.00505  Biso   1.000  C
  C201     1.0000 0.45808  0.83884  0.98661  Biso   1.000  C
  C202     1.0000 0.38851  0.80849  0.01219  Biso   1.000  C
  C203     1.0000 0.39991  0.75417  0.05746  Biso   1.000  C
  C204     1.0000 0.47713  0.73217  0.07659  Biso   1.000  C
  C205     1.0000 0.30383  0.83107  0.99228  Biso   1.000  C
  C206     1.0000 0.98209  0.08897  0.89689  Biso   1.000  C
  C207     1.0000 0.92509  0.13089  0.85802  Biso   1.000  C
  C208     1.0000 0.96778  0.13770  0.81035  Biso   1.000  C
  C209     1.0000 0.91646  0.17302  0.77459  Biso   1.000  C
  C210     1.0000 0.82085  0.19913  0.78581  Biso   1.000  C
  C211     1.0000 0.77652  0.19592  0.83232  Biso   1.000  C
  C212     1.0000 0.82835  0.16191  0.86837  Biso   1.000  C
  N1       1.0000 0.68539  0.14943  0.57975  Biso   1.000  N
  N2       1.0000 0.25760  0.04412  0.87445  Biso   1.000  N
  N3       1.0000 0.17484  0.69348  0.96879  Biso   1.000  N
  N4       1.0000 0.12560  0.75738  0.63527  Biso   1.000  N
  N5       1.0000 0.85057  0.31461  0.92025  Biso   1.000  N
  N6       1.0000 0.95588  0.74240  0.62555  Biso   1.000  N
  N7       1.0000 0.30652  0.82516  0.53121  Biso   1.000  N
  N8       1.0000 0.24262  0.87440  0.86473  Biso   1.000  N
  N9       1.0000 0.31461  0.85057  0.42025  Biso   1.000  N
  N10      1.0000 0.74240  0.95588  0.12555  Biso   1.000  N
  N11      1.0000 0.82516  0.30652  0.03121  Biso   1.000  N
  N12      1.0000 0.87440  0.24262  0.36473  Biso   1.000  N
  N13      1.0000 0.14943  0.68539  0.07975  Biso   1.000  N
  N14      1.0000 0.04412  0.25760  0.37445  Biso   1.000  N
  N15      1.0000 0.69348  0.17484  0.46879  Biso   1.000  N
  N16      1.0000 0.75738  0.12560  0.13527  Biso   1.000  N
  O1       1.0000 0.47574  0.39540  0.78594  Biso   1.000  O
  O2       1.0000 0.72880  0.62346  0.57153  Biso   1.000  O
  O3       1.0000 0.79457  0.99225  0.52758  Biso   1.000  O
  O4       1.0000 0.94470  0.89256  0.52143  Biso   1.000  O
  O5       1.0000 0.89012  0.29076  0.45428  Biso   1.000  O
  O6       1.0000 0.78923  0.25183  0.51500  Biso   1.000  O
  O7       1.0000 0.05429  0.06979  0.38403  Biso   1.000  O
  O8       1.0000 0.08964  0.93956  0.43981  Biso   1.000  O
  O9       1.0000 0.90012  0.09326  0.46134  Biso   1.000  O
  O10      1.0000 0.60460  0.52426  0.71406  Biso   1.000  O
  O11      1.0000 0.37654  0.27120  0.92847  Biso   1.000  O
  O12      1.0000 0.00775  0.20543  0.97242  Biso   1.000  O
  O13      1.0000 0.10744  0.05530  0.97857  Biso   1.000  O
  O14      1.0000 0.70924  0.10988  0.04572  Biso   1.000  O
  O15      1.0000 0.74817  0.21077  0.98500  Biso   1.000  O
  O16      1.0000 0.93021  0.94571  0.11597  Biso   1.000  O
  O17      1.0000 0.06044  0.91036  0.06019  Biso   1.000  O
  O18      1.0000 0.90674  0.09988  0.03866  Biso   1.000  O
  O19      1.0000 0.52426  0.60460  0.21406  Biso   1.000  O
  O20      1.0000 0.27120  0.37654  0.42847  Biso   1.000  O
  O21      1.0000 0.20543  0.00775  0.47242  Biso   1.000  O
  O22      1.0000 0.05530  0.10744  0.47857  Biso   1.000  O
  O23      1.0000 0.10988  0.70924  0.54572  Biso   1.000  O
  O24      1.0000 0.21077  0.74817  0.48500  Biso   1.000  O
  O25      1.0000 0.94571  0.93021  0.61597  Biso   1.000  O
  O26      1.0000 0.91036  0.06044  0.56019  Biso   1.000  O
  O27      1.0000 0.09988  0.90674  0.53866  Biso   1.000  O
  O28      1.0000 0.39540  0.47574  0.28594  Biso   1.000  O
  O29      1.0000 0.62346  0.72880  0.07153  Biso   1.000  O
  O30      1.0000 0.99225  0.79457  0.02758  Biso   1.000  O
  O31      1.0000 0.89256  0.94470  0.02143  Biso   1.000  O
  O32      1.0000 0.29076  0.89012  0.95428  Biso   1.000  O
  O33      1.0000 0.25183  0.78923  0.01500  Biso   1.000  O
  O34      1.0000 0.06979  0.05429  0.88403  Biso   1.000  O
  O35      1.0000 0.93956  0.08964  0.93981  Biso   1.000  O
  O36      1.0000 0.09326  0.90012  0.96134  Biso   1.000  O
  O37      1.0000 0.23340  0.76660  0.25000  Biso   1.000  O
  O38      1.0000 0.76660  0.23340  0.75000  Biso   1.000  O
