data_image0
_cell_length_a       10.152
_cell_length_b       17.953
_cell_length_c       18.062
_cell_angle_alpha    90
_cell_angle_beta     94.62
_cell_angle_gamma    90

_symmetry_space_group_name_H-M    P 1
_symmetry_int_tables_number       1

loop_
  _symmetry_equiv_pos_as_xyz
  'x, y, z'

loop_
  _atom_site_label
  _atom_site_occupancy
  _atom_site_fract_x
  _atom_site_fract_y
  _atom_site_fract_z
  _atom_site_thermal_displace_type
  _atom_site_B_iso_or_equiv
  _atom_site_type_symbol
  Co1      1.0000 0.50930  0.69537  0.62858  Biso   1.000  Co
  Co2      1.0000 0.27432  0.75069  0.48809  Biso   1.000  Co
  Co3      1.0000 0.49070  0.19537  0.37142  Biso   1.000  Co
  Co4      1.0000 0.72568  0.25069  0.51191  Biso   1.000  Co
  H1       1.0000 0.62050  0.05280  0.77510  Biso   1.000  H
  H2       1.0000 0.86460  0.10990  0.10100  Biso   1.000  H
  H3       1.0000 0.02290  0.12140  0.80280  Biso   1.000  H
  H4       1.0000 0.11410  0.14290  0.92280  Biso   1.000  H
  H5       1.0000 0.76630  0.09260  0.00210  Biso   1.000  H
  H6       1.0000 0.67510  0.07120  0.88210  Biso   1.000  H
  H7       1.0000 0.58950  0.91850  0.69740  Biso   1.000  H
  H8       1.0000 0.45840  0.96550  0.48730  Biso   1.000  H
  H9       1.0000 0.62650  0.12760  0.62230  Biso   1.000  H
  H10      1.0000 0.16540  0.16010  0.18330  Biso   1.000  H
  H11      1.0000 0.03500  0.20460  0.38190  Biso   1.000  H
  H12      1.0000 0.77440  0.16360  0.20630  Biso   1.000  H
  H13      1.0000 0.15320  0.86890  0.48600  Biso   1.000  H
  H14      1.0000 0.10390  0.83060  0.42560  Biso   1.000  H
  H15      1.0000 0.07010  0.66370  0.45760  Biso   1.000  H
  H16      1.0000 0.16210  0.64730  0.40250  Biso   1.000  H
  H17      1.0000 0.34620  0.73330  0.35290  Biso   1.000  H
  H18      1.0000 0.28200  0.80540  0.35390  Biso   1.000  H
  H19      1.0000 0.37950  0.55280  0.22490  Biso   1.000  H
  H20      1.0000 0.13540  0.60990  0.89900  Biso   1.000  H
  H21      1.0000 0.97710  0.62140  0.19720  Biso   1.000  H
  H22      1.0000 0.88590  0.64290  0.07720  Biso   1.000  H
  H23      1.0000 0.23370  0.59260  0.99790  Biso   1.000  H
  H24      1.0000 0.32490  0.57120  0.11790  Biso   1.000  H
  H25      1.0000 0.41050  0.41850  0.30260  Biso   1.000  H
  H26      1.0000 0.54160  0.46550  0.51270  Biso   1.000  H
  H27      1.0000 0.37350  0.62760  0.37770  Biso   1.000  H
  H28      1.0000 0.83460  0.66010  0.81670  Biso   1.000  H
  H29      1.0000 0.96500  0.70460  0.61810  Biso   1.000  H
  H30      1.0000 0.22560  0.66360  0.79370  Biso   1.000  H
  H31      1.0000 0.84680  0.36890  0.51400  Biso   1.000  H
  H32      1.0000 0.89610  0.33060  0.57440  Biso   1.000  H
  H33      1.0000 0.92990  0.16370  0.54240  Biso   1.000  H
  H34      1.0000 0.83790  0.14730  0.59750  Biso   1.000  H
  H35      1.0000 0.65380  0.23330  0.64710  Biso   1.000  H
  H36      1.0000 0.71800  0.30540  0.64610  Biso   1.000  H
  C1       1.0000 0.83999  0.09417  0.83054  Biso   1.000  C
  C2       1.0000 0.97149  0.11565  0.84275  Biso   1.000  C
  C3       1.0000 0.02611  0.12850  0.91467  Biso   1.000  C
  C4       1.0000 0.94923  0.11986  0.97439  Biso   1.000  C
  C5       1.0000 0.81773  0.09838  0.96218  Biso   1.000  C
  C6       1.0000 0.76311  0.08553  0.89026  Biso   1.000  C
  C7       1.0000 0.78660  0.08465  0.75237  Biso   1.000  C
  C8       1.0000 0.00899  0.14279  0.04803  Biso   1.000  C
  C9       1.0000 0.61600  0.02569  0.66965  Biso   1.000  C
  C10      1.0000 0.57570  0.95293  0.65909  Biso   1.000  C
  C11      1.0000 0.51250  0.93065  0.58912  Biso   1.000  C
  C12      1.0000 0.49910  0.98040  0.53288  Biso   1.000  C
  C13      1.0000 0.54570  0.05503  0.54157  Biso   1.000  C
  C14      1.0000 0.60120  0.07840  0.61359  Biso   1.000  C
  C15      1.0000 0.46490  0.85160  0.58063  Biso   1.000  C
  C16      1.0000 0.53110  0.10798  0.48021  Biso   1.000  C
  C17      1.0000 0.96780  0.16142  0.18176  Biso   1.000  C
  C18      1.0000 0.09470  0.16782  0.21215  Biso   1.000  C
  C19      1.0000 0.11680  0.18617  0.28708  Biso   1.000  C
  C20      1.0000 0.01680  0.19448  0.33164  Biso   1.000  C
  C21      1.0000 0.88430  0.18773  0.30116  Biso   1.000  C
  C22      1.0000 0.86070  0.16994  0.22678  Biso   1.000  C
  C23      1.0000 0.25940  0.19060  0.32087  Biso   1.000  C
  C24      1.0000 0.77200  0.19870  0.34966  Biso   1.000  C
  C25      1.0000 0.16001  0.59417  0.16946  Biso   1.000  C
  C26      1.0000 0.02851  0.61565  0.15725  Biso   1.000  C
  C27      1.0000 0.97389  0.62850  0.08533  Biso   1.000  C
  C28      1.0000 0.05077  0.61986  0.02561  Biso   1.000  C
  C29      1.0000 0.18227  0.59838  0.03782  Biso   1.000  C
  C30      1.0000 0.23689  0.58553  0.10974  Biso   1.000  C
  C31      1.0000 0.21340  0.58465  0.24763  Biso   1.000  C
  C32      1.0000 0.99101  0.64279  0.95197  Biso   1.000  C
  C33      1.0000 0.38400  0.52569  0.33035  Biso   1.000  C
  C34      1.0000 0.42430  0.45293  0.34091  Biso   1.000  C
  C35      1.0000 0.48750  0.43065  0.41088  Biso   1.000  C
  C36      1.0000 0.50090  0.48040  0.46712  Biso   1.000  C
  C37      1.0000 0.45430  0.55503  0.45843  Biso   1.000  C
  C38      1.0000 0.39880  0.57840  0.38641  Biso   1.000  C
  C39      1.0000 0.53510  0.35160  0.41937  Biso   1.000  C
  C40      1.0000 0.46890  0.60798  0.51979  Biso   1.000  C
  C41      1.0000 0.03220  0.66142  0.81824  Biso   1.000  C
  C42      1.0000 0.90530  0.66782  0.78785  Biso   1.000  C
  C43      1.0000 0.88320  0.68617  0.71292  Biso   1.000  C
  C44      1.0000 0.98320  0.69448  0.66836  Biso   1.000  C
  C45      1.0000 0.11570  0.68773  0.69884  Biso   1.000  C
  C46      1.0000 0.13930  0.66994  0.77322  Biso   1.000  C
  C47      1.0000 0.74060  0.69060  0.67913  Biso   1.000  C
  C48      1.0000 0.22800  0.69870  0.65034  Biso   1.000  C
  N1       1.0000 0.67910  0.04410  0.74120  Biso   1.000  N
  N2       1.0000 0.93120  0.14310  0.10630  Biso   1.000  N
  N3       1.0000 0.32090  0.54410  0.25880  Biso   1.000  N
  N4       1.0000 0.06880  0.64310  0.89370  Biso   1.000  N
  O1       1.0000 0.85190  0.11010  0.70230  Biso   1.000  O
  O2       1.0000 0.12290  0.17040  0.05900  Biso   1.000  O
  O3       1.0000 0.50130  0.80780  0.63110  Biso   1.000  O
  O4       1.0000 0.40040  0.83580  0.52140  Biso   1.000  O
  O5       1.0000 0.48450  0.08610  0.41800  Biso   1.000  O
  O6       1.0000 0.56380  0.17580  0.49040  Biso   1.000  O
  O7       1.0000 0.35300  0.17960  0.28030  Biso   1.000  O
  O8       1.0000 0.27760  0.20470  0.38850  Biso   1.000  O
  O9       1.0000 0.79940  0.22610  0.41170  Biso   1.000  O
  O10      1.0000 0.65910  0.17870  0.32300  Biso   1.000  O
  O11      1.0000 0.11720  0.82780  0.47262  Biso   1.000  O
  O12      1.0000 0.14830  0.66652  0.44419  Biso   1.000  O
  O13      1.0000 0.31800  0.76916  0.37804  Biso   1.000  O
  O14      1.0000 0.14810  0.61010  0.29770  Biso   1.000  O
  O15      1.0000 0.87710  0.67040  0.94100  Biso   1.000  O
  O16      1.0000 0.49870  0.30780  0.36890  Biso   1.000  O
  O17      1.0000 0.59960  0.33580  0.47860  Biso   1.000  O
  O18      1.0000 0.51550  0.58610  0.58200  Biso   1.000  O
  O19      1.0000 0.43620  0.67580  0.50960  Biso   1.000  O
  O20      1.0000 0.64700  0.67960  0.71970  Biso   1.000  O
  O21      1.0000 0.72240  0.70470  0.61150  Biso   1.000  O
  O22      1.0000 0.20060  0.72610  0.58830  Biso   1.000  O
  O23      1.0000 0.34090  0.67870  0.67700  Biso   1.000  O
  O24      1.0000 0.88280  0.32780  0.52738  Biso   1.000  O
  O25      1.0000 0.85170  0.16652  0.55581  Biso   1.000  O
  O26      1.0000 0.68200  0.26916  0.62196  Biso   1.000  O
