data_image0
_cell_length_a       8.575
_cell_length_b       8.575
_cell_length_c       52.52
_cell_angle_alpha    90
_cell_angle_beta     90
_cell_angle_gamma    90

_symmetry_space_group_name_H-M    P 1
_symmetry_int_tables_number       1

loop_
  _symmetry_equiv_pos_as_xyz
  'x, y, z'

loop_
  _atom_site_label
  _atom_site_occupancy
  _atom_site_fract_x
  _atom_site_fract_y
  _atom_site_fract_z
  _atom_site_thermal_displace_type
  _atom_site_B_iso_or_equiv
  _atom_site_type_symbol
  Cu1      1.0000 0.09043  0.44568  0.73745  Biso   1.000  Cu
  Cu2      1.0000 0.36530  0.66125  0.98453  Biso   1.000  Cu
  Cu3      1.0000 0.40957  0.55432  0.23745  Biso   1.000  Cu
  Cu4      1.0000 0.13470  0.33875  0.48453  Biso   1.000  Cu
  Cu5      1.0000 0.90957  0.94568  0.76255  Biso   1.000  Cu
  Cu6      1.0000 0.63470  0.16125  0.51547  Biso   1.000  Cu
  Cu7      1.0000 0.59043  0.05432  0.26255  Biso   1.000  Cu
  Cu8      1.0000 0.86530  0.83875  0.01547  Biso   1.000  Cu
  H1       1.0000 0.61180  0.75770  0.76310  Biso   1.000  H
  H2       1.0000 0.58990  0.77650  0.71090  Biso   1.000  H
  H3       1.0000 0.24590  0.24670  0.70060  Biso   1.000  H
  H4       1.0000 0.26240  0.19850  0.65820  Biso   1.000  H
  H5       1.0000 0.93010  0.52670  0.64710  Biso   1.000  H
  H6       1.0000 0.91380  0.55850  0.69130  Biso   1.000  H
  H7       1.0000 0.95790  0.32800  0.78590  Biso   1.000  H
  H8       1.0000 0.99310  0.35700  0.82930  Biso   1.000  H
  H9       1.0000 0.29770  0.70370  0.81460  Biso   1.000  H
  H10      1.0000 0.25880  0.66480  0.77200  Biso   1.000  H
  H11      1.0000 0.09500  0.49370  0.86470  Biso   1.000  H
  H12      1.0000 0.32520  0.71340  0.85620  Biso   1.000  H
  H13      1.0000 0.11940  0.49830  0.90420  Biso   1.000  H
  H14      1.0000 0.16360  0.50650  0.94770  Biso   1.000  H
  H15      1.0000 0.47440  0.84090  0.93800  Biso   1.000  H
  H16      1.0000 0.44420  0.83390  0.89490  Biso   1.000  H
  H17      1.0000 0.25740  0.19510  0.53040  Biso   1.000  H
  H18      1.0000 0.23270  0.21420  0.57420  Biso   1.000  H
  H19      1.0000 0.90020  0.53410  0.56510  Biso   1.000  H
  H20      1.0000 0.92690  0.50690  0.52130  Biso   1.000  H
  H21      1.0000 0.95730  0.46400  0.60700  Biso   1.000  H
  H22      1.0000 0.19630  0.25930  0.61430  Biso   1.000  H
  H23      1.0000 0.59440  0.45870  0.75510  Biso   1.000  H
  H24      1.0000 0.58070  0.46940  0.71220  Biso   1.000  H
  H25      1.0000 0.37650  0.15530  0.00400  Biso   1.000  H
  H26      1.0000 0.39160  0.16260  0.96070  Biso   1.000  H
  H27      1.0000 0.68360  0.17060  0.00810  Biso   1.000  H
  H28      1.0000 0.69660  0.16520  0.95950  Biso   1.000  H
  H29      1.0000 0.88820  0.24230  0.26310  Biso   1.000  H
  H30      1.0000 0.91010  0.22350  0.21090  Biso   1.000  H
  H31      1.0000 0.25410  0.75330  0.20060  Biso   1.000  H
  H32      1.0000 0.23760  0.80150  0.15820  Biso   1.000  H
  H33      1.0000 0.56990  0.47330  0.14710  Biso   1.000  H
  H34      1.0000 0.58620  0.44150  0.19130  Biso   1.000  H
  H35      1.0000 0.54210  0.67200  0.28590  Biso   1.000  H
  H36      1.0000 0.50690  0.64300  0.32930  Biso   1.000  H
  H37      1.0000 0.20230  0.29630  0.31460  Biso   1.000  H
  H38      1.0000 0.24120  0.33520  0.27200  Biso   1.000  H
  H39      1.0000 0.40500  0.50630  0.36470  Biso   1.000  H
  H40      1.0000 0.17480  0.28660  0.35620  Biso   1.000  H
  H41      1.0000 0.38060  0.50170  0.40420  Biso   1.000  H
  H42      1.0000 0.33640  0.49350  0.44770  Biso   1.000  H
  H43      1.0000 0.02560  0.15910  0.43800  Biso   1.000  H
  H44      1.0000 0.05580  0.16610  0.39490  Biso   1.000  H
  H45      1.0000 0.24260  0.80490  0.03040  Biso   1.000  H
  H46      1.0000 0.26730  0.78580  0.07420  Biso   1.000  H
  H47      1.0000 0.59980  0.46590  0.06510  Biso   1.000  H
  H48      1.0000 0.57310  0.49310  0.02130  Biso   1.000  H
  H49      1.0000 0.54270  0.53600  0.10700  Biso   1.000  H
  H50      1.0000 0.30370  0.74070  0.11430  Biso   1.000  H
  H51      1.0000 0.90560  0.54130  0.25510  Biso   1.000  H
  H52      1.0000 0.91930  0.53060  0.21220  Biso   1.000  H
  H53      1.0000 0.12350  0.84470  0.50400  Biso   1.000  H
  H54      1.0000 0.10840  0.83740  0.46070  Biso   1.000  H
  H55      1.0000 0.81640  0.82940  0.50810  Biso   1.000  H
  H56      1.0000 0.80340  0.83480  0.45950  Biso   1.000  H
  H57      1.0000 0.38820  0.25770  0.73690  Biso   1.000  H
  H58      1.0000 0.41010  0.27650  0.78910  Biso   1.000  H
  H59      1.0000 0.75410  0.74670  0.79940  Biso   1.000  H
  H60      1.0000 0.73760  0.69850  0.84180  Biso   1.000  H
  H61      1.0000 0.06990  0.02670  0.85290  Biso   1.000  H
  H62      1.0000 0.08620  0.05850  0.80870  Biso   1.000  H
  H63      1.0000 0.04210  0.82800  0.71410  Biso   1.000  H
  H64      1.0000 0.00690  0.85700  0.67070  Biso   1.000  H
  H65      1.0000 0.70230  0.20370  0.68540  Biso   1.000  H
  H66      1.0000 0.74120  0.16480  0.72800  Biso   1.000  H
  H67      1.0000 0.90500  0.99370  0.63530  Biso   1.000  H
  H68      1.0000 0.67480  0.21340  0.64380  Biso   1.000  H
  H69      1.0000 0.88060  0.99830  0.59580  Biso   1.000  H
  H70      1.0000 0.83640  0.00650  0.55230  Biso   1.000  H
  H71      1.0000 0.52560  0.34090  0.56200  Biso   1.000  H
  H72      1.0000 0.55580  0.33390  0.60510  Biso   1.000  H
  H73      1.0000 0.74260  0.69510  0.96960  Biso   1.000  H
  H74      1.0000 0.76730  0.71420  0.92580  Biso   1.000  H
  H75      1.0000 0.09980  0.03410  0.93490  Biso   1.000  H
  H76      1.0000 0.07310  0.00690  0.97870  Biso   1.000  H
  H77      1.0000 0.04270  0.96400  0.89300  Biso   1.000  H
  H78      1.0000 0.80370  0.75930  0.88570  Biso   1.000  H
  H79      1.0000 0.40560  0.95870  0.74490  Biso   1.000  H
  H80      1.0000 0.41930  0.96940  0.78780  Biso   1.000  H
  H81      1.0000 0.62350  0.65530  0.49600  Biso   1.000  H
  H82      1.0000 0.60840  0.66260  0.53930  Biso   1.000  H
  H83      1.0000 0.31640  0.67060  0.49190  Biso   1.000  H
  H84      1.0000 0.30340  0.66520  0.54050  Biso   1.000  H
  H85      1.0000 0.11180  0.74230  0.23690  Biso   1.000  H
  H86      1.0000 0.08990  0.72350  0.28910  Biso   1.000  H
  H87      1.0000 0.74590  0.25330  0.29940  Biso   1.000  H
  H88      1.0000 0.76240  0.30150  0.34180  Biso   1.000  H
  H89      1.0000 0.43010  0.97330  0.35290  Biso   1.000  H
  H90      1.0000 0.41380  0.94150  0.30870  Biso   1.000  H
  H91      1.0000 0.45790  0.17200  0.21410  Biso   1.000  H
  H92      1.0000 0.49310  0.14300  0.17070  Biso   1.000  H
  H93      1.0000 0.79770  0.79630  0.18540  Biso   1.000  H
  H94      1.0000 0.75880  0.83520  0.22800  Biso   1.000  H
  H95      1.0000 0.59500  0.00630  0.13530  Biso   1.000  H
  H96      1.0000 0.82520  0.78660  0.14380  Biso   1.000  H
  H97      1.0000 0.61940  0.00170  0.09580  Biso   1.000  H
  H98      1.0000 0.66360  0.99350  0.05230  Biso   1.000  H
  H99      1.0000 0.97440  0.65910  0.06200  Biso   1.000  H
  H100     1.0000 0.94420  0.66610  0.10510  Biso   1.000  H
  H101     1.0000 0.75740  0.30490  0.46960  Biso   1.000  H
  H102     1.0000 0.73270  0.28580  0.42580  Biso   1.000  H
  H103     1.0000 0.40020  0.96590  0.43490  Biso   1.000  H
  H104     1.0000 0.42690  0.99310  0.47870  Biso   1.000  H
  H105     1.0000 0.45730  0.03600  0.39300  Biso   1.000  H
  H106     1.0000 0.69630  0.24070  0.38570  Biso   1.000  H
  H107     1.0000 0.09440  0.04130  0.24490  Biso   1.000  H
  H108     1.0000 0.08070  0.03060  0.28780  Biso   1.000  H
  H109     1.0000 0.87650  0.34470  0.99600  Biso   1.000  H
  H110     1.0000 0.89160  0.33740  0.03930  Biso   1.000  H
  H111     1.0000 0.18360  0.32940  0.99190  Biso   1.000  H
  H112     1.0000 0.19660  0.33480  0.04050  Biso   1.000  H
  C1       1.0000 0.17950  0.30300  0.68940  Biso   1.000  C
  C2       1.0000 0.19220  0.27600  0.66410  Biso   1.000  C
  C3       1.0000 0.10490  0.35910  0.64700  Biso   1.000  C
  C4       1.0000 0.99620  0.46740  0.65790  Biso   1.000  C
  C5       1.0000 0.98660  0.48660  0.68440  Biso   1.000  C
  C6       1.0000 0.02920  0.40430  0.79198  Biso   1.000  C
  C7       1.0000 0.04710  0.42330  0.81778  Biso   1.000  C
  C8       1.0000 0.14340  0.53820  0.82687  Biso   1.000  C
  C9       1.0000 0.22610  0.62630  0.80910  Biso   1.000  C
  C10      1.0000 0.20410  0.60090  0.78373  Biso   1.000  C
  C11      1.0000 0.16110  0.55580  0.85430  Biso   1.000  C
  C12      1.0000 0.25990  0.64940  0.86640  Biso   1.000  C
  C13      1.0000 0.27720  0.66300  0.89409  Biso   1.000  C
  C14      1.0000 0.19490  0.56860  0.91070  Biso   1.000  C
  C15      1.0000 0.22040  0.57430  0.93685  Biso   1.000  C
  C16      1.0000 0.40230  0.76830  0.93109  Biso   1.000  C
  C17      1.0000 0.38420  0.76590  0.90530  Biso   1.000  C
  C18      1.0000 0.18440  0.26680  0.53734  Biso   1.000  C
  C19      1.0000 0.16850  0.27720  0.56360  Biso   1.000  C
  C20      1.0000 0.06350  0.37500  0.57460  Biso   1.000  C
  C21      1.0000 0.97450  0.46290  0.55840  Biso   1.000  C
  C22      1.0000 0.99240  0.44860  0.53234  Biso   1.000  C
  C23      1.0000 0.03940  0.39650  0.60190  Biso   1.000  C
  C24      1.0000 0.11930  0.33220  0.61950  Biso   1.000  C
  C25      1.0000 0.79890  0.57760  0.74699  Biso   1.000  C
  C26      1.0000 0.62130  0.56310  0.74782  Biso   1.000  C
  C27      1.0000 0.37830  0.58750  0.72232  Biso   1.000  C
  C28      1.0000 0.55720  0.57110  0.72073  Biso   1.000  C
  C29      1.0000 0.48180  0.12820  0.99710  Biso   1.000  C
  C30      1.0000 0.49810  0.37120  0.97030  Biso   1.000  C
  C31      1.0000 0.49150  0.19140  0.96936  Biso   1.000  C
  C32      1.0000 0.49460  0.95020  0.99627  Biso   1.000  C
  C33      1.0000 0.32050  0.69700  0.18940  Biso   1.000  C
  C34      1.0000 0.30780  0.72400  0.16410  Biso   1.000  C
  C35      1.0000 0.39510  0.64090  0.14700  Biso   1.000  C
  C36      1.0000 0.50380  0.53260  0.15790  Biso   1.000  C
  C37      1.0000 0.51340  0.51340  0.18440  Biso   1.000  C
  C38      1.0000 0.47080  0.59570  0.29198  Biso   1.000  C
  C39      1.0000 0.45290  0.57670  0.31778  Biso   1.000  C
  C40      1.0000 0.35660  0.46180  0.32687  Biso   1.000  C
  C41      1.0000 0.27390  0.37370  0.30910  Biso   1.000  C
  C42      1.0000 0.29590  0.39910  0.28373  Biso   1.000  C
  C43      1.0000 0.33890  0.44420  0.35430  Biso   1.000  C
  C44      1.0000 0.24010  0.35060  0.36640  Biso   1.000  C
  C45      1.0000 0.22280  0.33700  0.39409  Biso   1.000  C
  C46      1.0000 0.30510  0.43140  0.41070  Biso   1.000  C
  C47      1.0000 0.27960  0.42570  0.43685  Biso   1.000  C
  C48      1.0000 0.09770  0.23170  0.43109  Biso   1.000  C
  C49      1.0000 0.11580  0.23410  0.40530  Biso   1.000  C
  C50      1.0000 0.31560  0.73320  0.03734  Biso   1.000  C
  C51      1.0000 0.33150  0.72280  0.06360  Biso   1.000  C
  C52      1.0000 0.43650  0.62500  0.07460  Biso   1.000  C
  C53      1.0000 0.52550  0.53710  0.05840  Biso   1.000  C
  C54      1.0000 0.50760  0.55140  0.03234  Biso   1.000  C
  C55      1.0000 0.46060  0.60350  0.10190  Biso   1.000  C
  C56      1.0000 0.38070  0.66780  0.11950  Biso   1.000  C
  C57      1.0000 0.70110  0.42240  0.24699  Biso   1.000  C
  C58      1.0000 0.87870  0.43690  0.24782  Biso   1.000  C
  C59      1.0000 0.12170  0.41250  0.22232  Biso   1.000  C
  C60      1.0000 0.94280  0.42890  0.22073  Biso   1.000  C
  C61      1.0000 0.01820  0.87180  0.49710  Biso   1.000  C
  C62      1.0000 0.00190  0.62880  0.47030  Biso   1.000  C
  C63      1.0000 0.00850  0.80860  0.46936  Biso   1.000  C
  C64      1.0000 0.00540  0.04980  0.49627  Biso   1.000  C
  C65      1.0000 0.82050  0.80300  0.81060  Biso   1.000  C
  C66      1.0000 0.80780  0.77600  0.83590  Biso   1.000  C
  C67      1.0000 0.89510  0.85910  0.85300  Biso   1.000  C
  C68      1.0000 0.00380  0.96740  0.84210  Biso   1.000  C
  C69      1.0000 0.01340  0.98660  0.81560  Biso   1.000  C
  C70      1.0000 0.97080  0.90430  0.70802  Biso   1.000  C
  C71      1.0000 0.95290  0.92330  0.68222  Biso   1.000  C
  C72      1.0000 0.85660  0.03820  0.67313  Biso   1.000  C
  C73      1.0000 0.77390  0.12630  0.69090  Biso   1.000  C
  C74      1.0000 0.79590  0.10090  0.71627  Biso   1.000  C
  C75      1.0000 0.83890  0.05580  0.64570  Biso   1.000  C
  C76      1.0000 0.74010  0.14940  0.63360  Biso   1.000  C
  C77      1.0000 0.72280  0.16300  0.60591  Biso   1.000  C
  C78      1.0000 0.80510  0.06860  0.58930  Biso   1.000  C
  C79      1.0000 0.77960  0.07430  0.56315  Biso   1.000  C
  C80      1.0000 0.59770  0.26830  0.56891  Biso   1.000  C
  C81      1.0000 0.61580  0.26590  0.59470  Biso   1.000  C
  C82      1.0000 0.81560  0.76680  0.96266  Biso   1.000  C
  C83      1.0000 0.83150  0.77720  0.93640  Biso   1.000  C
  C84      1.0000 0.93650  0.87500  0.92540  Biso   1.000  C
  C85      1.0000 0.02550  0.96290  0.94160  Biso   1.000  C
  C86      1.0000 0.00760  0.94860  0.96766  Biso   1.000  C
  C87      1.0000 0.96060  0.89650  0.89810  Biso   1.000  C
  C88      1.0000 0.88070  0.83220  0.88050  Biso   1.000  C
  C89      1.0000 0.20110  0.07760  0.75301  Biso   1.000  C
  C90      1.0000 0.37870  0.06310  0.75218  Biso   1.000  C
  C91      1.0000 0.62170  0.08750  0.77768  Biso   1.000  C
  C92      1.0000 0.44280  0.07110  0.77927  Biso   1.000  C
  C93      1.0000 0.51820  0.62820  0.50290  Biso   1.000  C
  C94      1.0000 0.50190  0.87120  0.52970  Biso   1.000  C
  C95      1.0000 0.50850  0.69140  0.53064  Biso   1.000  C
  C96      1.0000 0.50540  0.45020  0.50373  Biso   1.000  C
  C97      1.0000 0.67950  0.19700  0.31060  Biso   1.000  C
  C98      1.0000 0.69220  0.22400  0.33590  Biso   1.000  C
  C99      1.0000 0.60490  0.14090  0.35300  Biso   1.000  C
  C100     1.0000 0.49620  0.03260  0.34210  Biso   1.000  C
  C101     1.0000 0.48660  0.01340  0.31560  Biso   1.000  C
  C102     1.0000 0.52920  0.09570  0.20802  Biso   1.000  C
  C103     1.0000 0.54710  0.07670  0.18222  Biso   1.000  C
  C104     1.0000 0.64340  0.96180  0.17313  Biso   1.000  C
  C105     1.0000 0.72610  0.87370  0.19090  Biso   1.000  C
  C106     1.0000 0.70410  0.89910  0.21627  Biso   1.000  C
  C107     1.0000 0.66110  0.94420  0.14570  Biso   1.000  C
  C108     1.0000 0.75990  0.85060  0.13360  Biso   1.000  C
  C109     1.0000 0.77720  0.83700  0.10591  Biso   1.000  C
  C110     1.0000 0.69490  0.93140  0.08930  Biso   1.000  C
  C111     1.0000 0.72040  0.92570  0.06315  Biso   1.000  C
  C112     1.0000 0.90230  0.73170  0.06891  Biso   1.000  C
  C113     1.0000 0.88420  0.73410  0.09470  Biso   1.000  C
  C114     1.0000 0.68440  0.23320  0.46266  Biso   1.000  C
  C115     1.0000 0.66850  0.22280  0.43640  Biso   1.000  C
  C116     1.0000 0.56350  0.12500  0.42540  Biso   1.000  C
  C117     1.0000 0.47450  0.03710  0.44160  Biso   1.000  C
  C118     1.0000 0.49240  0.05140  0.46766  Biso   1.000  C
  C119     1.0000 0.53940  0.10350  0.39810  Biso   1.000  C
  C120     1.0000 0.61930  0.16780  0.38050  Biso   1.000  C
  C121     1.0000 0.29890  0.92240  0.25301  Biso   1.000  C
  C122     1.0000 0.12130  0.93690  0.25218  Biso   1.000  C
  C123     1.0000 0.87830  0.91250  0.27768  Biso   1.000  C
  C124     1.0000 0.05720  0.92890  0.27927  Biso   1.000  C
  C125     1.0000 0.98180  0.37180  0.00290  Biso   1.000  C
  C126     1.0000 0.99810  0.12880  0.02970  Biso   1.000  C
  C127     1.0000 0.99150  0.30860  0.03064  Biso   1.000  C
  C128     1.0000 0.99460  0.54980  0.00373  Biso   1.000  C
  N1       1.0000 0.07720  0.40620  0.69968  Biso   1.000  N
  N2       1.0000 0.11050  0.49170  0.77469  Biso   1.000  N
  N3       1.0000 0.32610  0.67630  0.94714  Biso   1.000  N
  N4       1.0000 0.10300  0.35180  0.52219  Biso   1.000  N
  N5       1.0000 0.42280  0.59380  0.19968  Biso   1.000  N
  N6       1.0000 0.38950  0.50830  0.27469  Biso   1.000  N
  N7       1.0000 0.17390  0.32370  0.44714  Biso   1.000  N
  N8       1.0000 0.39700  0.64820  0.02219  Biso   1.000  N
  N9       1.0000 0.92280  0.90620  0.80032  Biso   1.000  N
  N10      1.0000 0.88950  0.99170  0.72531  Biso   1.000  N
  N11      1.0000 0.67390  0.17630  0.55286  Biso   1.000  N
  N12      1.0000 0.89700  0.85180  0.97781  Biso   1.000  N
  N13      1.0000 0.57720  0.09380  0.30032  Biso   1.000  N
  N14      1.0000 0.61050  0.00830  0.22531  Biso   1.000  N
  N15      1.0000 0.82610  0.82370  0.05286  Biso   1.000  N
  N16      1.0000 0.60300  0.14820  0.47781  Biso   1.000  N
  O1       1.0000 0.86470  0.44910  0.73847  Biso   1.000  O
  O2       1.0000 0.31590  0.46860  0.73412  Biso   1.000  O
  O3       1.0000 0.55520  0.67770  0.76330  Biso   1.000  O
  O4       1.0000 0.62410  0.68960  0.70603  Biso   1.000  O
  O5       1.0000 0.38640  0.43070  0.98131  Biso   1.000  O
  O6       1.0000 0.37830  0.88610  0.98496  Biso   1.000  O
  O7       1.0000 0.60460  0.88510  0.00603  Biso   1.000  O
  O8       1.0000 0.86920  0.69020  0.75362  Biso   1.000  O
  O9       1.0000 0.61460  0.43660  0.96035  Biso   1.000  O
  O10      1.0000 0.31200  0.69360  0.71348  Biso   1.000  O
  O11      1.0000 0.59410  0.19750  0.01290  Biso   1.000  O
  O12      1.0000 0.61140  0.12390  0.95544  Biso   1.000  O
  O13      1.0000 0.63530  0.55090  0.23847  Biso   1.000  O
  O14      1.0000 0.18410  0.53140  0.23412  Biso   1.000  O
  O15      1.0000 0.94480  0.32230  0.26330  Biso   1.000  O
  O16      1.0000 0.87590  0.31040  0.20603  Biso   1.000  O
  O17      1.0000 0.11360  0.56930  0.48131  Biso   1.000  O
  O18      1.0000 0.12170  0.11390  0.48496  Biso   1.000  O
  O19      1.0000 0.89540  0.11490  0.50603  Biso   1.000  O
  O20      1.0000 0.63080  0.30980  0.25362  Biso   1.000  O
  O21      1.0000 0.88540  0.56340  0.46035  Biso   1.000  O
  O22      1.0000 0.18800  0.30640  0.21348  Biso   1.000  O
  O23      1.0000 0.90590  0.80250  0.51290  Biso   1.000  O
  O24      1.0000 0.88860  0.87610  0.45544  Biso   1.000  O
  O25      1.0000 0.13530  0.94910  0.76153  Biso   1.000  O
  O26      1.0000 0.68410  0.96860  0.76588  Biso   1.000  O
  O27      1.0000 0.44480  0.17770  0.73670  Biso   1.000  O
  O28      1.0000 0.37590  0.18960  0.79397  Biso   1.000  O
  O29      1.0000 0.61360  0.93070  0.51869  Biso   1.000  O
  O30      1.0000 0.62170  0.38610  0.51504  Biso   1.000  O
  O31      1.0000 0.39540  0.38510  0.49397  Biso   1.000  O
  O32      1.0000 0.13080  0.19020  0.74638  Biso   1.000  O
  O33      1.0000 0.38540  0.93660  0.53965  Biso   1.000  O
  O34      1.0000 0.68800  0.19360  0.78652  Biso   1.000  O
  O35      1.0000 0.40590  0.69750  0.48710  Biso   1.000  O
  O36      1.0000 0.38860  0.62390  0.54456  Biso   1.000  O
  O37      1.0000 0.36470  0.05090  0.26153  Biso   1.000  O
  O38      1.0000 0.81590  0.03140  0.26588  Biso   1.000  O
  O39      1.0000 0.05520  0.82230  0.23670  Biso   1.000  O
  O40      1.0000 0.12410  0.81040  0.29397  Biso   1.000  O
  O41      1.0000 0.88640  0.06930  0.01869  Biso   1.000  O
  O42      1.0000 0.87830  0.61390  0.01504  Biso   1.000  O
  O43      1.0000 0.10460  0.61490  0.99397  Biso   1.000  O
  O44      1.0000 0.36920  0.80980  0.24638  Biso   1.000  O
  O45      1.0000 0.11460  0.06340  0.03965  Biso   1.000  O
  O46      1.0000 0.81200  0.80640  0.28652  Biso   1.000  O
  O47      1.0000 0.09410  0.30250  0.98710  Biso   1.000  O
  O48      1.0000 0.11140  0.37610  0.04456  Biso   1.000  O
