data_image0
_cell_length_a       9.0023
_cell_length_b       10.6114
_cell_length_c       11.6941
_cell_angle_alpha    116.982
_cell_angle_beta     109.226
_cell_angle_gamma    90

_symmetry_space_group_name_H-M    P 1
_symmetry_int_tables_number       1

loop_
  _symmetry_equiv_pos_as_xyz
  'x, y, z'

loop_
  _atom_site_label
  _atom_site_occupancy
  _atom_site_fract_x
  _atom_site_fract_y
  _atom_site_fract_z
  _atom_site_thermal_displace_type
  _atom_site_B_iso_or_equiv
  _atom_site_type_symbol
  Mo1      1.0000 0.76367  0.41345  0.53004  Biso   1.000  Mo
  Mo2      1.0000 0.73633  0.88341  0.46996  Biso   1.000  Mo
  Mo3      1.0000 0.23633  0.58655  0.46996  Biso   1.000  Mo
  Mo4      1.0000 0.26367  0.11659  0.53004  Biso   1.000  Mo
  P1       1.0000 0.53892  0.09557  0.38148  Biso   1.000  P
  P2       1.0000 0.96108  0.71409  0.61852  Biso   1.000  P
  P3       1.0000 0.46108  0.90443  0.61852  Biso   1.000  P
  P4       1.0000 0.03892  0.28591  0.38148  Biso   1.000  P
  H1       1.0000 0.35540  0.17490  0.25060  Biso   1.000  H
  H2       1.0000 0.29760  0.00940  0.19900  Biso   1.000  H
  H3       1.0000 0.45010  0.23140  0.11280  Biso   1.000  H
  H4       1.0000 0.53660  0.16760  0.93020  Biso   1.000  H
  H5       1.0000 0.85300  0.34500  0.75800  Biso   1.000  H
  H6       1.0000 0.95100  0.27310  0.67020  Biso   1.000  H
  H7       1.0000 0.14460  0.92430  0.74940  Biso   1.000  H
  H8       1.0000 0.20240  0.81040  0.80100  Biso   1.000  H
  H9       1.0000 0.04990  0.11860  0.88720  Biso   1.000  H
  H10      1.0000 0.96340  0.23740  0.06980  Biso   1.000  H
  H11      1.0000 0.64700  0.58700  0.24200  Biso   1.000  H
  H12      1.0000 0.54900  0.60290  0.32980  Biso   1.000  H
  H13      1.0000 0.64460  0.82510  0.74940  Biso   1.000  H
  H14      1.0000 0.70240  0.99060  0.80100  Biso   1.000  H
  H15      1.0000 0.54990  0.76860  0.88720  Biso   1.000  H
  H16      1.0000 0.46340  0.83240  0.06980  Biso   1.000  H
  H17      1.0000 0.14700  0.65500  0.24200  Biso   1.000  H
  H18      1.0000 0.04900  0.72690  0.32980  Biso   1.000  H
  H19      1.0000 0.85540  0.07570  0.25060  Biso   1.000  H
  H20      1.0000 0.79760  0.18960  0.19900  Biso   1.000  H
  H21      1.0000 0.95010  0.88140  0.11280  Biso   1.000  H
  H22      1.0000 0.03660  0.76260  0.93020  Biso   1.000  H
  H23      1.0000 0.35300  0.41300  0.75800  Biso   1.000  H
  H24      1.0000 0.45100  0.39710  0.67020  Biso   1.000  H
  C1       1.0000 0.39120  0.08126  0.22852  Biso   1.000  C
  C2       1.0000 0.44700  0.03860  0.10920  Biso   1.000  C
  C3       1.0000 0.47010  0.13677  0.06694  Biso   1.000  C
  C4       1.0000 0.52200  0.09906  0.95852  Biso   1.000  C
  C5       1.0000 0.10880  0.85274  0.77148  Biso   1.000  C
  C6       1.0000 0.05300  0.92940  0.89080  Biso   1.000  C
  C7       1.0000 0.02990  0.06983  0.93306  Biso   1.000  C
  C8       1.0000 0.97800  0.14054  0.04148  Biso   1.000  C
  C9       1.0000 0.60880  0.91874  0.77148  Biso   1.000  C
  C10      1.0000 0.55300  0.96140  0.89080  Biso   1.000  C
  C11      1.0000 0.52990  0.86323  0.93306  Biso   1.000  C
  C12      1.0000 0.47800  0.90094  0.04148  Biso   1.000  C
  C13      1.0000 0.89120  0.14726  0.22852  Biso   1.000  C
  C14      1.0000 0.94700  0.07060  0.10920  Biso   1.000  C
  C15      1.0000 0.97010  0.93017  0.06694  Biso   1.000  C
  C16      1.0000 0.02200  0.85946  0.95852  Biso   1.000  C
  O1       1.0000 0.68839  0.20132  0.42424  Biso   1.000  O
  O2       1.0000 0.47346  0.14629  0.49520  Biso   1.000  O
  O3       1.0000 0.58672  0.94653  0.34360  Biso   1.000  O
  O4       1.0000 0.68475  0.44205  0.39376  Biso   1.000  O
  O5       1.0000 0.62912  0.45243  0.60848  Biso   1.000  O
  O6       1.0000 0.90631  0.36022  0.70398  Biso   1.000  O
  O7       1.0000 0.81161  0.77708  0.57576  Biso   1.000  O
  O8       1.0000 0.02654  0.65109  0.50480  Biso   1.000  O
  O9       1.0000 0.91328  0.60293  0.65640  Biso   1.000  O
  O10      1.0000 0.81525  0.04829  0.60624  Biso   1.000  O
  O11      1.0000 0.87088  0.84395  0.39152  Biso   1.000  O
  O12      1.0000 0.59369  0.65624  0.29602  Biso   1.000  O
  O13      1.0000 0.31161  0.79868  0.57576  Biso   1.000  O
  O14      1.0000 0.52654  0.85371  0.50480  Biso   1.000  O
  O15      1.0000 0.41328  0.05347  0.65640  Biso   1.000  O
  O16      1.0000 0.31525  0.55795  0.60624  Biso   1.000  O
  O17      1.0000 0.37088  0.54757  0.39152  Biso   1.000  O
  O18      1.0000 0.09369  0.63978  0.29602  Biso   1.000  O
  O19      1.0000 0.18839  0.22292  0.42424  Biso   1.000  O
  O20      1.0000 0.97346  0.34891  0.49520  Biso   1.000  O
  O21      1.0000 0.08672  0.39707  0.34360  Biso   1.000  O
  O22      1.0000 0.18475  0.95171  0.39376  Biso   1.000  O
  O23      1.0000 0.12912  0.15605  0.60848  Biso   1.000  O
  O24      1.0000 0.40631  0.34376  0.70398  Biso   1.000  O
