data_image0
_cell_length_a       7.1407
_cell_length_b       7.1407
_cell_length_c       20.489
_cell_angle_alpha    90
_cell_angle_beta     90
_cell_angle_gamma    90

_symmetry_space_group_name_H-M    "P 1"
_symmetry_int_tables_number       1

loop_
  _symmetry_equiv_pos_as_xyz
  'x, y, z'

loop_
  _atom_site_label
  _atom_site_occupancy
  _atom_site_fract_x
  _atom_site_fract_y
  _atom_site_fract_z
  _atom_site_thermal_displace_type
  _atom_site_B_iso_or_equiv
  _atom_site_type_symbol
  Pt1      1.0000 0.00000  0.00000  0.50000  Biso   1.000  Pt
  Fe1      1.0000 0.50000  0.50000  0.50000  Biso   1.000  Fe
  N1       1.0000 0.50000  0.50000  0.59690  Biso   1.000  N
  C1       1.0000 0.50000  0.50000  0.73290  Biso   1.000  C
  C2       1.0000 0.50000  0.50000  0.93100  Biso   1.000  C
  C3       1.0000 0.50000  0.50000  0.86400  Biso   1.000  C
  C4       1.0000 0.50000  0.50000  0.80480  Biso   1.000  C
  N2       1.0000 0.50000  0.50000  0.40310  Biso   1.000  N
  C5       1.0000 0.50000  0.50000  0.26710  Biso   1.000  C
  C6       1.0000 0.50000  0.50000  0.06900  Biso   1.000  C
  C7       1.0000 0.50000  0.50000  0.13600  Biso   1.000  C
  C8       1.0000 0.50000  0.50000  0.19520  Biso   1.000  C
  N3       1.0000 0.69000  0.69000  0.50000  Biso   1.000  N
  C9       1.0000 0.80800  0.80800  0.50000  Biso   1.000  C
  N4       1.0000 0.31000  0.31000  0.50000  Biso   1.000  N
  C10      1.0000 0.19200  0.19200  0.50000  Biso   1.000  C
  N5       1.0000 0.31000  0.69000  0.50000  Biso   1.000  N
  C11      1.0000 0.19200  0.80800  0.50000  Biso   1.000  C
  N6       1.0000 0.69000  0.31000  0.50000  Biso   1.000  N
  C12      1.0000 0.80800  0.19200  0.50000  Biso   1.000  C
  C13      1.0000 0.65800  0.50000  0.63080  Biso   1.000  C
  C14      1.0000 0.66700  0.50000  0.69960  Biso   1.000  C
  C15      1.0000 0.63600  0.50000  0.96500  Biso   1.000  C
  C16      1.0000 0.34200  0.50000  0.63080  Biso   1.000  C
  C17      1.0000 0.33300  0.50000  0.69960  Biso   1.000  C
  C18      1.0000 0.36400  0.50000  0.96500  Biso   1.000  C
  C19      1.0000 0.50000  0.65800  0.63080  Biso   1.000  C
  C20      1.0000 0.50000  0.66700  0.69960  Biso   1.000  C
  C21      1.0000 0.50000  0.63600  0.96500  Biso   1.000  C
  C22      1.0000 0.50000  0.34200  0.63080  Biso   1.000  C
  C23      1.0000 0.50000  0.33300  0.69960  Biso   1.000  C
  C24      1.0000 0.50000  0.36400  0.96500  Biso   1.000  C
  C25      1.0000 0.34200  0.50000  0.36920  Biso   1.000  C
  C26      1.0000 0.33300  0.50000  0.30040  Biso   1.000  C
  C27      1.0000 0.36400  0.50000  0.03500  Biso   1.000  C
  C28      1.0000 0.65800  0.50000  0.36920  Biso   1.000  C
  C29      1.0000 0.66700  0.50000  0.30040  Biso   1.000  C
  C30      1.0000 0.63600  0.50000  0.03500  Biso   1.000  C
  C31      1.0000 0.50000  0.65800  0.36920  Biso   1.000  C
  C32      1.0000 0.50000  0.66700  0.30040  Biso   1.000  C
  C33      1.0000 0.50000  0.63600  0.03500  Biso   1.000  C
  C34      1.0000 0.50000  0.34200  0.36920  Biso   1.000  C
  C35      1.0000 0.50000  0.33300  0.30040  Biso   1.000  C
  C36      1.0000 0.50000  0.36400  0.03500  Biso   1.000  C
