data_image0
_cell_length_a       16.8128
_cell_length_b       16.8128
_cell_length_c       16.8128
_cell_angle_alpha    105.664
_cell_angle_beta     105.664
_cell_angle_gamma    105.664

_symmetry_space_group_name_H-M    P 1
_symmetry_int_tables_number       1

loop_
  _symmetry_equiv_pos_as_xyz
  'x, y, z'

loop_
  _atom_site_label
  _atom_site_occupancy
  _atom_site_fract_x
  _atom_site_fract_y
  _atom_site_fract_z
  _atom_site_thermal_displace_type
  _atom_site_B_iso_or_equiv
  _atom_site_type_symbol
  Cu1      1.0000 0.43470  0.84992  0.61390  Biso   1.000  Cu
  Cu2      1.0000 0.37132  0.76705  0.39007  Biso   1.000  Cu
  Cu3      1.0000 0.28776  0.91194  0.48591  Biso   1.000  Cu
  Cu4      1.0000 0.61390  0.43470  0.84992  Biso   1.000  Cu
  Cu5      1.0000 0.39007  0.37132  0.76705  Biso   1.000  Cu
  Cu6      1.0000 0.48591  0.28776  0.91194  Biso   1.000  Cu
  Cu7      1.0000 0.84992  0.61390  0.43470  Biso   1.000  Cu
  Cu8      1.0000 0.76705  0.39007  0.37132  Biso   1.000  Cu
  Cu9      1.0000 0.91194  0.48591  0.28776  Biso   1.000  Cu
  Cu10     1.0000 0.56530  0.15008  0.38610  Biso   1.000  Cu
  Cu11     1.0000 0.62868  0.23295  0.60993  Biso   1.000  Cu
  Cu12     1.0000 0.71224  0.08806  0.51409  Biso   1.000  Cu
  Cu13     1.0000 0.38610  0.56530  0.15008  Biso   1.000  Cu
  Cu14     1.0000 0.60993  0.62868  0.23295  Biso   1.000  Cu
  Cu15     1.0000 0.51409  0.71224  0.08806  Biso   1.000  Cu
  Cu16     1.0000 0.15008  0.38610  0.56530  Biso   1.000  Cu
  Cu17     1.0000 0.23295  0.60993  0.62868  Biso   1.000  Cu
  Cu18     1.0000 0.08806  0.51409  0.71224  Biso   1.000  Cu
  H1       1.0000 0.57760  0.75590  0.65040  Biso   1.000  H
  H2       1.0000 0.59250  0.64620  0.52560  Biso   1.000  H
  H3       1.0000 0.48360  0.63880  0.38480  Biso   1.000  H
  H4       1.0000 0.25840  0.73780  0.18940  Biso   1.000  H
  H5       1.0000 0.15330  0.81440  0.15520  Biso   1.000  H
  H6       1.0000 0.16240  0.91090  0.30460  Biso   1.000  H
  H7       1.0000 0.23440  0.01250  0.64400  Biso   1.000  H
  H8       1.0000 0.30560  0.02400  0.79860  Biso   1.000  H
  H9       1.0000 0.41630  0.95140  0.79650  Biso   1.000  H
  H10      1.0000 0.41420  0.65130  0.76180  Biso   1.000  H
  H11      1.0000 0.37880  0.71850  0.81520  Biso   1.000  H
  H12      1.0000 0.55660  0.74550  0.83750  Biso   1.000  H
  H13      1.0000 0.52660  0.82330  0.88240  Biso   1.000  H
  H14      1.0000 0.43520  0.91380  0.50290  Biso   1.000  H
  H15      1.0000 0.65040  0.57760  0.75590  Biso   1.000  H
  H16      1.0000 0.52560  0.59250  0.64620  Biso   1.000  H
  H17      1.0000 0.38480  0.48360  0.63880  Biso   1.000  H
  H18      1.0000 0.18940  0.25840  0.73780  Biso   1.000  H
  H19      1.0000 0.15520  0.15330  0.81440  Biso   1.000  H
  H20      1.0000 0.30460  0.16240  0.91090  Biso   1.000  H
  H21      1.0000 0.64400  0.23440  0.01250  Biso   1.000  H
  H22      1.0000 0.79860  0.30560  0.02400  Biso   1.000  H
  H23      1.0000 0.79650  0.41630  0.95140  Biso   1.000  H
  H24      1.0000 0.76180  0.41420  0.65130  Biso   1.000  H
  H25      1.0000 0.81520  0.37880  0.71850  Biso   1.000  H
  H26      1.0000 0.83750  0.55660  0.74550  Biso   1.000  H
  H27      1.0000 0.88240  0.52660  0.82330  Biso   1.000  H
  H28      1.0000 0.50290  0.43520  0.91380  Biso   1.000  H
  H29      1.0000 0.75590  0.65040  0.57760  Biso   1.000  H
  H30      1.0000 0.64620  0.52560  0.59250  Biso   1.000  H
  H31      1.0000 0.63880  0.38480  0.48360  Biso   1.000  H
  H32      1.0000 0.73780  0.18940  0.25840  Biso   1.000  H
  H33      1.0000 0.81440  0.15520  0.15330  Biso   1.000  H
  H34      1.0000 0.91090  0.30460  0.16240  Biso   1.000  H
  H35      1.0000 0.01250  0.64400  0.23440  Biso   1.000  H
  H36      1.0000 0.02400  0.79860  0.30560  Biso   1.000  H
  H37      1.0000 0.95140  0.79650  0.41630  Biso   1.000  H
  H38      1.0000 0.65130  0.76180  0.41420  Biso   1.000  H
  H39      1.0000 0.71850  0.81520  0.37880  Biso   1.000  H
  H40      1.0000 0.74550  0.83750  0.55660  Biso   1.000  H
  H41      1.0000 0.82330  0.88240  0.52660  Biso   1.000  H
  H42      1.0000 0.91380  0.50290  0.43520  Biso   1.000  H
  H43      1.0000 0.42240  0.24410  0.34960  Biso   1.000  H
  H44      1.0000 0.40750  0.35380  0.47440  Biso   1.000  H
  H45      1.0000 0.51640  0.36120  0.61520  Biso   1.000  H
  H46      1.0000 0.74160  0.26220  0.81060  Biso   1.000  H
  H47      1.0000 0.84670  0.18560  0.84480  Biso   1.000  H
  H48      1.0000 0.83760  0.08910  0.69540  Biso   1.000  H
  H49      1.0000 0.76560  0.98750  0.35600  Biso   1.000  H
  H50      1.0000 0.69440  0.97600  0.20140  Biso   1.000  H
  H51      1.0000 0.58370  0.04860  0.20350  Biso   1.000  H
  H52      1.0000 0.58580  0.34870  0.23820  Biso   1.000  H
  H53      1.0000 0.62120  0.28150  0.18480  Biso   1.000  H
  H54      1.0000 0.44340  0.25450  0.16250  Biso   1.000  H
  H55      1.0000 0.47340  0.17670  0.11760  Biso   1.000  H
  H56      1.0000 0.56480  0.08620  0.49710  Biso   1.000  H
  H57      1.0000 0.34960  0.42240  0.24410  Biso   1.000  H
  H58      1.0000 0.47440  0.40750  0.35380  Biso   1.000  H
  H59      1.0000 0.61520  0.51640  0.36120  Biso   1.000  H
  H60      1.0000 0.81060  0.74160  0.26220  Biso   1.000  H
  H61      1.0000 0.84480  0.84670  0.18560  Biso   1.000  H
  H62      1.0000 0.69540  0.83760  0.08910  Biso   1.000  H
  H63      1.0000 0.35600  0.76560  0.98750  Biso   1.000  H
  H64      1.0000 0.20140  0.69440  0.97600  Biso   1.000  H
  H65      1.0000 0.20350  0.58370  0.04860  Biso   1.000  H
  H66      1.0000 0.23820  0.58580  0.34870  Biso   1.000  H
  H67      1.0000 0.18480  0.62120  0.28150  Biso   1.000  H
  H68      1.0000 0.16250  0.44340  0.25450  Biso   1.000  H
  H69      1.0000 0.11760  0.47340  0.17670  Biso   1.000  H
  H70      1.0000 0.49710  0.56480  0.08620  Biso   1.000  H
  H71      1.0000 0.24410  0.34960  0.42240  Biso   1.000  H
  H72      1.0000 0.35380  0.47440  0.40750  Biso   1.000  H
  H73      1.0000 0.36120  0.61520  0.51640  Biso   1.000  H
  H74      1.0000 0.26220  0.81060  0.74160  Biso   1.000  H
  H75      1.0000 0.18560  0.84480  0.84670  Biso   1.000  H
  H76      1.0000 0.08910  0.69540  0.83760  Biso   1.000  H
  H77      1.0000 0.98750  0.35600  0.76560  Biso   1.000  H
  H78      1.0000 0.97600  0.20140  0.69440  Biso   1.000  H
  H79      1.0000 0.04860  0.20350  0.58370  Biso   1.000  H
  H80      1.0000 0.34870  0.23820  0.58580  Biso   1.000  H
  H81      1.0000 0.28150  0.18480  0.62120  Biso   1.000  H
  H82      1.0000 0.25450  0.16250  0.44340  Biso   1.000  H
  H83      1.0000 0.17670  0.11760  0.47340  Biso   1.000  H
  H84      1.0000 0.08620  0.49710  0.56480  Biso   1.000  H
  C1       1.0000 0.54530  0.73930  0.58890  Biso   1.000  C
  C2       1.0000 0.55410  0.67840  0.52070  Biso   1.000  C
  C3       1.0000 0.49390  0.67510  0.44350  Biso   1.000  C
  C4       1.0000 0.24610  0.77760  0.23210  Biso   1.000  C
  C5       1.0000 0.18860  0.81960  0.21220  Biso   1.000  C
  C6       1.0000 0.19370  0.87200  0.29540  Biso   1.000  C
  C7       1.0000 0.27870  0.98960  0.66340  Biso   1.000  C
  C8       1.0000 0.31770  0.99650  0.74830  Biso   1.000  C
  C9       1.0000 0.37780  0.95610  0.74660  Biso   1.000  C
  C10      1.0000 0.40930  0.75140  0.71550  Biso   1.000  C
  C11      1.0000 0.42440  0.71510  0.78890  Biso   1.000  C
  C12      1.0000 0.51130  0.75820  0.86080  Biso   1.000  C
  C13      1.0000 0.51450  0.72810  0.93660  Biso   1.000  C
  C14      1.0000 0.58890  0.54530  0.73930  Biso   1.000  C
  C15      1.0000 0.52070  0.55410  0.67840  Biso   1.000  C
  C16      1.0000 0.44350  0.49390  0.67510  Biso   1.000  C
  C17      1.0000 0.23210  0.24610  0.77760  Biso   1.000  C
  C18      1.0000 0.21220  0.18860  0.81960  Biso   1.000  C
  C19      1.0000 0.29540  0.19370  0.87200  Biso   1.000  C
  C20      1.0000 0.66340  0.27870  0.98960  Biso   1.000  C
  C21      1.0000 0.74830  0.31770  0.99650  Biso   1.000  C
  C22      1.0000 0.74660  0.37780  0.95610  Biso   1.000  C
  C23      1.0000 0.71550  0.40930  0.75140  Biso   1.000  C
  C24      1.0000 0.78890  0.42440  0.71510  Biso   1.000  C
  C25      1.0000 0.86080  0.51130  0.75820  Biso   1.000  C
  C26      1.0000 0.93660  0.51450  0.72810  Biso   1.000  C
  C27      1.0000 0.73930  0.58890  0.54530  Biso   1.000  C
  C28      1.0000 0.67840  0.52070  0.55410  Biso   1.000  C
  C29      1.0000 0.67510  0.44350  0.49390  Biso   1.000  C
  C30      1.0000 0.77760  0.23210  0.24610  Biso   1.000  C
  C31      1.0000 0.81960  0.21220  0.18860  Biso   1.000  C
  C32      1.0000 0.87200  0.29540  0.19370  Biso   1.000  C
  C33      1.0000 0.98960  0.66340  0.27870  Biso   1.000  C
  C34      1.0000 0.99650  0.74830  0.31770  Biso   1.000  C
  C35      1.0000 0.95610  0.74660  0.37780  Biso   1.000  C
  C36      1.0000 0.75140  0.71550  0.40930  Biso   1.000  C
  C37      1.0000 0.71510  0.78890  0.42440  Biso   1.000  C
  C38      1.0000 0.75820  0.86080  0.51130  Biso   1.000  C
  C39      1.0000 0.72810  0.93660  0.51450  Biso   1.000  C
  C40      1.0000 0.45470  0.26070  0.41110  Biso   1.000  C
  C41      1.0000 0.44590  0.32160  0.47930  Biso   1.000  C
  C42      1.0000 0.50610  0.32490  0.55650  Biso   1.000  C
  C43      1.0000 0.75390  0.22240  0.76790  Biso   1.000  C
  C44      1.0000 0.81140  0.18040  0.78780  Biso   1.000  C
  C45      1.0000 0.80630  0.12800  0.70460  Biso   1.000  C
  C46      1.0000 0.72130  0.01040  0.33660  Biso   1.000  C
  C47      1.0000 0.68230  0.00350  0.25170  Biso   1.000  C
  C48      1.0000 0.62220  0.04390  0.25340  Biso   1.000  C
  C49      1.0000 0.59070  0.24860  0.28450  Biso   1.000  C
  C50      1.0000 0.57560  0.28490  0.21110  Biso   1.000  C
  C51      1.0000 0.48870  0.24180  0.13920  Biso   1.000  C
  C52      1.0000 0.48550  0.27190  0.06340  Biso   1.000  C
  C53      1.0000 0.41110  0.45470  0.26070  Biso   1.000  C
  C54      1.0000 0.47930  0.44590  0.32160  Biso   1.000  C
  C55      1.0000 0.55650  0.50610  0.32490  Biso   1.000  C
  C56      1.0000 0.76790  0.75390  0.22240  Biso   1.000  C
  C57      1.0000 0.78780  0.81140  0.18040  Biso   1.000  C
  C58      1.0000 0.70460  0.80630  0.12800  Biso   1.000  C
  C59      1.0000 0.33660  0.72130  0.01040  Biso   1.000  C
  C60      1.0000 0.25170  0.68230  0.00350  Biso   1.000  C
  C61      1.0000 0.25340  0.62220  0.04390  Biso   1.000  C
  C62      1.0000 0.28450  0.59070  0.24860  Biso   1.000  C
  C63      1.0000 0.21110  0.57560  0.28490  Biso   1.000  C
  C64      1.0000 0.13920  0.48870  0.24180  Biso   1.000  C
  C65      1.0000 0.06340  0.48550  0.27190  Biso   1.000  C
  C66      1.0000 0.26070  0.41110  0.45470  Biso   1.000  C
  C67      1.0000 0.32160  0.47930  0.44590  Biso   1.000  C
  C68      1.0000 0.32490  0.55650  0.50610  Biso   1.000  C
  C69      1.0000 0.22240  0.76790  0.75390  Biso   1.000  C
  C70      1.0000 0.18040  0.78780  0.81140  Biso   1.000  C
  C71      1.0000 0.12800  0.70460  0.80630  Biso   1.000  C
  C72      1.0000 0.01040  0.33660  0.72130  Biso   1.000  C
  C73      1.0000 0.00350  0.25170  0.68230  Biso   1.000  C
  C74      1.0000 0.04390  0.25340  0.62220  Biso   1.000  C
  C75      1.0000 0.24860  0.28450  0.59070  Biso   1.000  C
  C76      1.0000 0.28490  0.21110  0.57560  Biso   1.000  C
  C77      1.0000 0.24180  0.13920  0.48870  Biso   1.000  C
  C78      1.0000 0.27190  0.06340  0.48550  Biso   1.000  C
  N1       1.0000 0.48470  0.77150  0.55550  Biso   1.000  N
  N2       1.0000 0.45260  0.73150  0.46530  Biso   1.000  N
  N3       1.0000 0.28290  0.80060  0.32080  Biso   1.000  N
  N4       1.0000 0.24860  0.85900  0.35880  Biso   1.000  N
  N5       1.0000 0.31290  0.94500  0.61110  Biso   1.000  N
  N6       1.0000 0.37330  0.92410  0.66190  Biso   1.000  N
  N7       1.0000 0.55550  0.48470  0.77150  Biso   1.000  N
  N8       1.0000 0.46530  0.45260  0.73150  Biso   1.000  N
  N9       1.0000 0.32080  0.28290  0.80060  Biso   1.000  N
  N10      1.0000 0.35880  0.24860  0.85900  Biso   1.000  N
  N11      1.0000 0.61110  0.31290  0.94500  Biso   1.000  N
  N12      1.0000 0.66190  0.37330  0.92410  Biso   1.000  N
  N13      1.0000 0.77150  0.55550  0.48470  Biso   1.000  N
  N14      1.0000 0.73150  0.46530  0.45260  Biso   1.000  N
  N15      1.0000 0.80060  0.32080  0.28290  Biso   1.000  N
  N16      1.0000 0.85900  0.35880  0.24860  Biso   1.000  N
  N17      1.0000 0.94500  0.61110  0.31290  Biso   1.000  N
  N18      1.0000 0.92410  0.66190  0.37330  Biso   1.000  N
  N19      1.0000 0.51530  0.22850  0.44450  Biso   1.000  N
  N20      1.0000 0.54740  0.26850  0.53470  Biso   1.000  N
  N21      1.0000 0.71710  0.19940  0.67920  Biso   1.000  N
  N22      1.0000 0.75140  0.14100  0.64120  Biso   1.000  N
  N23      1.0000 0.68710  0.05500  0.38890  Biso   1.000  N
  N24      1.0000 0.62670  0.07590  0.33810  Biso   1.000  N
  N25      1.0000 0.44450  0.51530  0.22850  Biso   1.000  N
  N26      1.0000 0.53470  0.54740  0.26850  Biso   1.000  N
  N27      1.0000 0.67920  0.71710  0.19940  Biso   1.000  N
  N28      1.0000 0.64120  0.75140  0.14100  Biso   1.000  N
  N29      1.0000 0.38890  0.68710  0.05500  Biso   1.000  N
  N30      1.0000 0.33810  0.62670  0.07590  Biso   1.000  N
  N31      1.0000 0.22850  0.44450  0.51530  Biso   1.000  N
  N32      1.0000 0.26850  0.53470  0.54740  Biso   1.000  N
  N33      1.0000 0.19940  0.67920  0.71710  Biso   1.000  N
  N34      1.0000 0.14100  0.64120  0.75140  Biso   1.000  N
  N35      1.0000 0.05500  0.38890  0.68710  Biso   1.000  N
  N36      1.0000 0.07590  0.33810  0.62670  Biso   1.000  N
  O1       1.0000 0.46970  0.81920  0.72200  Biso   1.000  O
  O2       1.0000 0.33600  0.71470  0.64970  Biso   1.000  O
  O3       1.0000 0.52630  0.78490  0.01170  Biso   1.000  O
  O4       1.0000 0.50370  0.65000  0.92560  Biso   1.000  O
  O5       1.0000 0.38410  0.86330  0.49830  Biso   1.000  O
  O6       1.0000 0.72200  0.46970  0.81920  Biso   1.000  O
  O7       1.0000 0.64970  0.33600  0.71470  Biso   1.000  O
  O8       1.0000 0.01170  0.52630  0.78490  Biso   1.000  O
  O9       1.0000 0.92560  0.50370  0.65000  Biso   1.000  O
  O10      1.0000 0.49830  0.38410  0.86330  Biso   1.000  O
  O11      1.0000 0.81920  0.72200  0.46970  Biso   1.000  O
  O12      1.0000 0.71470  0.64970  0.33600  Biso   1.000  O
  O13      1.0000 0.78490  0.01170  0.52630  Biso   1.000  O
  O14      1.0000 0.65000  0.92560  0.50370  Biso   1.000  O
  O15      1.0000 0.86330  0.49830  0.38410  Biso   1.000  O
  O16      1.0000 0.53030  0.18080  0.27800  Biso   1.000  O
  O17      1.0000 0.66400  0.28530  0.35030  Biso   1.000  O
  O18      1.0000 0.47370  0.21510  0.98830  Biso   1.000  O
  O19      1.0000 0.49630  0.35000  0.07440  Biso   1.000  O
  O20      1.0000 0.61590  0.13670  0.50170  Biso   1.000  O
  O21      1.0000 0.27800  0.53030  0.18080  Biso   1.000  O
  O22      1.0000 0.35030  0.66400  0.28530  Biso   1.000  O
  O23      1.0000 0.98830  0.47370  0.21510  Biso   1.000  O
  O24      1.0000 0.07440  0.49630  0.35000  Biso   1.000  O
  O25      1.0000 0.50170  0.61590  0.13670  Biso   1.000  O
  O26      1.0000 0.18080  0.27800  0.53030  Biso   1.000  O
  O27      1.0000 0.28530  0.35030  0.66400  Biso   1.000  O
  O28      1.0000 0.21510  0.98830  0.47370  Biso   1.000  O
  O29      1.0000 0.35000  0.07440  0.49630  Biso   1.000  O
  O30      1.0000 0.13670  0.50170  0.61590  Biso   1.000  O
