data_image0
_cell_length_a       16.7585
_cell_length_b       16.7585
_cell_length_c       16.7585
_cell_angle_alpha    105.192
_cell_angle_beta     105.192
_cell_angle_gamma    105.192

_symmetry_space_group_name_H-M    P 1
_symmetry_int_tables_number       1

loop_
  _symmetry_equiv_pos_as_xyz
  'x, y, z'

loop_
  _atom_site_label
  _atom_site_occupancy
  _atom_site_fract_x
  _atom_site_fract_y
  _atom_site_fract_z
  _atom_site_thermal_displace_type
  _atom_site_B_iso_or_equiv
  _atom_site_type_symbol
  Cu1      1.0000 0.43289  0.84748  0.60885  Biso   1.000  Cu
  Cu2      1.0000 0.36806  0.76421  0.38783  Biso   1.000  Cu
  Cu3      1.0000 0.28478  0.90829  0.48468  Biso   1.000  Cu
  Cu4      1.0000 0.60885  0.43289  0.84748  Biso   1.000  Cu
  Cu5      1.0000 0.38783  0.36806  0.76421  Biso   1.000  Cu
  Cu6      1.0000 0.48468  0.28478  0.90829  Biso   1.000  Cu
  Cu7      1.0000 0.84748  0.60885  0.43289  Biso   1.000  Cu
  Cu8      1.0000 0.76421  0.38783  0.36806  Biso   1.000  Cu
  Cu9      1.0000 0.90829  0.48468  0.28478  Biso   1.000  Cu
  Cu10     1.0000 0.56711  0.15252  0.39115  Biso   1.000  Cu
  Cu11     1.0000 0.63194  0.23579  0.61217  Biso   1.000  Cu
  Cu12     1.0000 0.71522  0.09171  0.51532  Biso   1.000  Cu
  Cu13     1.0000 0.39115  0.56711  0.15252  Biso   1.000  Cu
  Cu14     1.0000 0.61217  0.63194  0.23579  Biso   1.000  Cu
  Cu15     1.0000 0.51532  0.71522  0.09171  Biso   1.000  Cu
  Cu16     1.0000 0.15252  0.39115  0.56711  Biso   1.000  Cu
  Cu17     1.0000 0.23579  0.61217  0.63194  Biso   1.000  Cu
  Cu18     1.0000 0.09171  0.51532  0.71522  Biso   1.000  Cu
  H1       1.0000 0.57650  0.75790  0.64350  Biso   1.000  H
  H2       1.0000 0.59080  0.64610  0.52110  Biso   1.000  H
  H3       1.0000 0.48230  0.63790  0.38340  Biso   1.000  H
  H4       1.0000 0.26250  0.73940  0.18730  Biso   1.000  H
  H5       1.0000 0.17070  0.83420  0.15700  Biso   1.000  H
  H6       1.0000 0.16970  0.91730  0.30380  Biso   1.000  H
  H7       1.0000 0.24730  0.02350  0.64590  Biso   1.000  H
  H8       1.0000 0.33070  0.03840  0.79990  Biso   1.000  H
  H9       1.0000 0.42890  0.95470  0.79410  Biso   1.000  H
  H10      1.0000 0.41340  0.66060  0.77100  Biso   1.000  H
  H11      1.0000 0.38540  0.73430  0.82160  Biso   1.000  H
  H12      1.0000 0.55440  0.74580  0.83790  Biso   1.000  H
  H13      1.0000 0.52880  0.82370  0.88550  Biso   1.000  H
  H14      1.0000 0.42380  0.90290  0.49580  Biso   1.000  H
  H15      1.0000 0.64350  0.57650  0.75790  Biso   1.000  H
  H16      1.0000 0.52110  0.59080  0.64610  Biso   1.000  H
  H17      1.0000 0.38340  0.48230  0.63790  Biso   1.000  H
  H18      1.0000 0.18730  0.26250  0.73940  Biso   1.000  H
  H19      1.0000 0.15700  0.17070  0.83420  Biso   1.000  H
  H20      1.0000 0.30380  0.16970  0.91730  Biso   1.000  H
  H21      1.0000 0.64590  0.24730  0.02350  Biso   1.000  H
  H22      1.0000 0.79990  0.33070  0.03840  Biso   1.000  H
  H23      1.0000 0.79410  0.42890  0.95470  Biso   1.000  H
  H24      1.0000 0.77100  0.41340  0.66060  Biso   1.000  H
  H25      1.0000 0.82160  0.38540  0.73430  Biso   1.000  H
  H26      1.0000 0.83790  0.55440  0.74580  Biso   1.000  H
  H27      1.0000 0.88550  0.52880  0.82370  Biso   1.000  H
  H28      1.0000 0.49580  0.42380  0.90290  Biso   1.000  H
  H29      1.0000 0.75790  0.64350  0.57650  Biso   1.000  H
  H30      1.0000 0.64610  0.52110  0.59080  Biso   1.000  H
  H31      1.0000 0.63790  0.38340  0.48230  Biso   1.000  H
  H32      1.0000 0.73940  0.18730  0.26250  Biso   1.000  H
  H33      1.0000 0.83420  0.15700  0.17070  Biso   1.000  H
  H34      1.0000 0.91730  0.30380  0.16970  Biso   1.000  H
  H35      1.0000 0.02350  0.64590  0.24730  Biso   1.000  H
  H36      1.0000 0.03840  0.79990  0.33070  Biso   1.000  H
  H37      1.0000 0.95470  0.79410  0.42890  Biso   1.000  H
  H38      1.0000 0.66060  0.77100  0.41340  Biso   1.000  H
  H39      1.0000 0.73430  0.82160  0.38540  Biso   1.000  H
  H40      1.0000 0.74580  0.83790  0.55440  Biso   1.000  H
  H41      1.0000 0.82370  0.88550  0.52880  Biso   1.000  H
  H42      1.0000 0.90290  0.49580  0.42380  Biso   1.000  H
  H43      1.0000 0.42350  0.24210  0.35650  Biso   1.000  H
  H44      1.0000 0.40920  0.35390  0.47890  Biso   1.000  H
  H45      1.0000 0.51770  0.36210  0.61660  Biso   1.000  H
  H46      1.0000 0.73750  0.26060  0.81270  Biso   1.000  H
  H47      1.0000 0.82930  0.16580  0.84300  Biso   1.000  H
  H48      1.0000 0.83030  0.08270  0.69620  Biso   1.000  H
  H49      1.0000 0.75270  0.97650  0.35410  Biso   1.000  H
  H50      1.0000 0.66930  0.96160  0.20010  Biso   1.000  H
  H51      1.0000 0.57110  0.04530  0.20590  Biso   1.000  H
  H52      1.0000 0.58660  0.33940  0.22900  Biso   1.000  H
  H53      1.0000 0.61460  0.26570  0.17840  Biso   1.000  H
  H54      1.0000 0.44560  0.25420  0.16210  Biso   1.000  H
  H55      1.0000 0.47120  0.17630  0.11450  Biso   1.000  H
  H56      1.0000 0.57620  0.09710  0.50420  Biso   1.000  H
  H57      1.0000 0.35650  0.42350  0.24210  Biso   1.000  H
  H58      1.0000 0.47890  0.40920  0.35390  Biso   1.000  H
  H59      1.0000 0.61660  0.51770  0.36210  Biso   1.000  H
  H60      1.0000 0.81270  0.73750  0.26060  Biso   1.000  H
  H61      1.0000 0.84300  0.82930  0.16580  Biso   1.000  H
  H62      1.0000 0.69620  0.83030  0.08270  Biso   1.000  H
  H63      1.0000 0.35410  0.75270  0.97650  Biso   1.000  H
  H64      1.0000 0.20010  0.66930  0.96160  Biso   1.000  H
  H65      1.0000 0.20590  0.57110  0.04530  Biso   1.000  H
  H66      1.0000 0.22900  0.58660  0.33940  Biso   1.000  H
  H67      1.0000 0.17840  0.61460  0.26570  Biso   1.000  H
  H68      1.0000 0.16210  0.44560  0.25420  Biso   1.000  H
  H69      1.0000 0.11450  0.47120  0.17630  Biso   1.000  H
  H70      1.0000 0.50420  0.57620  0.09710  Biso   1.000  H
  H71      1.0000 0.24210  0.35650  0.42350  Biso   1.000  H
  H72      1.0000 0.35390  0.47890  0.40920  Biso   1.000  H
  H73      1.0000 0.36210  0.61660  0.51770  Biso   1.000  H
  H74      1.0000 0.26060  0.81270  0.73750  Biso   1.000  H
  H75      1.0000 0.16580  0.84300  0.82930  Biso   1.000  H
  H76      1.0000 0.08270  0.69620  0.83030  Biso   1.000  H
  H77      1.0000 0.97650  0.35410  0.75270  Biso   1.000  H
  H78      1.0000 0.96160  0.20010  0.66930  Biso   1.000  H
  H79      1.0000 0.04530  0.20590  0.57110  Biso   1.000  H
  H80      1.0000 0.33940  0.22900  0.58660  Biso   1.000  H
  H81      1.0000 0.26570  0.17840  0.61460  Biso   1.000  H
  H82      1.0000 0.25420  0.16210  0.44560  Biso   1.000  H
  H83      1.0000 0.17630  0.11450  0.47120  Biso   1.000  H
  H84      1.0000 0.09710  0.50420  0.57620  Biso   1.000  H
  C1       1.0000 0.54370  0.74010  0.58370  Biso   1.000  C
  C2       1.0000 0.55280  0.67760  0.51590  Biso   1.000  C
  C3       1.0000 0.49310  0.67360  0.44070  Biso   1.000  C
  C4       1.0000 0.25230  0.78050  0.22900  Biso   1.000  C
  C5       1.0000 0.19980  0.83220  0.21150  Biso   1.000  C
  C6       1.0000 0.20140  0.87970  0.29500  Biso   1.000  C
  C7       1.0000 0.28940  0.99840  0.66220  Biso   1.000  C
  C8       1.0000 0.33680  0.00630  0.74880  Biso   1.000  C
  C9       1.0000 0.39130  0.96120  0.74630  Biso   1.000  C
  C10      1.0000 0.41200  0.75500  0.71520  Biso   1.000  C
  C11      1.0000 0.42800  0.72410  0.79430  Biso   1.000  C
  C12      1.0000 0.51130  0.75980  0.86250  Biso   1.000  C
  C13      1.0000 0.51360  0.72670  0.93680  Biso   1.000  C
  C14      1.0000 0.58370  0.54370  0.74010  Biso   1.000  C
  C15      1.0000 0.51590  0.55280  0.67760  Biso   1.000  C
  C16      1.0000 0.44070  0.49310  0.67360  Biso   1.000  C
  C17      1.0000 0.22900  0.25230  0.78050  Biso   1.000  C
  C18      1.0000 0.21150  0.19980  0.83220  Biso   1.000  C
  C19      1.0000 0.29500  0.20140  0.87970  Biso   1.000  C
  C20      1.0000 0.66220  0.28940  0.99840  Biso   1.000  C
  C21      1.0000 0.74880  0.33680  0.00630  Biso   1.000  C
  C22      1.0000 0.74630  0.39130  0.96120  Biso   1.000  C
  C23      1.0000 0.71520  0.41200  0.75500  Biso   1.000  C
  C24      1.0000 0.79430  0.42800  0.72410  Biso   1.000  C
  C25      1.0000 0.86250  0.51130  0.75980  Biso   1.000  C
  C26      1.0000 0.93680  0.51360  0.72670  Biso   1.000  C
  C27      1.0000 0.74010  0.58370  0.54370  Biso   1.000  C
  C28      1.0000 0.67760  0.51590  0.55280  Biso   1.000  C
  C29      1.0000 0.67360  0.44070  0.49310  Biso   1.000  C
  C30      1.0000 0.78050  0.22900  0.25230  Biso   1.000  C
  C31      1.0000 0.83220  0.21150  0.19980  Biso   1.000  C
  C32      1.0000 0.87970  0.29500  0.20140  Biso   1.000  C
  C33      1.0000 0.99840  0.66220  0.28940  Biso   1.000  C
  C34      1.0000 0.00630  0.74880  0.33680  Biso   1.000  C
  C35      1.0000 0.96120  0.74630  0.39130  Biso   1.000  C
  C36      1.0000 0.75500  0.71520  0.41200  Biso   1.000  C
  C37      1.0000 0.72410  0.79430  0.42800  Biso   1.000  C
  C38      1.0000 0.75980  0.86250  0.51130  Biso   1.000  C
  C39      1.0000 0.72670  0.93680  0.51360  Biso   1.000  C
  C40      1.0000 0.45630  0.25990  0.41630  Biso   1.000  C
  C41      1.0000 0.44720  0.32240  0.48410  Biso   1.000  C
  C42      1.0000 0.50690  0.32640  0.55930  Biso   1.000  C
  C43      1.0000 0.74770  0.21950  0.77100  Biso   1.000  C
  C44      1.0000 0.80020  0.16780  0.78850  Biso   1.000  C
  C45      1.0000 0.79860  0.12030  0.70500  Biso   1.000  C
  C46      1.0000 0.71060  0.00160  0.33780  Biso   1.000  C
  C47      1.0000 0.66320  0.99370  0.25120  Biso   1.000  C
  C48      1.0000 0.60870  0.03880  0.25370  Biso   1.000  C
  C49      1.0000 0.58800  0.24500  0.28480  Biso   1.000  C
  C50      1.0000 0.57200  0.27590  0.20570  Biso   1.000  C
  C51      1.0000 0.48870  0.24020  0.13750  Biso   1.000  C
  C52      1.0000 0.48640  0.27330  0.06320  Biso   1.000  C
  C53      1.0000 0.41630  0.45630  0.25990  Biso   1.000  C
  C54      1.0000 0.48410  0.44720  0.32240  Biso   1.000  C
  C55      1.0000 0.55930  0.50690  0.32640  Biso   1.000  C
  C56      1.0000 0.77100  0.74770  0.21950  Biso   1.000  C
  C57      1.0000 0.78850  0.80020  0.16780  Biso   1.000  C
  C58      1.0000 0.70500  0.79860  0.12030  Biso   1.000  C
  C59      1.0000 0.33780  0.71060  0.00160  Biso   1.000  C
  C60      1.0000 0.25120  0.66320  0.99370  Biso   1.000  C
  C61      1.0000 0.25370  0.60870  0.03880  Biso   1.000  C
  C62      1.0000 0.28480  0.58800  0.24500  Biso   1.000  C
  C63      1.0000 0.20570  0.57200  0.27590  Biso   1.000  C
  C64      1.0000 0.13750  0.48870  0.24020  Biso   1.000  C
  C65      1.0000 0.06320  0.48640  0.27330  Biso   1.000  C
  C66      1.0000 0.25990  0.41630  0.45630  Biso   1.000  C
  C67      1.0000 0.32240  0.48410  0.44720  Biso   1.000  C
  C68      1.0000 0.32640  0.55930  0.50690  Biso   1.000  C
  C69      1.0000 0.21950  0.77100  0.74770  Biso   1.000  C
  C70      1.0000 0.16780  0.78850  0.80020  Biso   1.000  C
  C71      1.0000 0.12030  0.70500  0.79860  Biso   1.000  C
  C72      1.0000 0.00160  0.33780  0.71060  Biso   1.000  C
  C73      1.0000 0.99370  0.25120  0.66320  Biso   1.000  C
  C74      1.0000 0.03880  0.25370  0.60870  Biso   1.000  C
  C75      1.0000 0.24500  0.28480  0.58800  Biso   1.000  C
  C76      1.0000 0.27590  0.20570  0.57200  Biso   1.000  C
  C77      1.0000 0.24020  0.13750  0.48870  Biso   1.000  C
  C78      1.0000 0.27330  0.06320  0.48640  Biso   1.000  C
  N1       1.0000 0.48310  0.77000  0.55140  Biso   1.000  N
  N2       1.0000 0.45250  0.73060  0.46420  Biso   1.000  N
  N3       1.0000 0.28470  0.80250  0.31800  Biso   1.000  N
  N4       1.0000 0.25520  0.86420  0.36230  Biso   1.000  N
  N5       1.0000 0.31680  0.94770  0.60870  Biso   1.000  N
  N6       1.0000 0.38130  0.92820  0.66360  Biso   1.000  N
  N7       1.0000 0.55140  0.48310  0.77000  Biso   1.000  N
  N8       1.0000 0.46420  0.45250  0.73060  Biso   1.000  N
  N9       1.0000 0.31800  0.28470  0.80250  Biso   1.000  N
  N10      1.0000 0.36230  0.25520  0.86420  Biso   1.000  N
  N11      1.0000 0.60870  0.31680  0.94770  Biso   1.000  N
  N12      1.0000 0.66360  0.38130  0.92820  Biso   1.000  N
  N13      1.0000 0.77000  0.55140  0.48310  Biso   1.000  N
  N14      1.0000 0.73060  0.46420  0.45250  Biso   1.000  N
  N15      1.0000 0.80250  0.31800  0.28470  Biso   1.000  N
  N16      1.0000 0.86420  0.36230  0.25520  Biso   1.000  N
  N17      1.0000 0.94770  0.60870  0.31680  Biso   1.000  N
  N18      1.0000 0.92820  0.66360  0.38130  Biso   1.000  N
  N19      1.0000 0.51690  0.23000  0.44860  Biso   1.000  N
  N20      1.0000 0.54750  0.26940  0.53580  Biso   1.000  N
  N21      1.0000 0.71530  0.19750  0.68200  Biso   1.000  N
  N22      1.0000 0.74480  0.13580  0.63770  Biso   1.000  N
  N23      1.0000 0.68320  0.05230  0.39130  Biso   1.000  N
  N24      1.0000 0.61870  0.07180  0.33640  Biso   1.000  N
  N25      1.0000 0.44860  0.51690  0.23000  Biso   1.000  N
  N26      1.0000 0.53580  0.54750  0.26940  Biso   1.000  N
  N27      1.0000 0.68200  0.71530  0.19750  Biso   1.000  N
  N28      1.0000 0.63770  0.74480  0.13580  Biso   1.000  N
  N29      1.0000 0.39130  0.68320  0.05230  Biso   1.000  N
  N30      1.0000 0.33640  0.61870  0.07180  Biso   1.000  N
  N31      1.0000 0.23000  0.44860  0.51690  Biso   1.000  N
  N32      1.0000 0.26940  0.53580  0.54750  Biso   1.000  N
  N33      1.0000 0.19750  0.68200  0.71530  Biso   1.000  N
  N34      1.0000 0.13580  0.63770  0.74480  Biso   1.000  N
  N35      1.0000 0.05230  0.39130  0.68320  Biso   1.000  N
  N36      1.0000 0.07180  0.33640  0.61870  Biso   1.000  N
  O1       1.0000 0.47240  0.82150  0.71850  Biso   1.000  O
  O2       1.0000 0.33950  0.71890  0.65370  Biso   1.000  O
  O3       1.0000 0.52350  0.78120  0.01040  Biso   1.000  O
  O4       1.0000 0.51040  0.65210  0.92640  Biso   1.000  O
  O5       1.0000 0.38330  0.86180  0.49310  Biso   1.000  O
  O6       1.0000 0.71850  0.47240  0.82150  Biso   1.000  O
  O7       1.0000 0.65370  0.33950  0.71890  Biso   1.000  O
  O8       1.0000 0.01040  0.52350  0.78120  Biso   1.000  O
  O9       1.0000 0.92640  0.51040  0.65210  Biso   1.000  O
  O10      1.0000 0.49310  0.38330  0.86180  Biso   1.000  O
  O11      1.0000 0.82150  0.71850  0.47240  Biso   1.000  O
  O12      1.0000 0.71890  0.65370  0.33950  Biso   1.000  O
  O13      1.0000 0.78120  0.01040  0.52350  Biso   1.000  O
  O14      1.0000 0.65210  0.92640  0.51040  Biso   1.000  O
  O15      1.0000 0.86180  0.49310  0.38330  Biso   1.000  O
  O16      1.0000 0.52760  0.17850  0.28150  Biso   1.000  O
  O17      1.0000 0.66050  0.28110  0.34630  Biso   1.000  O
  O18      1.0000 0.47650  0.21880  0.98960  Biso   1.000  O
  O19      1.0000 0.48960  0.34790  0.07360  Biso   1.000  O
  O20      1.0000 0.61670  0.13820  0.50690  Biso   1.000  O
  O21      1.0000 0.28150  0.52760  0.17850  Biso   1.000  O
  O22      1.0000 0.34630  0.66050  0.28110  Biso   1.000  O
  O23      1.0000 0.98960  0.47650  0.21880  Biso   1.000  O
  O24      1.0000 0.07360  0.48960  0.34790  Biso   1.000  O
  O25      1.0000 0.50690  0.61670  0.13820  Biso   1.000  O
  O26      1.0000 0.17850  0.28150  0.52760  Biso   1.000  O
  O27      1.0000 0.28110  0.34630  0.66050  Biso   1.000  O
  O28      1.0000 0.21880  0.98960  0.47650  Biso   1.000  O
  O29      1.0000 0.34790  0.07360  0.48960  Biso   1.000  O
  O30      1.0000 0.13820  0.50690  0.61670  Biso   1.000  O
