data_image0
_cell_length_a       8.4319
_cell_length_b       12.8251
_cell_length_c       20.924
_cell_angle_alpha    73.462
_cell_angle_beta     84.692
_cell_angle_gamma    78.307

_symmetry_space_group_name_H-M    P 1
_symmetry_int_tables_number       1

loop_
  _symmetry_equiv_pos_as_xyz
  'x, y, z'

loop_
  _atom_site_label
  _atom_site_occupancy
  _atom_site_fract_x
  _atom_site_fract_y
  _atom_site_fract_z
  _atom_site_thermal_displace_type
  _atom_site_B_iso_or_equiv
  _atom_site_type_symbol
  Mg1      1.0000 0.43397  0.82994  0.00053  Biso   1.000  Mg
  Mg2      1.0000 0.56603  0.17006  0.99947  Biso   1.000  Mg
  Mg3      1.0000 0.00000  0.00000  0.00000  Biso   1.000  Mg
  H1       1.0000 0.13270  0.18420  0.97970  Biso   1.000  H
  H2       1.0000 0.22740  0.07920  0.02520  Biso   1.000  H
  H3       1.0000 0.58430  0.04700  0.18770  Biso   1.000  H
  H4       1.0000 0.35490  0.74630  0.30510  Biso   1.000  H
  H5       1.0000 0.35110  0.80150  0.19070  Biso   1.000  H
  H6       1.0000 0.16000  0.70600  0.74200  Biso   1.000  H
  H7       1.0000 0.93080  0.52870  0.75010  Biso   1.000  H
  H8       1.0000 0.60700  0.98410  0.30080  Biso   1.000  H
  H9       1.0000 0.01540  0.79280  0.62900  Biso   1.000  H
  H10      1.0000 0.65070  0.80330  0.76770  Biso   1.000  H
  H11      1.0000 0.13400  0.16020  0.85370  Biso   1.000  H
  H12      1.0000 0.48850  0.74820  0.70500  Biso   1.000  H
  H13      1.0000 0.44860  0.41480  0.77140  Biso   1.000  H
  H14      1.0000 0.30830  0.72570  0.82440  Biso   1.000  H
  H15      1.0000 0.95160  0.96900  0.85860  Biso   1.000  H
  H16      1.0000 0.62170  0.52140  0.70500  Biso   1.000  H
  H17      1.0000 0.09970  0.55510  0.63810  Biso   1.000  H
  H18      1.0000 0.30070  0.26580  0.78110  Biso   1.000  H
  H19      1.0000 0.27090  0.66570  0.57290  Biso   1.000  H
  H20      1.0000 0.57430  0.57730  0.50490  Biso   1.000  H
  H21      1.0000 0.79850  0.94620  0.77890  Biso   1.000  H
  H22      1.0000 0.76670  0.42460  0.82580  Biso   1.000  H
  H23      1.0000 0.52850  0.88700  0.52330  Biso   1.000  H
  H24      1.0000 0.85560  0.73380  0.56680  Biso   1.000  H
  H25      1.0000 0.49610  0.95780  0.40970  Biso   1.000  H
  H26      1.0000 0.53380  0.64870  0.39280  Biso   1.000  H
  H27      1.0000 0.87230  0.44900  0.93710  Biso   1.000  H
  H28      1.0000 0.91040  0.41540  0.01300  Biso   1.000  H
  H29      1.0000 0.74280  0.40450  0.99130  Biso   1.000  H
  H30      1.0000 0.86730  0.81580  0.02030  Biso   1.000  H
  H31      1.0000 0.77260  0.92080  0.97480  Biso   1.000  H
  H32      1.0000 0.41570  0.95300  0.81230  Biso   1.000  H
  H33      1.0000 0.64510  0.25370  0.69490  Biso   1.000  H
  H34      1.0000 0.64890  0.19850  0.80930  Biso   1.000  H
  H35      1.0000 0.84000  0.29400  0.25800  Biso   1.000  H
  H36      1.0000 0.06920  0.47130  0.24990  Biso   1.000  H
  H37      1.0000 0.39300  0.01590  0.69920  Biso   1.000  H
  H38      1.0000 0.98460  0.20720  0.37100  Biso   1.000  H
  H39      1.0000 0.34930  0.19670  0.23230  Biso   1.000  H
  H40      1.0000 0.86600  0.83980  0.14630  Biso   1.000  H
  H41      1.0000 0.51150  0.25180  0.29500  Biso   1.000  H
  H42      1.0000 0.55140  0.58520  0.22860  Biso   1.000  H
  H43      1.0000 0.69170  0.27430  0.17560  Biso   1.000  H
  H44      1.0000 0.04840  0.03100  0.14140  Biso   1.000  H
  H45      1.0000 0.37830  0.47860  0.29500  Biso   1.000  H
  H46      1.0000 0.90030  0.44490  0.36190  Biso   1.000  H
  H47      1.0000 0.69930  0.73420  0.21890  Biso   1.000  H
  H48      1.0000 0.72910  0.33430  0.42710  Biso   1.000  H
  H49      1.0000 0.42570  0.42270  0.49510  Biso   1.000  H
  H50      1.0000 0.20150  0.05380  0.22110  Biso   1.000  H
  H51      1.0000 0.23330  0.57540  0.17420  Biso   1.000  H
  H52      1.0000 0.47150  0.11300  0.47670  Biso   1.000  H
  H53      1.0000 0.14440  0.26620  0.43320  Biso   1.000  H
  H54      1.0000 0.50390  0.04220  0.59030  Biso   1.000  H
  H55      1.0000 0.46620  0.35130  0.60720  Biso   1.000  H
  H56      1.0000 0.12770  0.55100  0.06290  Biso   1.000  H
  H57      1.0000 0.08960  0.58460  0.98700  Biso   1.000  H
  H58      1.0000 0.25720  0.59550  0.00870  Biso   1.000  H
  C1       1.0000 0.54250  0.98450  0.21120  Biso   1.000  C
  C2       1.0000 0.46790  0.92990  0.17650  Biso   1.000  C
  C3       1.0000 0.40630  0.80410  0.28130  Biso   1.000  C
  C4       1.0000 0.40050  0.83900  0.21290  Biso   1.000  C
  C5       1.0000 0.83560  0.21380  0.90360  Biso   1.000  C
  C6       1.0000 0.48930  0.85490  0.31570  Biso   1.000  C
  C7       1.0000 0.11670  0.75640  0.76620  Biso   1.000  C
  C8       1.0000 0.96060  0.82120  0.75270  Biso   1.000  C
  C9       1.0000 0.25060  0.47520  0.71370  Biso   1.000  C
  C10      1.0000 0.97220  0.45550  0.77200  Biso   1.000  C
  C11      1.0000 0.93490  0.28210  0.85030  Biso   1.000  C
  C12      1.0000 0.23420  0.84630  0.91070  Biso   1.000  C
  C13      1.0000 0.85430  0.79880  0.70740  Biso   1.000  C
  C14      1.0000 0.46530  0.96680  0.10200  Biso   1.000  C
  C15      1.0000 0.14020  0.84390  0.85300  Biso   1.000  C
  C16      1.0000 0.46320  0.60940  0.63330  Biso   1.000  C
  C17      1.0000 0.55490  0.94760  0.27890  Biso   1.000  C
  C18      1.0000 0.91220  0.78100  0.64510  Biso   1.000  C
  C19      1.0000 0.69270  0.78760  0.72810  Biso   1.000  C
  C20      1.0000 0.13680  0.40910  0.75840  Biso   1.000  C
  C21      1.0000 0.09500  0.23480  0.83420  Biso   1.000  C
  C22      1.0000 0.59510  0.75390  0.69090  Biso   1.000  C
  C23      1.0000 0.41180  0.46580  0.73180  Biso   1.000  C
  C24      1.0000 0.20530  0.76810  0.81580  Biso   1.000  C
  C25      1.0000 0.99010  0.91430  0.83690  Biso   1.000  C
  C26      1.0000 0.55320  0.72490  0.52660  Biso   1.000  C
  C27      1.0000 0.51590  0.53050  0.69230  Biso   1.000  C
  C28      1.0000 0.20270  0.54980  0.65270  Biso   1.000  C
  C29      1.0000 0.65920  0.72840  0.63140  Biso   1.000  C
  C30      1.0000 0.19470  0.29780  0.78990  Biso   1.000  C
  C31      1.0000 0.30620  0.61620  0.61310  Biso   1.000  C
  C32      1.0000 0.55660  0.65350  0.48610  Biso   1.000  C
  C33      1.0000 0.89990  0.90170  0.78840  Biso   1.000  C
  C34      1.0000 0.87320  0.39320  0.81730  Biso   1.000  C
  C35      1.0000 0.51040  0.81100  0.38860  Biso   1.000  C
  C36      1.0000 0.53020  0.83920  0.49700  Biso   1.000  C
  C37      1.0000 0.81600  0.74580  0.60760  Biso   1.000  C
  C38      1.0000 0.51000  0.88170  0.42880  Biso   1.000  C
  C39      1.0000 0.53380  0.69650  0.41890  Biso   1.000  C
  C40      1.0000 0.68850  0.61520  0.01220  Biso   1.000  C
  C41      1.0000 0.82710  0.44770  0.98110  Biso   1.000  C
  C42      1.0000 0.45750  0.01550  0.78880  Biso   1.000  C
  C43      1.0000 0.53210  0.07010  0.82350  Biso   1.000  C
  C44      1.0000 0.59370  0.19590  0.71870  Biso   1.000  C
  C45      1.0000 0.59950  0.16100  0.78710  Biso   1.000  C
  C46      1.0000 0.16440  0.78620  0.09640  Biso   1.000  C
  C47      1.0000 0.51070  0.14510  0.68430  Biso   1.000  C
  C48      1.0000 0.88330  0.24360  0.23380  Biso   1.000  C
  C49      1.0000 0.03940  0.17880  0.24730  Biso   1.000  C
  C50      1.0000 0.74940  0.52480  0.28630  Biso   1.000  C
  C51      1.0000 0.02780  0.54450  0.22800  Biso   1.000  C
  C52      1.0000 0.06510  0.71790  0.14970  Biso   1.000  C
  C53      1.0000 0.76580  0.15370  0.08930  Biso   1.000  C
  C54      1.0000 0.14570  0.20120  0.29260  Biso   1.000  C
  C55      1.0000 0.53470  0.03320  0.89800  Biso   1.000  C
  C56      1.0000 0.85980  0.15610  0.14700  Biso   1.000  C
  C57      1.0000 0.53680  0.39060  0.36670  Biso   1.000  C
  C58      1.0000 0.44510  0.05240  0.72110  Biso   1.000  C
  C59      1.0000 0.08780  0.21900  0.35490  Biso   1.000  C
  C60      1.0000 0.30730  0.21240  0.27190  Biso   1.000  C
  C61      1.0000 0.86320  0.59090  0.24160  Biso   1.000  C
  C62      1.0000 0.90500  0.76520  0.16580  Biso   1.000  C
  C63      1.0000 0.40490  0.24610  0.30910  Biso   1.000  C
  C64      1.0000 0.58820  0.53420  0.26820  Biso   1.000  C
  C65      1.0000 0.79470  0.23190  0.18420  Biso   1.000  C
  C66      1.0000 0.00990  0.08570  0.16310  Biso   1.000  C
  C67      1.0000 0.44680  0.27510  0.47340  Biso   1.000  C
  C68      1.0000 0.48410  0.46950  0.30770  Biso   1.000  C
  C69      1.0000 0.79730  0.45020  0.34730  Biso   1.000  C
  C70      1.0000 0.34080  0.27160  0.36860  Biso   1.000  C
  C71      1.0000 0.80530  0.70220  0.21010  Biso   1.000  C
  C72      1.0000 0.69380  0.38380  0.38690  Biso   1.000  C
  C73      1.0000 0.44340  0.34650  0.51390  Biso   1.000  C
  C74      1.0000 0.10010  0.09830  0.21160  Biso   1.000  C
  C75      1.0000 0.12680  0.60680  0.18270  Biso   1.000  C
  C76      1.0000 0.48960  0.18900  0.61140  Biso   1.000  C
  C77      1.0000 0.46980  0.16080  0.50300  Biso   1.000  C
  C78      1.0000 0.18400  0.25420  0.39240  Biso   1.000  C
  C79      1.0000 0.49000  0.11830  0.57120  Biso   1.000  C
  C80      1.0000 0.46620  0.30350  0.58110  Biso   1.000  C
  C81      1.0000 0.31150  0.38480  0.98780  Biso   1.000  C
  C82      1.0000 0.17290  0.55230  0.01890  Biso   1.000  C
  N1       1.0000 0.56630  0.68230  0.59646  Biso   1.000  N
  N2       1.0000 0.76020  0.55970  0.98410  Biso   1.000  N
  N3       1.0000 0.43370  0.31770  0.40354  Biso   1.000  N
  N4       1.0000 0.23980  0.44030  0.01590  Biso   1.000  N
  O1       1.0000 0.64110  0.70980  0.01464  Biso   1.000  O
  O2       1.0000 0.15040  0.11180  0.00163  Biso   1.000  O
  O3       1.0000 0.35940  0.77130  0.92675  Biso   1.000  O
  O4       1.0000 0.18910  0.92210  0.94120  Biso   1.000  O
  O5       1.0000 0.70690  0.26220  0.92687  Biso   1.000  O
  O6       1.0000 0.89080  0.10890  0.92081  Biso   1.000  O
  O7       1.0000 0.44180  0.07000  0.07450  Biso   1.000  O
  O8       1.0000 0.48530  0.89160  0.07234  Biso   1.000  O
  O9       1.0000 0.35890  0.29020  0.98536  Biso   1.000  O
  O10      1.0000 0.84960  0.88820  0.99837  Biso   1.000  O
  O11      1.0000 0.64060  0.22870  0.07325  Biso   1.000  O
  O12      1.0000 0.81090  0.07790  0.05880  Biso   1.000  O
  O13      1.0000 0.29310  0.73780  0.07313  Biso   1.000  O
  O14      1.0000 0.10920  0.89110  0.07919  Biso   1.000  O
  O15      1.0000 0.55820  0.93000  0.92550  Biso   1.000  O
  O16      1.0000 0.51470  0.10840  0.92766  Biso   1.000  O
