data_image0
_cell_length_a       9.4003
_cell_length_b       9.4003
_cell_length_c       17.35
_cell_angle_alpha    90
_cell_angle_beta     90
_cell_angle_gamma    120

_symmetry_space_group_name_H-M    P 1
_symmetry_int_tables_number       1

loop_
  _symmetry_equiv_pos_as_xyz
  'x, y, z'

loop_
  _atom_site_label
  _atom_site_occupancy
  _atom_site_fract_x
  _atom_site_fract_y
  _atom_site_fract_z
  _atom_site_thermal_displace_type
  _atom_site_B_iso_or_equiv
  _atom_site_type_symbol
  Pr1      1.0000 0.33333  0.66666  0.75000  Biso   1.000  Pr
  Pr2      1.0000 0.66667  0.33334  0.25000  Biso   1.000  Pr
  Pr3      1.0000 0.00000  0.00000  0.00000  Biso   1.000  Pr
  Pr4      1.0000 0.00000  0.00000  0.50000  Biso   1.000  Pr
  H1       1.0000 0.50150  0.67180  0.97410  Biso   1.000  H
  H2       1.0000 0.57540  0.59550  0.91720  Biso   1.000  H
  H3       1.0000 0.17030  0.49850  0.97410  Biso   1.000  H
  H4       1.0000 0.02010  0.42460  0.91720  Biso   1.000  H
  H5       1.0000 0.32820  0.82970  0.97410  Biso   1.000  H
  H6       1.0000 0.40450  0.97990  0.91720  Biso   1.000  H
  H7       1.0000 0.50150  0.67180  0.52590  Biso   1.000  H
  H8       1.0000 0.57540  0.59550  0.58280  Biso   1.000  H
  H9       1.0000 0.17030  0.49850  0.52590  Biso   1.000  H
  H10      1.0000 0.02010  0.42460  0.58280  Biso   1.000  H
  H11      1.0000 0.32820  0.82970  0.52590  Biso   1.000  H
  H12      1.0000 0.40450  0.97990  0.58280  Biso   1.000  H
  H13      1.0000 0.82970  0.32820  0.02590  Biso   1.000  H
  H14      1.0000 0.97990  0.40450  0.08280  Biso   1.000  H
  H15      1.0000 0.67180  0.50150  0.02590  Biso   1.000  H
  H16      1.0000 0.59550  0.57540  0.08280  Biso   1.000  H
  H17      1.0000 0.49850  0.17030  0.02590  Biso   1.000  H
  H18      1.0000 0.42460  0.02010  0.08280  Biso   1.000  H
  H19      1.0000 0.82970  0.32820  0.47410  Biso   1.000  H
  H20      1.0000 0.97990  0.40450  0.41720  Biso   1.000  H
  H21      1.0000 0.67180  0.50150  0.47410  Biso   1.000  H
  H22      1.0000 0.59550  0.57540  0.41720  Biso   1.000  H
  H23      1.0000 0.49850  0.17030  0.47410  Biso   1.000  H
  H24      1.0000 0.42460  0.02010  0.41720  Biso   1.000  H
  C1       1.0000 0.65160  0.83410  0.89390  Biso   1.000  C
  C2       1.0000 0.60000  0.69290  0.94660  Biso   1.000  C
  C3       1.0000 0.18250  0.34840  0.89390  Biso   1.000  C
  C4       1.0000 0.09290  0.40000  0.94660  Biso   1.000  C
  C5       1.0000 0.16590  0.81750  0.89390  Biso   1.000  C
  C6       1.0000 0.30710  0.90710  0.94660  Biso   1.000  C
  C7       1.0000 0.65160  0.83410  0.60610  Biso   1.000  C
  C8       1.0000 0.60000  0.69290  0.55340  Biso   1.000  C
  C9       1.0000 0.18250  0.34840  0.60610  Biso   1.000  C
  C10      1.0000 0.09290  0.40000  0.55340  Biso   1.000  C
  C11      1.0000 0.16590  0.81750  0.60610  Biso   1.000  C
  C12      1.0000 0.30710  0.90710  0.55340  Biso   1.000  C
  C13      1.0000 0.81750  0.16590  0.10610  Biso   1.000  C
  C14      1.0000 0.90710  0.30710  0.05340  Biso   1.000  C
  C15      1.0000 0.83410  0.65160  0.10610  Biso   1.000  C
  C16      1.0000 0.69290  0.60000  0.05340  Biso   1.000  C
  C17      1.0000 0.34840  0.18250  0.10610  Biso   1.000  C
  C18      1.0000 0.40000  0.09290  0.05340  Biso   1.000  C
  C19      1.0000 0.81750  0.16590  0.39390  Biso   1.000  C
  C20      1.0000 0.90710  0.30710  0.44660  Biso   1.000  C
  C21      1.0000 0.83410  0.65160  0.39390  Biso   1.000  C
  C22      1.0000 0.69290  0.60000  0.44660  Biso   1.000  C
  C23      1.0000 0.34840  0.18250  0.39390  Biso   1.000  C
  C24      1.0000 0.40000  0.09290  0.44660  Biso   1.000  C
  O1       1.0000 0.78920  0.96140  0.90350  Biso   1.000  O
  O2       1.0000 0.55270  0.82310  0.84280  Biso   1.000  O
  O3       1.0000 0.17220  0.21080  0.90350  Biso   1.000  O
  O4       1.0000 0.27040  0.44730  0.84280  Biso   1.000  O
  O5       1.0000 0.03860  0.82780  0.90350  Biso   1.000  O
  O6       1.0000 0.17690  0.72960  0.84280  Biso   1.000  O
  O7       1.0000 0.78920  0.96140  0.59650  Biso   1.000  O
  O8       1.0000 0.55270  0.82310  0.65720  Biso   1.000  O
  O9       1.0000 0.17220  0.21080  0.59650  Biso   1.000  O
  O10      1.0000 0.27040  0.44730  0.65720  Biso   1.000  O
  O11      1.0000 0.03860  0.82780  0.59650  Biso   1.000  O
  O12      1.0000 0.17690  0.72960  0.65720  Biso   1.000  O
  O13      1.0000 0.82780  0.03860  0.09650  Biso   1.000  O
  O14      1.0000 0.72960  0.17690  0.15720  Biso   1.000  O
  O15      1.0000 0.96140  0.78920  0.09650  Biso   1.000  O
  O16      1.0000 0.82310  0.55270  0.15720  Biso   1.000  O
  O17      1.0000 0.21080  0.17220  0.09650  Biso   1.000  O
  O18      1.0000 0.44730  0.27040  0.15720  Biso   1.000  O
  O19      1.0000 0.82780  0.03860  0.40350  Biso   1.000  O
  O20      1.0000 0.72960  0.17690  0.34280  Biso   1.000  O
  O21      1.0000 0.96140  0.78920  0.40350  Biso   1.000  O
  O22      1.0000 0.82310  0.55270  0.34280  Biso   1.000  O
  O23      1.0000 0.21080  0.17220  0.40350  Biso   1.000  O
  O24      1.0000 0.44730  0.27040  0.34280  Biso   1.000  O
  O25      1.0000 0.72850  0.72850  0.00000  Biso   1.000  O
  O26      1.0000 0.00000  0.27150  0.00000  Biso   1.000  O
  O27      1.0000 0.27150  0.00000  0.00000  Biso   1.000  O
  O28      1.0000 0.72850  0.72850  0.50000  Biso   1.000  O
  O29      1.0000 0.00000  0.27150  0.50000  Biso   1.000  O
  O30      1.0000 0.27150  0.00000  0.50000  Biso   1.000  O
  O31      1.0000 0.43750  0.98770  0.75000  Biso   1.000  O
  O32      1.0000 0.55020  0.56250  0.75000  Biso   1.000  O
  O33      1.0000 0.01230  0.44980  0.75000  Biso   1.000  O
  O34      1.0000 0.44980  0.01230  0.25000  Biso   1.000  O
  O35      1.0000 0.98770  0.43750  0.25000  Biso   1.000  O
  O36      1.0000 0.56250  0.55020  0.25000  Biso   1.000  O
