data_image0
_cell_length_a       3.6519
_cell_length_b       12.1512
_cell_length_c       15.07
_cell_angle_alpha    90
_cell_angle_beta     90.982
_cell_angle_gamma    90

_symmetry_space_group_name_H-M    P 1
_symmetry_int_tables_number       1

loop_
  _symmetry_equiv_pos_as_xyz
  'x, y, z'

loop_
  _atom_site_label
  _atom_site_occupancy
  _atom_site_fract_x
  _atom_site_fract_y
  _atom_site_fract_z
  _atom_site_thermal_displace_type
  _atom_site_B_iso_or_equiv
  _atom_site_type_symbol
  Ag1      1.0000 0.39560  0.42607  0.92452  Biso   1.000  Ag
  Ag2      1.0000 0.60440  0.92607  0.57548  Biso   1.000  Ag
  Ag3      1.0000 0.60440  0.57393  0.07548  Biso   1.000  Ag
  Ag4      1.0000 0.39560  0.07393  0.42452  Biso   1.000  Ag
  H1       1.0000 0.07020  0.59360  0.74450  Biso   1.000  H
  H2       1.0000 0.30500  0.69270  0.62920  Biso   1.000  H
  H3       1.0000 0.41020  0.95440  0.77820  Biso   1.000  H
  H4       1.0000 0.17310  0.86400  0.89840  Biso   1.000  H
  H5       1.0000 0.92980  0.09360  0.75550  Biso   1.000  H
  H6       1.0000 0.69500  0.19270  0.87080  Biso   1.000  H
  H7       1.0000 0.58980  0.45440  0.72180  Biso   1.000  H
  H8       1.0000 0.82690  0.36400  0.60160  Biso   1.000  H
  H9       1.0000 0.92980  0.40640  0.25550  Biso   1.000  H
  H10      1.0000 0.69500  0.30730  0.37080  Biso   1.000  H
  H11      1.0000 0.58980  0.04560  0.22180  Biso   1.000  H
  H12      1.0000 0.82690  0.13600  0.10160  Biso   1.000  H
  H13      1.0000 0.07020  0.90640  0.24450  Biso   1.000  H
  H14      1.0000 0.30500  0.80730  0.12920  Biso   1.000  H
  H15      1.0000 0.41020  0.54560  0.27820  Biso   1.000  H
  H16      1.0000 0.17310  0.63600  0.39840  Biso   1.000  H
  C1       1.0000 0.93100  0.65910  0.91140  Biso   1.000  C
  C2       1.0000 0.09500  0.71760  0.83540  Biso   1.000  C
  C3       1.0000 0.13900  0.66830  0.75320  Biso   1.000  C
  C4       1.0000 0.28000  0.72760  0.68520  Biso   1.000  C
  C5       1.0000 0.34000  0.87950  0.77190  Biso   1.000  C
  C6       1.0000 0.19900  0.82650  0.84360  Biso   1.000  C
  C7       1.0000 0.06900  0.15910  0.58860  Biso   1.000  C
  C8       1.0000 0.90500  0.21760  0.66460  Biso   1.000  C
  C9       1.0000 0.86100  0.16830  0.74680  Biso   1.000  C
  C10      1.0000 0.72000  0.22760  0.81480  Biso   1.000  C
  C11      1.0000 0.66000  0.37950  0.72810  Biso   1.000  C
  C12      1.0000 0.80100  0.32650  0.65640  Biso   1.000  C
  C13      1.0000 0.06900  0.34090  0.08860  Biso   1.000  C
  C14      1.0000 0.90500  0.28240  0.16460  Biso   1.000  C
  C15      1.0000 0.86100  0.33170  0.24680  Biso   1.000  C
  C16      1.0000 0.72000  0.27240  0.31480  Biso   1.000  C
  C17      1.0000 0.66000  0.12050  0.22810  Biso   1.000  C
  C18      1.0000 0.80100  0.17350  0.15640  Biso   1.000  C
  C19      1.0000 0.93100  0.84090  0.41140  Biso   1.000  C
  C20      1.0000 0.09500  0.78240  0.33540  Biso   1.000  C
  C21      1.0000 0.13900  0.83170  0.25320  Biso   1.000  C
  C22      1.0000 0.28000  0.77240  0.18520  Biso   1.000  C
  C23      1.0000 0.34000  0.62050  0.27190  Biso   1.000  C
  C24      1.0000 0.19900  0.67350  0.34360  Biso   1.000  C
  N1       1.0000 0.38300  0.83070  0.69310  Biso   1.000  N
  N2       1.0000 0.61700  0.33070  0.80690  Biso   1.000  N
  N3       1.0000 0.61700  0.16930  0.30690  Biso   1.000  N
  N4       1.0000 0.38300  0.66930  0.19310  Biso   1.000  N
  O1       1.0000 0.88400  0.55380  0.89850  Biso   1.000  O
  O2       1.0000 0.83100  0.71110  0.97740  Biso   1.000  O
  O3       1.0000 0.11600  0.05380  0.60150  Biso   1.000  O
  O4       1.0000 0.16900  0.21110  0.52260  Biso   1.000  O
  O5       1.0000 0.11600  0.44620  0.10150  Biso   1.000  O
  O6       1.0000 0.16900  0.28890  0.02260  Biso   1.000  O
  O7       1.0000 0.88400  0.94620  0.39850  Biso   1.000  O
  O8       1.0000 0.83100  0.78890  0.47740  Biso   1.000  O
