data_image0
_cell_length_a       3.6934
_cell_length_b       12.1783
_cell_length_c       15.239
_cell_angle_alpha    90
_cell_angle_beta     90.1
_cell_angle_gamma    90

_symmetry_space_group_name_H-M    P 1
_symmetry_int_tables_number       1

loop_
  _symmetry_equiv_pos_as_xyz
  'x, y, z'

loop_
  _atom_site_label
  _atom_site_occupancy
  _atom_site_fract_x
  _atom_site_fract_y
  _atom_site_fract_z
  _atom_site_thermal_displace_type
  _atom_site_B_iso_or_equiv
  _atom_site_type_symbol
  Ag1      1.0000 0.60960  0.57542  0.42476  Biso   1.000  Ag
  Ag2      1.0000 0.39040  0.07542  0.07524  Biso   1.000  Ag
  Ag3      1.0000 0.39040  0.42458  0.57524  Biso   1.000  Ag
  Ag4      1.0000 0.60960  0.92458  0.92476  Biso   1.000  Ag
  H1       1.0000 0.42720  0.55060  0.22210  Biso   1.000  H
  H2       1.0000 0.18630  0.63910  0.10350  Biso   1.000  H
  H3       1.0000 0.06240  0.90410  0.25350  Biso   1.000  H
  H4       1.0000 0.29470  0.80640  0.36930  Biso   1.000  H
  H5       1.0000 0.57280  0.05060  0.27790  Biso   1.000  H
  H6       1.0000 0.81370  0.13910  0.39650  Biso   1.000  H
  H7       1.0000 0.93760  0.40410  0.24650  Biso   1.000  H
  H8       1.0000 0.70530  0.30640  0.13070  Biso   1.000  H
  H9       1.0000 0.57280  0.44940  0.77790  Biso   1.000  H
  H10      1.0000 0.81370  0.36090  0.89650  Biso   1.000  H
  H11      1.0000 0.93760  0.09590  0.74650  Biso   1.000  H
  H12      1.0000 0.70530  0.19360  0.63070  Biso   1.000  H
  H13      1.0000 0.42720  0.94940  0.72210  Biso   1.000  H
  H14      1.0000 0.18630  0.86090  0.60350  Biso   1.000  H
  H15      1.0000 0.06240  0.59590  0.75350  Biso   1.000  H
  H16      1.0000 0.29470  0.69360  0.86930  Biso   1.000  H
  C1       1.0000 0.35100  0.62290  0.22880  Biso   1.000  C
  C2       1.0000 0.20710  0.67540  0.15700  Biso   1.000  C
  C3       1.0000 0.09400  0.78250  0.16540  Biso   1.000  C
  C4       1.0000 0.13300  0.83140  0.24560  Biso   1.000  C
  C5       1.0000 0.27600  0.77230  0.31490  Biso   1.000  C
  C6       1.0000 0.92700  0.84270  0.09000  Biso   1.000  C
  C7       1.0000 0.64900  0.12290  0.27120  Biso   1.000  C
  C8       1.0000 0.79290  0.17540  0.34300  Biso   1.000  C
  C9       1.0000 0.90600  0.28250  0.33460  Biso   1.000  C
  C10      1.0000 0.86700  0.33140  0.25440  Biso   1.000  C
  C11      1.0000 0.72400  0.27230  0.18510  Biso   1.000  C
  C12      1.0000 0.07300  0.34270  0.41000  Biso   1.000  C
  C13      1.0000 0.64900  0.37710  0.77120  Biso   1.000  C
  C14      1.0000 0.79290  0.32460  0.84300  Biso   1.000  C
  C15      1.0000 0.90600  0.21750  0.83460  Biso   1.000  C
  C16      1.0000 0.86700  0.16860  0.75440  Biso   1.000  C
  C17      1.0000 0.72400  0.22770  0.68510  Biso   1.000  C
  C18      1.0000 0.07300  0.15730  0.91000  Biso   1.000  C
  C19      1.0000 0.35100  0.87710  0.72880  Biso   1.000  C
  C20      1.0000 0.20710  0.82460  0.65700  Biso   1.000  C
  C21      1.0000 0.09400  0.71750  0.66540  Biso   1.000  C
  C22      1.0000 0.13300  0.66860  0.74560  Biso   1.000  C
  C23      1.0000 0.27600  0.72770  0.81490  Biso   1.000  C
  C24      1.0000 0.92700  0.65730  0.59000  Biso   1.000  C
  N1       1.0000 0.38880  0.66910  0.30730  Biso   1.000  N
  N2       1.0000 0.61120  0.16910  0.19270  Biso   1.000  N
  N3       1.0000 0.61120  0.33090  0.69270  Biso   1.000  N
  N4       1.0000 0.38880  0.83090  0.80730  Biso   1.000  N
  O1       1.0000 0.87920  0.94490  0.10090  Biso   1.000  O
  O2       1.0000 0.84700  0.79040  0.02300  Biso   1.000  O
  O3       1.0000 0.12080  0.44490  0.39910  Biso   1.000  O
  O4       1.0000 0.15300  0.29040  0.47700  Biso   1.000  O
  O5       1.0000 0.12080  0.05510  0.89910  Biso   1.000  O
  O6       1.0000 0.15300  0.20960  0.97700  Biso   1.000  O
  O7       1.0000 0.87920  0.55510  0.60090  Biso   1.000  O
  O8       1.0000 0.84700  0.70960  0.52300  Biso   1.000  O
