data_image0
_cell_length_a       7.768
_cell_length_b       14.344
_cell_length_c       16.125
_cell_angle_alpha    92.98
_cell_angle_beta     95.605
_cell_angle_gamma    99.593

_symmetry_space_group_name_H-M    P 1
_symmetry_int_tables_number       1

loop_
  _symmetry_equiv_pos_as_xyz
  'x, y, z'

loop_
  _atom_site_label
  _atom_site_occupancy
  _atom_site_fract_x
  _atom_site_fract_y
  _atom_site_fract_z
  _atom_site_thermal_displace_type
  _atom_site_B_iso_or_equiv
  _atom_site_type_symbol
  Nd1      1.0000 0.77568  0.75675  0.72405  Biso   1.000  Nd
  Nd2      1.0000 0.72824  0.30122  0.21240  Biso   1.000  Nd
  Nd3      1.0000 0.22432  0.24325  0.27595  Biso   1.000  Nd
  Nd4      1.0000 0.27176  0.69878  0.78760  Biso   1.000  Nd
  H1       1.0000 0.28000  0.05300  0.08510  Biso   1.000  H
  H2       1.0000 0.20190  0.14040  0.05450  Biso   1.000  H
  H3       1.0000 0.29550  0.52660  0.58050  Biso   1.000  H
  H4       1.0000 0.23510  0.62490  0.57590  Biso   1.000  H
  H5       1.0000 0.83230  0.64710  0.01190  Biso   1.000  H
  H6       1.0000 0.74750  0.55170  0.96150  Biso   1.000  H
  H7       1.0000 0.09920  0.58790  0.03440  Biso   1.000  H
  H8       1.0000 0.94590  0.53040  0.07690  Biso   1.000  H
  H9       1.0000 0.32850  0.96870  0.60280  Biso   1.000  H
  H10      1.0000 0.29190  0.88490  0.53400  Biso   1.000  H
  H11      1.0000 0.61500  0.00400  0.57270  Biso   1.000  H
  H12      1.0000 0.57930  0.91970  0.50420  Biso   1.000  H
  H13      1.0000 0.16990  0.57240  0.30810  Biso   1.000  H
  H14      1.0000 0.27830  0.48980  0.31830  Biso   1.000  H
  H15      1.0000 0.31840  0.95480  0.83390  Biso   1.000  H
  H16      1.0000 0.20980  0.03310  0.80600  Biso   1.000  H
  H17      1.0000 0.07340  0.55150  0.43900  Biso   1.000  H
  H18      1.0000 0.16340  0.46230  0.44860  Biso   1.000  H
  H19      1.0000 0.43910  0.56000  0.45820  Biso   1.000  H
  H20      1.0000 0.34630  0.64890  0.45140  Biso   1.000  H
  H21      1.0000 0.07770  0.02260  0.93080  Biso   1.000  H
  H22      1.0000 0.19380  0.94810  0.95880  Biso   1.000  H
  H23      1.0000 0.33390  0.13780  0.93560  Biso   1.000  H
  H24      1.0000 0.44540  0.06300  0.96800  Biso   1.000  H
  H25      1.0000 0.72000  0.94700  0.91490  Biso   1.000  H
  H26      1.0000 0.79810  0.85960  0.94550  Biso   1.000  H
  H27      1.0000 0.70450  0.47340  0.41950  Biso   1.000  H
  H28      1.0000 0.76490  0.37510  0.42410  Biso   1.000  H
  H29      1.0000 0.16770  0.35290  0.98810  Biso   1.000  H
  H30      1.0000 0.25250  0.44830  0.03850  Biso   1.000  H
  H31      1.0000 0.90080  0.41210  0.96560  Biso   1.000  H
  H32      1.0000 0.05410  0.46960  0.92310  Biso   1.000  H
  H33      1.0000 0.67150  0.03130  0.39720  Biso   1.000  H
  H34      1.0000 0.70810  0.11510  0.46600  Biso   1.000  H
  H35      1.0000 0.38500  0.99600  0.42730  Biso   1.000  H
  H36      1.0000 0.42070  0.08030  0.49580  Biso   1.000  H
  H37      1.0000 0.83010  0.42760  0.69190  Biso   1.000  H
  H38      1.0000 0.72170  0.51020  0.68170  Biso   1.000  H
  H39      1.0000 0.68160  0.04520  0.16610  Biso   1.000  H
  H40      1.0000 0.79020  0.96690  0.19400  Biso   1.000  H
  H41      1.0000 0.92660  0.44850  0.56100  Biso   1.000  H
  H42      1.0000 0.83660  0.53770  0.55140  Biso   1.000  H
  H43      1.0000 0.56090  0.44000  0.54180  Biso   1.000  H
  H44      1.0000 0.65370  0.35110  0.54860  Biso   1.000  H
  H45      1.0000 0.92230  0.97740  0.06920  Biso   1.000  H
  H46      1.0000 0.80620  0.05190  0.04120  Biso   1.000  H
  H47      1.0000 0.66610  0.86220  0.06440  Biso   1.000  H
  H48      1.0000 0.55460  0.93700  0.03200  Biso   1.000  H
  C1       1.0000 0.45290  0.17540  0.10620  Biso   1.000  C
  C2       1.0000 0.49200  0.63620  0.61840  Biso   1.000  C
  C3       1.0000 0.91270  0.63640  0.89680  Biso   1.000  C
  C4       1.0000 0.42870  0.85360  0.63980  Biso   1.000  C
  C5       1.0000 0.30520  0.11050  0.05600  Biso   1.000  C
  C6       1.0000 0.32850  0.59070  0.56400  Biso   1.000  C
  C7       1.0000 0.85660  0.59610  0.97540  Biso   1.000  C
  C8       1.0000 0.98700  0.54560  0.02350  Biso   1.000  C
  C9       1.0000 0.38100  0.92020  0.57550  Biso   1.000  C
  C10      1.0000 0.52610  0.96780  0.53160  Biso   1.000  C
  C11      1.0000 0.05800  0.90250  0.80400  Biso   1.000  C
  C12      1.0000 0.17250  0.51200  0.33210  Biso   1.000  C
  C13      1.0000 0.01480  0.44210  0.29620  Biso   1.000  C
  C14      1.0000 0.20870  0.97770  0.83810  Biso   1.000  C
  C15      1.0000 0.17500  0.52440  0.42650  Biso   1.000  C
  C16      1.0000 0.33600  0.58560  0.47090  Biso   1.000  C
  C17      1.0000 0.19130  0.00380  0.92740  Biso   1.000  C
  C18      1.0000 0.33200  0.08290  0.96830  Biso   1.000  C
  C19      1.0000 0.54710  0.82460  0.89380  Biso   1.000  C
  C20      1.0000 0.50800  0.36380  0.38160  Biso   1.000  C
  C21      1.0000 0.08730  0.36360  0.10320  Biso   1.000  C
  C22      1.0000 0.57130  0.14640  0.36020  Biso   1.000  C
  C23      1.0000 0.69480  0.88950  0.94400  Biso   1.000  C
  C24      1.0000 0.67150  0.40930  0.43600  Biso   1.000  C
  C25      1.0000 0.14340  0.40390  0.02460  Biso   1.000  C
  C26      1.0000 0.01300  0.45440  0.97650  Biso   1.000  C
  C27      1.0000 0.61900  0.07980  0.42450  Biso   1.000  C
  C28      1.0000 0.47390  0.03220  0.46840  Biso   1.000  C
  C29      1.0000 0.94200  0.09750  0.19600  Biso   1.000  C
  C30      1.0000 0.82750  0.48800  0.66790  Biso   1.000  C
  C31      1.0000 0.98520  0.55790  0.70380  Biso   1.000  C
  C32      1.0000 0.79130  0.02230  0.16190  Biso   1.000  C
  C33      1.0000 0.82500  0.47560  0.57350  Biso   1.000  C
  C34      1.0000 0.66400  0.41440  0.52910  Biso   1.000  C
  C35      1.0000 0.80870  0.99620  0.07260  Biso   1.000  C
  C36      1.0000 0.66800  0.91710  0.03170  Biso   1.000  C
  O1       1.0000 0.59810  0.19620  0.08100  Biso   1.000  O
  O2       1.0000 0.55340  0.40000  0.13070  Biso   1.000  O
  O3       1.0000 0.62890  0.66410  0.58790  Biso   1.000  O
  O4       1.0000 0.07110  0.64980  0.88610  Biso   1.000  O
  O5       1.0000 0.58640  0.85120  0.65680  Biso   1.000  O
  O6       1.0000 0.96250  0.82770  0.62180  Biso   1.000  O
  O7       1.0000 0.79150  0.65840  0.84490  Biso   1.000  O
  O8       1.0000 0.91000  0.92150  0.78510  Biso   1.000  O
  O9       1.0000 0.30290  0.80570  0.67110  Biso   1.000  O
  O10      1.0000 0.08160  0.81710  0.79710  Biso   1.000  O
  O11      1.0000 0.42510  0.20690  0.17770  Biso   1.000  O
  O12      1.0000 0.48200  0.64550  0.69640  Biso   1.000  O
  O13      1.0000 0.01900  0.35370  0.30300  Biso   1.000  O
  O14      1.0000 0.87920  0.46760  0.26510  Biso   1.000  O
  O15      1.0000 0.40190  0.80380  0.91900  Biso   1.000  O
  O16      1.0000 0.44660  0.60000  0.86930  Biso   1.000  O
  O17      1.0000 0.37110  0.33590  0.41210  Biso   1.000  O
  O18      1.0000 0.92890  0.35020  0.11390  Biso   1.000  O
  O19      1.0000 0.41360  0.14880  0.34320  Biso   1.000  O
  O20      1.0000 0.03750  0.17230  0.37820  Biso   1.000  O
  O21      1.0000 0.20850  0.34160  0.15510  Biso   1.000  O
  O22      1.0000 0.09000  0.07850  0.21490  Biso   1.000  O
  O23      1.0000 0.69710  0.19430  0.32890  Biso   1.000  O
  O24      1.0000 0.91840  0.18290  0.20290  Biso   1.000  O
  O25      1.0000 0.57490  0.79310  0.82230  Biso   1.000  O
  O26      1.0000 0.51800  0.35450  0.30360  Biso   1.000  O
  O27      1.0000 0.98100  0.64630  0.69700  Biso   1.000  O
  O28      1.0000 0.12080  0.53240  0.73490  Biso   1.000  O
