data_image0
_cell_length_a       10.8608
_cell_length_b       14.8322
_cell_length_c       14.8322
_cell_angle_alpha    65.7552
_cell_angle_beta     75.8724
_cell_angle_gamma    104.128

_symmetry_space_group_name_H-M    P 1
_symmetry_int_tables_number       1

loop_
  _symmetry_equiv_pos_as_xyz
  'x, y, z'

loop_
  _atom_site_label
  _atom_site_occupancy
  _atom_site_fract_x
  _atom_site_fract_y
  _atom_site_fract_z
  _atom_site_thermal_displace_type
  _atom_site_B_iso_or_equiv
  _atom_site_type_symbol
  Cu1      1.0000 0.03061  0.59340  0.52113  Biso   1.000  Cu
  Cu2      1.0000 0.55174  0.52113  0.88547  Biso   1.000  Cu
  Cu3      1.0000 0.43721  0.88547  0.59340  Biso   1.000  Cu
  Cu4      1.0000 0.55174  0.11453  0.47887  Biso   1.000  Cu
  Cu5      1.0000 0.43721  0.40660  0.11453  Biso   1.000  Cu
  Cu6      1.0000 0.03061  0.47887  0.40660  Biso   1.000  Cu
  Cu7      1.0000 0.32991  0.59450  0.40550  Biso   1.000  Cu
  Cu8      1.0000 0.73541  0.40550  0.00000  Biso   1.000  Cu
  Cu9      1.0000 0.73541  0.00000  0.59450  Biso   1.000  Cu
  H1       1.0000 0.57490  0.71520  0.42810  Biso   1.000  H
  H2       1.0000 0.58720  0.74080  0.52120  Biso   1.000  H
  H3       1.0000 0.61130  0.83520  0.40680  Biso   1.000  H
  H4       1.0000 0.01940  0.73570  0.61900  Biso   1.000  H
  H5       1.0000 0.13170  0.85280  0.57350  Biso   1.000  H
  H6       1.0000 0.10250  0.75700  0.68860  Biso   1.000  H
  H7       1.0000 0.00300  0.42810  0.85670  Biso   1.000  H
  H8       1.0000 0.10840  0.52120  0.73800  Biso   1.000  H
  H9       1.0000 0.01810  0.40680  0.75800  Biso   1.000  H
  H10      1.0000 0.63840  0.61900  0.64530  Biso   1.000  H
  H11      1.0000 0.70520  0.57350  0.57370  Biso   1.000  H
  H12      1.0000 0.79110  0.68860  0.55440  Biso   1.000  H
  H13      1.0000 0.85970  0.85670  0.71520  Biso   1.000  H
  H14      1.0000 0.84640  0.73800  0.74080  Biso   1.000  H
  H15      1.0000 0.77610  0.75800  0.83520  Biso   1.000  H
  H16      1.0000 0.28370  0.64530  0.73570  Biso   1.000  H
  H17      1.0000 0.27890  0.57370  0.85280  Biso   1.000  H
  H18      1.0000 0.34550  0.55440  0.75700  Biso   1.000  H
  H19      1.0000 0.00300  0.14330  0.57190  Biso   1.000  H
  H20      1.0000 0.10840  0.26200  0.47880  Biso   1.000  H
  H21      1.0000 0.01810  0.24200  0.59320  Biso   1.000  H
  H22      1.0000 0.63840  0.35470  0.38100  Biso   1.000  H
  H23      1.0000 0.70520  0.42630  0.42650  Biso   1.000  H
  H24      1.0000 0.79110  0.44560  0.31140  Biso   1.000  H
  H25      1.0000 0.85970  0.28480  0.14330  Biso   1.000  H
  H26      1.0000 0.84640  0.25920  0.26200  Biso   1.000  H
  H27      1.0000 0.77610  0.16480  0.24200  Biso   1.000  H
  H28      1.0000 0.28370  0.26430  0.35470  Biso   1.000  H
  H29      1.0000 0.27890  0.14720  0.42630  Biso   1.000  H
  H30      1.0000 0.34550  0.24300  0.44560  Biso   1.000  H
  H31      1.0000 0.57490  0.57190  0.28480  Biso   1.000  H
  H32      1.0000 0.58720  0.47880  0.25920  Biso   1.000  H
  H33      1.0000 0.61130  0.59320  0.16480  Biso   1.000  H
  H34      1.0000 0.01940  0.38100  0.26430  Biso   1.000  H
  H35      1.0000 0.13170  0.42650  0.14720  Biso   1.000  H
  H36      1.0000 0.10250  0.31140  0.24300  Biso   1.000  H
  H37      1.0000 0.19040  0.66860  0.33140  Biso   1.000  H
  H38      1.0000 0.47200  0.42560  0.57440  Biso   1.000  H
  H39      1.0000 0.52180  0.33140  0.00000  Biso   1.000  H
  H40      1.0000 0.04640  0.57440  0.00000  Biso   1.000  H
  H41      1.0000 0.52180  0.00000  0.66860  Biso   1.000  H
  H42      1.0000 0.04640  0.00000  0.42560  Biso   1.000  H
  C1       1.0000 0.41250  0.73890  0.49800  Biso   1.000  C
  C2       1.0000 0.55840  0.75920  0.46040  Biso   1.000  C
  C3       1.0000 0.21890  0.74680  0.56350  Biso   1.000  C
  C4       1.0000 0.10830  0.77550  0.61590  Biso   1.000  C
  C5       1.0000 0.91050  0.49800  0.76310  Biso   1.000  C
  C6       1.0000 0.01880  0.46040  0.78040  Biso   1.000  C
  C7       1.0000 0.78240  0.56350  0.68970  Biso   1.000  C
  C8       1.0000 0.72420  0.61590  0.60860  Biso   1.000  C
  C9       1.0000 0.67360  0.76310  0.73890  Biso   1.000  C
  C10      1.0000 0.79920  0.78040  0.75920  Biso   1.000  C
  C11      1.0000 0.47210  0.68970  0.74680  Biso   1.000  C
  C12      1.0000 0.33280  0.60860  0.77550  Biso   1.000  C
  C13      1.0000 0.91050  0.23690  0.50200  Biso   1.000  C
  C14      1.0000 0.01880  0.21960  0.53960  Biso   1.000  C
  C15      1.0000 0.78240  0.31030  0.43650  Biso   1.000  C
  C16      1.0000 0.72420  0.39140  0.38410  Biso   1.000  C
  C17      1.0000 0.67360  0.26110  0.23690  Biso   1.000  C
  C18      1.0000 0.79920  0.24080  0.21960  Biso   1.000  C
  C19      1.0000 0.47210  0.25320  0.31030  Biso   1.000  C
  C20      1.0000 0.33280  0.22450  0.39140  Biso   1.000  C
  C21      1.0000 0.41250  0.50200  0.26110  Biso   1.000  C
  C22      1.0000 0.55840  0.53960  0.24080  Biso   1.000  C
  C23      1.0000 0.21890  0.43650  0.25320  Biso   1.000  C
  C24      1.0000 0.10830  0.38410  0.22450  Biso   1.000  C
  C25      1.0000 0.40840  0.45110  0.54890  Biso   1.000  C
  C26      1.0000 0.95730  0.54890  0.00000  Biso   1.000  C
  C27      1.0000 0.95730  0.00000  0.45110  Biso   1.000  C
  N1       1.0000 0.31900  0.67390  0.48610  Biso   1.000  N
  N2       1.0000 0.19150  0.67770  0.52950  Biso   1.000  N
  N3       1.0000 0.35240  0.78680  0.54740  Biso   1.000  N
  N4       1.0000 0.80510  0.48610  0.84000  Biso   1.000  N
  N5       1.0000 0.72100  0.52950  0.79280  Biso   1.000  N
  N6       1.0000 0.89980  0.54740  0.66580  Biso   1.000  N
  N7       1.0000 0.64510  0.84000  0.67390  Biso   1.000  N
  N8       1.0000 0.51380  0.79280  0.67770  Biso   1.000  N
  N9       1.0000 0.56560  0.66580  0.78680  Biso   1.000  N
  N10      1.0000 0.80510  0.16000  0.51390  Biso   1.000  N
  N11      1.0000 0.72100  0.20720  0.47050  Biso   1.000  N
  N12      1.0000 0.89980  0.33420  0.45260  Biso   1.000  N
  N13      1.0000 0.64510  0.32610  0.16000  Biso   1.000  N
  N14      1.0000 0.51380  0.32230  0.20720  Biso   1.000  N
  N15      1.0000 0.56560  0.21320  0.33420  Biso   1.000  N
  N16      1.0000 0.31900  0.51390  0.32610  Biso   1.000  N
  N17      1.0000 0.19150  0.47050  0.32230  Biso   1.000  N
  N18      1.0000 0.35240  0.45260  0.21320  Biso   1.000  N
  O1       1.0000 0.16200  0.61250  0.38750  Biso   1.000  O
  O2       1.0000 0.89750  0.51440  0.48560  Biso   1.000  O
  O3       1.0000 0.45690  0.53840  0.46160  Biso   1.000  O
  O4       1.0000 0.27980  0.39320  0.60680  Biso   1.000  O
  O5       1.0000 0.54950  0.38750  0.00000  Biso   1.000  O
  O6       1.0000 0.38310  0.48560  0.00000  Biso   1.000  O
  O7       1.0000 0.91850  0.46160  0.00000  Biso   1.000  O
  O8       1.0000 0.88660  0.60680  1.00000  Biso   1.000  O
  O9       1.0000 0.54950  0.00000  0.61250  Biso   1.000  O
  O10      1.0000 0.38310  0.00000  0.51440  Biso   1.000  O
  O11      1.0000 0.91850  0.00000  0.53840  Biso   1.000  O
  O12      1.0000 0.88660  0.00000  0.39320  Biso   1.000  O
