data_image0
_cell_length_a       9.6901
_cell_length_b       9.6901
_cell_length_c       6.6193
_cell_angle_alpha    90
_cell_angle_beta     90
_cell_angle_gamma    90

_symmetry_space_group_name_H-M    "P 1"
_symmetry_int_tables_number       1

loop_
  _symmetry_equiv_pos_as_xyz
  'x, y, z'

loop_
  _atom_site_label
  _atom_site_occupancy
  _atom_site_fract_x
  _atom_site_fract_y
  _atom_site_fract_z
  _atom_site_thermal_displace_type
  _atom_site_B_iso_or_equiv
  _atom_site_type_symbol
  C1       1.0000 0.09300  0.49160  0.35220  Biso   1.000  C
  H1       1.0000 0.15640  0.48850  0.24690  Biso   1.000  H
  C2       1.0000 0.40700  0.00840  0.35220  Biso   1.000  C
  H2       1.0000 0.34360  0.01150  0.24690  Biso   1.000  H
  C3       1.0000 0.00840  0.09300  0.35220  Biso   1.000  C
  H3       1.0000 0.01150  0.15640  0.24690  Biso   1.000  H
  C4       1.0000 0.49160  0.40700  0.35220  Biso   1.000  C
  H4       1.0000 0.48850  0.34360  0.24690  Biso   1.000  H
  C5       1.0000 0.40700  0.49160  0.64780  Biso   1.000  C
  H5       1.0000 0.34360  0.48850  0.75310  Biso   1.000  H
  C6       1.0000 0.09300  0.00840  0.64780  Biso   1.000  C
  H6       1.0000 0.15640  0.01150  0.75310  Biso   1.000  H
  C7       1.0000 0.49160  0.09300  0.64780  Biso   1.000  C
  H7       1.0000 0.48850  0.15640  0.75310  Biso   1.000  H
  C8       1.0000 0.00840  0.40700  0.64780  Biso   1.000  C
  H8       1.0000 0.01150  0.34360  0.75310  Biso   1.000  H
  C9       1.0000 0.90700  0.50840  0.64780  Biso   1.000  C
  H9       1.0000 0.84360  0.51150  0.75310  Biso   1.000  H
  C10      1.0000 0.59300  0.99160  0.64780  Biso   1.000  C
  H10      1.0000 0.65640  0.98850  0.75310  Biso   1.000  H
  C11      1.0000 0.99160  0.90700  0.64780  Biso   1.000  C
  H11      1.0000 0.98850  0.84360  0.75310  Biso   1.000  H
  C12      1.0000 0.50840  0.59300  0.64780  Biso   1.000  C
  H12      1.0000 0.51150  0.65640  0.75310  Biso   1.000  H
  C13      1.0000 0.59300  0.50840  0.35220  Biso   1.000  C
  H13      1.0000 0.65640  0.51150  0.24690  Biso   1.000  H
  C14      1.0000 0.90700  0.99160  0.35220  Biso   1.000  C
  H14      1.0000 0.84360  0.98850  0.24690  Biso   1.000  H
  C15      1.0000 0.50840  0.90700  0.35220  Biso   1.000  C
  H15      1.0000 0.51150  0.84360  0.24690  Biso   1.000  H
  C16      1.0000 0.99160  0.59300  0.35220  Biso   1.000  C
  H16      1.0000 0.98850  0.65640  0.24690  Biso   1.000  H
  Cu1      1.0000 0.25000  0.25000  0.50000  Biso   1.000  Cu
  Cu2      1.0000 0.75000  0.75000  0.50000  Biso   1.000  Cu
  N1       1.0000 0.10120  0.39880  0.50000  Biso   1.000  N
  N2       1.0000 0.39880  0.10120  0.50000  Biso   1.000  N
  N3       1.0000 0.10120  0.10120  0.50000  Biso   1.000  N
  N4       1.0000 0.39880  0.39880  0.50000  Biso   1.000  N
  N5       1.0000 0.89880  0.60120  0.50000  Biso   1.000  N
  N6       1.0000 0.60120  0.89880  0.50000  Biso   1.000  N
  N7       1.0000 0.89880  0.89880  0.50000  Biso   1.000  N
  N8       1.0000 0.60120  0.60120  0.50000  Biso   1.000  N
  F1       1.0000 0.25000  0.25000  0.16650  Biso   1.000  F
  F2       1.0000 0.25000  0.25000  0.83350  Biso   1.000  F
  F3       1.0000 0.75000  0.75000  0.83350  Biso   1.000  F
  F4       1.0000 0.75000  0.75000  0.16650  Biso   1.000  F
  H17      1.0000 0.25000  0.25000  0.00000  Biso   1.000  H
  H18      1.0000 0.75000  0.75000  0.00000  Biso   1.000  H
