data_image0
_cell_length_a       9.6872
_cell_length_b       9.6872
_cell_length_c       6.5998
_cell_angle_alpha    90
_cell_angle_beta     90
_cell_angle_gamma    90

_symmetry_space_group_name_H-M    "P 1"
_symmetry_int_tables_number       1

loop_
  _symmetry_equiv_pos_as_xyz
  'x, y, z'

loop_
  _atom_site_label
  _atom_site_occupancy
  _atom_site_fract_x
  _atom_site_fract_y
  _atom_site_fract_z
  _atom_site_thermal_displace_type
  _atom_site_B_iso_or_equiv
  _atom_site_type_symbol
  C1       1.0000 0.09400  0.49250  0.35230  Biso   1.000  C
  H1       1.0000 0.15940  0.48980  0.24520  Biso   1.000  H
  C2       1.0000 0.40600  0.00750  0.35230  Biso   1.000  C
  H2       1.0000 0.34060  0.01020  0.24520  Biso   1.000  H
  C3       1.0000 0.00750  0.09400  0.35230  Biso   1.000  C
  H3       1.0000 0.01020  0.15940  0.24520  Biso   1.000  H
  C4       1.0000 0.49250  0.40600  0.35230  Biso   1.000  C
  H4       1.0000 0.48980  0.34060  0.24520  Biso   1.000  H
  C5       1.0000 0.40600  0.49250  0.64770  Biso   1.000  C
  H5       1.0000 0.34060  0.48980  0.75480  Biso   1.000  H
  C6       1.0000 0.09400  0.00750  0.64770  Biso   1.000  C
  H6       1.0000 0.15940  0.01020  0.75480  Biso   1.000  H
  C7       1.0000 0.49250  0.09400  0.64770  Biso   1.000  C
  H7       1.0000 0.48980  0.15940  0.75480  Biso   1.000  H
  C8       1.0000 0.00750  0.40600  0.64770  Biso   1.000  C
  H8       1.0000 0.01020  0.34060  0.75480  Biso   1.000  H
  C9       1.0000 0.90600  0.50750  0.64770  Biso   1.000  C
  H9       1.0000 0.84060  0.51020  0.75480  Biso   1.000  H
  C10      1.0000 0.59400  0.99250  0.64770  Biso   1.000  C
  H10      1.0000 0.65940  0.98980  0.75480  Biso   1.000  H
  C11      1.0000 0.99250  0.90600  0.64770  Biso   1.000  C
  H11      1.0000 0.98980  0.84060  0.75480  Biso   1.000  H
  C12      1.0000 0.50750  0.59400  0.64770  Biso   1.000  C
  H12      1.0000 0.51020  0.65940  0.75480  Biso   1.000  H
  C13      1.0000 0.59400  0.50750  0.35230  Biso   1.000  C
  H13      1.0000 0.65940  0.51020  0.24520  Biso   1.000  H
  C14      1.0000 0.90600  0.99250  0.35230  Biso   1.000  C
  H14      1.0000 0.84060  0.98980  0.24520  Biso   1.000  H
  C15      1.0000 0.50750  0.90600  0.35230  Biso   1.000  C
  H15      1.0000 0.51020  0.84060  0.24520  Biso   1.000  H
  C16      1.0000 0.99250  0.59400  0.35230  Biso   1.000  C
  H16      1.0000 0.98980  0.65940  0.24520  Biso   1.000  H
  Cu1      1.0000 0.25000  0.25000  0.50000  Biso   1.000  Cu
  Cu2      1.0000 0.75000  0.75000  0.50000  Biso   1.000  Cu
  N1       1.0000 0.10100  0.39900  0.50000  Biso   1.000  N
  N2       1.0000 0.39900  0.10100  0.50000  Biso   1.000  N
  N3       1.0000 0.10100  0.10100  0.50000  Biso   1.000  N
  N4       1.0000 0.39900  0.39900  0.50000  Biso   1.000  N
  N5       1.0000 0.89900  0.60100  0.50000  Biso   1.000  N
  N6       1.0000 0.60100  0.89900  0.50000  Biso   1.000  N
  N7       1.0000 0.89900  0.89900  0.50000  Biso   1.000  N
  N8       1.0000 0.60100  0.60100  0.50000  Biso   1.000  N
  F1       1.0000 0.25000  0.25000  0.16730  Biso   1.000  F
  F2       1.0000 0.25000  0.25000  0.83270  Biso   1.000  F
  F3       1.0000 0.75000  0.75000  0.83270  Biso   1.000  F
  F4       1.0000 0.75000  0.75000  0.16730  Biso   1.000  F
  H17      1.0000 0.25000  0.25000  0.00000  Biso   1.000  H
  H18      1.0000 0.75000  0.75000  0.00000  Biso   1.000  H
