data_image0
_cell_length_a       6.2081
_cell_length_b       12.681
_cell_length_c       10.414
_cell_angle_alpha    90
_cell_angle_beta     91.21
_cell_angle_gamma    90

_symmetry_space_group_name_H-M    "P 1"
_symmetry_int_tables_number       1

loop_
  _symmetry_equiv_pos_as_xyz
  'x, y, z'

loop_
  _atom_site_label
  _atom_site_occupancy
  _atom_site_fract_x
  _atom_site_fract_y
  _atom_site_fract_z
  _atom_site_thermal_displace_type
  _atom_site_B_iso_or_equiv
  _atom_site_type_symbol
  Co1      1.0000 0.16580  0.74660  0.27566  Biso   1.000  Co
  O1       1.0000 0.90370  0.15320  0.84210  Biso   1.000  O
  N1       1.0000 0.01800  0.85460  0.15110  Biso   1.000  N
  O2       1.0000 0.59060  0.14280  0.93670  Biso   1.000  O
  O3       1.0000 0.43640  0.36490  0.82190  Biso   1.000  O
  C1       1.0000 0.86510  0.02370  0.00660  Biso   1.000  C
  N2       1.0000 0.31460  0.65740  0.13700  Biso   1.000  N
  O4       1.0000 0.75370  0.38470  0.91330  Biso   1.000  O
  C2       1.0000 0.60300  0.54410  0.07790  Biso   1.000  C
  H1       1.0000 0.74320  0.52120  0.09380  Biso   1.000  H
  C3       1.0000 0.06470  0.98160  0.98440  Biso   1.000  C
  H2       1.0000 0.14960  0.00900  0.91990  Biso   1.000  H
  C4       1.0000 0.27420  0.54130  0.95630  Biso   1.000  C
  H3       1.0000 0.18760  0.51450  0.89000  Biso   1.000  H
  C5       1.0000 0.56420  0.41110  0.90080  Biso   1.000  C
  C6       1.0000 0.51150  0.62130  0.15380  Biso   1.000  C
  H4       1.0000 0.59480  0.64910  0.22090  Biso   1.000  H
  C7       1.0000 0.47840  0.50140  0.97600  Biso   1.000  C
  C8       1.0000 0.13960  0.89710  0.05960  Biso   1.000  C
  H5       1.0000 0.27630  0.86990  0.04590  Biso   1.000  H
  C9       1.0000 0.82350  0.89690  0.17470  Biso   1.000  C
  H6       1.0000 0.74130  0.86850  0.23980  Biso   1.000  H
  C10      1.0000 0.19570  0.62080  0.03360  Biso   1.000  C
  H7       1.0000 0.06080  0.64970  0.01530  Biso   1.000  H
  C11      1.0000 0.74250  0.98180  0.10430  Biso   1.000  C
  H8       1.0000 0.60820  0.01010  0.12230  Biso   1.000  H
  C12      1.0000 0.77800  0.11510  0.92660  Biso   1.000  C
  Co2      1.0000 0.66580  0.25340  0.77566  Biso   1.000  Co
  O5       1.0000 0.40370  0.84680  0.34210  Biso   1.000  O
  N3       1.0000 0.51800  0.14540  0.65110  Biso   1.000  N
  O6       1.0000 0.09060  0.85720  0.43670  Biso   1.000  O
  O7       1.0000 0.93640  0.63510  0.32190  Biso   1.000  O
  C13      1.0000 0.36510  0.97630  0.50660  Biso   1.000  C
  N4       1.0000 0.81460  0.34260  0.63700  Biso   1.000  N
  O8       1.0000 0.25370  0.61530  0.41330  Biso   1.000  O
  C14      1.0000 0.10300  0.45590  0.57790  Biso   1.000  C
  H9       1.0000 0.24320  0.47880  0.59380  Biso   1.000  H
  C15      1.0000 0.56470  0.01840  0.48440  Biso   1.000  C
  H10      1.0000 0.64960  0.99100  0.41990  Biso   1.000  H
  C16      1.0000 0.77420  0.45870  0.45630  Biso   1.000  C
  H11      1.0000 0.68760  0.48550  0.39000  Biso   1.000  H
  C17      1.0000 0.06420  0.58890  0.40080  Biso   1.000  C
  C18      1.0000 0.01150  0.37870  0.65380  Biso   1.000  C
  H12      1.0000 0.09480  0.35090  0.72090  Biso   1.000  H
  C19      1.0000 0.97840  0.49860  0.47600  Biso   1.000  C
  C20      1.0000 0.63960  0.10290  0.55960  Biso   1.000  C
  H13      1.0000 0.77630  0.13010  0.54590  Biso   1.000  H
  C21      1.0000 0.32350  0.10310  0.67470  Biso   1.000  C
  H14      1.0000 0.24130  0.13150  0.73980  Biso   1.000  H
  C22      1.0000 0.69570  0.37920  0.53360  Biso   1.000  C
  H15      1.0000 0.56080  0.35030  0.51530  Biso   1.000  H
  C23      1.0000 0.24250  0.01820  0.60430  Biso   1.000  C
  H16      1.0000 0.10820  0.98990  0.62230  Biso   1.000  H
  C24      1.0000 0.27800  0.88490  0.42660  Biso   1.000  C
