data_image0
_cell_length_a       6.307
_cell_length_b       10.4919
_cell_length_c       12.611
_cell_angle_alpha    90
_cell_angle_beta     90
_cell_angle_gamma    91.227

_symmetry_space_group_name_H-M    P 1
_symmetry_int_tables_number       1

loop_
  _symmetry_equiv_pos_as_xyz
  'x, y, z'

loop_
  _atom_site_label
  _atom_site_occupancy
  _atom_site_fract_x
  _atom_site_fract_y
  _atom_site_fract_z
  _atom_site_thermal_displace_type
  _atom_site_B_iso_or_equiv
  _atom_site_type_symbol
  Co1      1.0000 0.37200  0.25995  0.24626  Biso   1.000  Co
  Co2      1.0000 0.87200  0.75995  0.75374  Biso   1.000  Co
  H1       1.0000 0.76450  0.98680  0.62980  Biso   1.000  H
  H2       1.0000 0.88660  0.11360  0.49130  Biso   1.000  H
  H3       1.0000 0.42480  0.91660  0.49240  Biso   1.000  H
  H4       1.0000 0.29110  0.80020  0.63350  Biso   1.000  H
  H5       1.0000 0.94680  0.31950  0.15060  Biso   1.000  H
  H6       1.0000 0.80340  0.44090  0.02180  Biso   1.000  H
  H7       1.0000 0.35330  0.64160  0.01330  Biso   1.000  H
  H8       1.0000 0.47780  0.51510  0.14360  Biso   1.000  H
  H9       1.0000 0.26450  0.48680  0.37020  Biso   1.000  H
  H10      1.0000 0.38660  0.61360  0.50870  Biso   1.000  H
  H11      1.0000 0.92480  0.41660  0.50760  Biso   1.000  H
  H12      1.0000 0.79110  0.30020  0.36650  Biso   1.000  H
  H13      1.0000 0.44680  0.81950  0.84940  Biso   1.000  H
  H14      1.0000 0.30340  0.94090  0.97820  Biso   1.000  H
  H15      1.0000 0.85330  0.14160  0.98670  Biso   1.000  H
  H16      1.0000 0.97780  0.01510  0.85640  Biso   1.000  H
  C1       1.0000 0.20730  0.86220  0.60390  Biso   1.000  C
  C2       1.0000 0.97670  0.63470  0.91200  Biso   1.000  C
  C3       1.0000 0.89890  0.97350  0.60210  Biso   1.000  C
  C4       1.0000 0.97110  0.04990  0.51860  Biso   1.000  C
  C5       1.0000 0.17240  0.02920  0.47670  Biso   1.000  C
  C6       1.0000 0.29110  0.93360  0.51930  Biso   1.000  C
  C7       1.0000 0.25760  0.10950  0.38520  Biso   1.000  C
  C8       1.0000 0.03070  0.38420  0.12090  Biso   1.000  C
  C9       1.0000 0.94130  0.45740  0.04480  Biso   1.000  C
  C10      1.0000 0.06370  0.55920  0.00160  Biso   1.000  C
  C11      1.0000 0.26700  0.57620  0.04010  Biso   1.000  C
  C12      1.0000 0.34250  0.49850  0.11690  Biso   1.000  C
  C13      1.0000 0.70730  0.36220  0.39610  Biso   1.000  C
  C14      1.0000 0.47670  0.13470  0.08800  Biso   1.000  C
  C15      1.0000 0.39890  0.47350  0.39790  Biso   1.000  C
  C16      1.0000 0.47110  0.54990  0.48140  Biso   1.000  C
  C17      1.0000 0.67240  0.52920  0.52330  Biso   1.000  C
  C18      1.0000 0.79110  0.43360  0.48070  Biso   1.000  C
  C19      1.0000 0.75760  0.60950  0.61480  Biso   1.000  C
  C20      1.0000 0.53070  0.88420  0.87910  Biso   1.000  C
  C21      1.0000 0.44130  0.95740  0.95520  Biso   1.000  C
  C22      1.0000 0.56370  0.05920  0.99840  Biso   1.000  C
  C23      1.0000 0.76700  0.07620  0.95990  Biso   1.000  C
  C24      1.0000 0.84250  0.99850  0.88310  Biso   1.000  C
  N1       1.0000 0.01770  0.88100  0.64380  Biso   1.000  N
  N2       1.0000 0.22920  0.39760  0.15630  Biso   1.000  N
  N3       1.0000 0.51770  0.38100  0.35620  Biso   1.000  N
  N4       1.0000 0.72920  0.89760  0.84370  Biso   1.000  N
  O1       1.0000 0.44080  0.09870  0.35680  Biso   1.000  O
  O2       1.0000 0.13420  0.19520  0.34760  Biso   1.000  O
  O3       1.0000 0.78860  0.62330  0.88470  Biso   1.000  O
  O4       1.0000 0.10020  0.71550  0.86550  Biso   1.000  O
  O5       1.0000 0.94080  0.59870  0.64320  Biso   1.000  O
  O6       1.0000 0.63420  0.69520  0.65240  Biso   1.000  O
  O7       1.0000 0.28860  0.12330  0.11530  Biso   1.000  O
  O8       1.0000 0.60020  0.21550  0.13450  Biso   1.000  O
