data_image0
_cell_length_a       14.1744
_cell_length_b       25.9151
_cell_length_c       20.6042
_cell_angle_alpha    90
_cell_angle_beta     90
_cell_angle_gamma    90

_symmetry_space_group_name_H-M    P 1
_symmetry_int_tables_number       1

loop_
  _symmetry_equiv_pos_as_xyz
  'x, y, z'

loop_
  _atom_site_label
  _atom_site_occupancy
  _atom_site_fract_x
  _atom_site_fract_y
  _atom_site_fract_z
  _atom_site_thermal_displace_type
  _atom_site_B_iso_or_equiv
  _atom_site_type_symbol
  Zn1      1.0000 0.75846  0.90040  0.62308  Biso   1.000  Zn
  Zn2      1.0000 0.74154  0.59960  0.12308  Biso   1.000  Zn
  Zn3      1.0000 0.24154  0.90040  0.12308  Biso   1.000  Zn
  Zn4      1.0000 0.25846  0.59960  0.62308  Biso   1.000  Zn
  H1       1.0000 0.56650  0.91880  0.56570  Biso   1.000  H
  H2       1.0000 0.45300  0.98310  0.56260  Biso   1.000  H
  H3       1.0000 0.61120  0.06580  0.68820  Biso   1.000  H
  H4       1.0000 0.72040  0.99960  0.68850  Biso   1.000  H
  H5       1.0000 0.40400  0.06850  0.58670  Biso   1.000  H
  H6       1.0000 0.40400  0.06810  0.66420  Biso   1.000  H
  H7       1.0000 0.52560  0.25080  0.50640  Biso   1.000  H
  H8       1.0000 0.50890  0.25680  0.73860  Biso   1.000  H
  H9       1.0000 0.62540  0.43910  0.57810  Biso   1.000  H
  H10      1.0000 0.62530  0.44030  0.65560  Biso   1.000  H
  H11      1.0000 0.56260  0.51920  0.69000  Biso   1.000  H
  H12      1.0000 0.44470  0.58150  0.68790  Biso   1.000  H
  H13      1.0000 0.32100  0.51300  0.54050  Biso   1.000  H
  H14      1.0000 0.43290  0.44790  0.54020  Biso   1.000  H
  H15      1.0000 0.75990  0.77310  0.75000  Biso   1.000  H
  H16      1.0000 0.75680  0.68170  0.78550  Biso   1.000  H
  H17      1.0000 0.75990  0.62100  0.86850  Biso   1.000  H
  H18      1.0000 0.77580  0.73510  0.00340  Biso   1.000  H
  H19      1.0000 0.78350  0.82690  0.96740  Biso   1.000  H
  H20      1.0000 0.78340  0.88740  0.88370  Biso   1.000  H
  H21      1.0000 0.93350  0.58120  0.06570  Biso   1.000  H
  H22      1.0000 0.04700  0.51690  0.06260  Biso   1.000  H
  H23      1.0000 0.88880  0.43420  0.18820  Biso   1.000  H
  H24      1.0000 0.77960  0.50040  0.18850  Biso   1.000  H
  H25      1.0000 0.09600  0.43150  0.08670  Biso   1.000  H
  H26      1.0000 0.09600  0.43190  0.16420  Biso   1.000  H
  H27      1.0000 0.97440  0.24920  0.00640  Biso   1.000  H
  H28      1.0000 0.99110  0.24320  0.23860  Biso   1.000  H
  H29      1.0000 0.87460  0.06090  0.07810  Biso   1.000  H
  H30      1.0000 0.87470  0.05970  0.15560  Biso   1.000  H
  H31      1.0000 0.93740  0.98080  0.19000  Biso   1.000  H
  H32      1.0000 0.05530  0.91850  0.18790  Biso   1.000  H
  H33      1.0000 0.17900  0.98700  0.04050  Biso   1.000  H
  H34      1.0000 0.06710  0.05210  0.04020  Biso   1.000  H
  H35      1.0000 0.74010  0.72690  0.25000  Biso   1.000  H
  H36      1.0000 0.74320  0.81830  0.28550  Biso   1.000  H
  H37      1.0000 0.74010  0.87900  0.36850  Biso   1.000  H
  H38      1.0000 0.72420  0.76490  0.50340  Biso   1.000  H
  H39      1.0000 0.71650  0.67310  0.46740  Biso   1.000  H
  H40      1.0000 0.71660  0.61260  0.38370  Biso   1.000  H
  H41      1.0000 0.43350  0.91880  0.06570  Biso   1.000  H
  H42      1.0000 0.54700  0.98310  0.06260  Biso   1.000  H
  H43      1.0000 0.38880  0.06580  0.18820  Biso   1.000  H
  H44      1.0000 0.27960  0.99960  0.18850  Biso   1.000  H
  H45      1.0000 0.59600  0.06850  0.08670  Biso   1.000  H
  H46      1.0000 0.59600  0.06810  0.16420  Biso   1.000  H
  H47      1.0000 0.47440  0.25080  0.00640  Biso   1.000  H
  H48      1.0000 0.49110  0.25680  0.23860  Biso   1.000  H
  H49      1.0000 0.37460  0.43910  0.07810  Biso   1.000  H
  H50      1.0000 0.37470  0.44030  0.15560  Biso   1.000  H
  H51      1.0000 0.43740  0.51920  0.19000  Biso   1.000  H
  H52      1.0000 0.55530  0.58150  0.18790  Biso   1.000  H
  H53      1.0000 0.67900  0.51300  0.04050  Biso   1.000  H
  H54      1.0000 0.56710  0.44790  0.04020  Biso   1.000  H
  H55      1.0000 0.24010  0.77310  0.25000  Biso   1.000  H
  H56      1.0000 0.24320  0.68170  0.28550  Biso   1.000  H
  H57      1.0000 0.24010  0.62100  0.36850  Biso   1.000  H
  H58      1.0000 0.22420  0.73510  0.50340  Biso   1.000  H
  H59      1.0000 0.21650  0.82690  0.46740  Biso   1.000  H
  H60      1.0000 0.21660  0.88740  0.38370  Biso   1.000  H
  H61      1.0000 0.06650  0.58120  0.56570  Biso   1.000  H
  H62      1.0000 0.95300  0.51690  0.56260  Biso   1.000  H
  H63      1.0000 0.11120  0.43420  0.68820  Biso   1.000  H
  H64      1.0000 0.22040  0.50040  0.68850  Biso   1.000  H
  H65      1.0000 0.90400  0.43150  0.58670  Biso   1.000  H
  H66      1.0000 0.90400  0.43190  0.66420  Biso   1.000  H
  H67      1.0000 0.02560  0.24920  0.50640  Biso   1.000  H
  H68      1.0000 0.00890  0.24320  0.73860  Biso   1.000  H
  H69      1.0000 0.12540  0.06090  0.57810  Biso   1.000  H
  H70      1.0000 0.12530  0.05970  0.65560  Biso   1.000  H
  H71      1.0000 0.06260  0.98080  0.69000  Biso   1.000  H
  H72      1.0000 0.94470  0.91850  0.68790  Biso   1.000  H
  H73      1.0000 0.82100  0.98700  0.54050  Biso   1.000  H
  H74      1.0000 0.93290  0.05210  0.54020  Biso   1.000  H
  H75      1.0000 0.25990  0.72690  0.75000  Biso   1.000  H
  H76      1.0000 0.25680  0.81830  0.78550  Biso   1.000  H
  H77      1.0000 0.25990  0.87900  0.86850  Biso   1.000  H
  H78      1.0000 0.27580  0.76490  0.00340  Biso   1.000  H
  H79      1.0000 0.28350  0.67310  0.96740  Biso   1.000  H
  H80      1.0000 0.28340  0.61260  0.88370  Biso   1.000  H
  C1       1.0000 0.57533  0.94901  0.59106  Biso   1.000  C
  C2       1.0000 0.50754  0.98728  0.58888  Biso   1.000  C
  C3       1.0000 0.51926  0.03172  0.62513  Biso   1.000  C
  C4       1.0000 0.60046  0.03587  0.66273  Biso   1.000  C
  C5       1.0000 0.66515  0.99626  0.66273  Biso   1.000  C
  C6       1.0000 0.44433  0.07289  0.62548  Biso   1.000  C
  C7       1.0000 0.49778  0.15353  0.56933  Biso   1.000  C
  C8       1.0000 0.51014  0.20828  0.58999  Biso   1.000  C
  C9       1.0000 0.52177  0.25200  0.55236  Biso   1.000  C
  C10      1.0000 0.52739  0.29762  0.58699  Biso   1.000  C
  C11      1.0000 0.54171  0.35127  0.56293  Biso   1.000  C
  C12      1.0000 0.53863  0.35402  0.67521  Biso   1.000  C
  C13      1.0000 0.52351  0.29925  0.65484  Biso   1.000  C
  C14      1.0000 0.51159  0.25563  0.69256  Biso   1.000  C
  C15      1.0000 0.50394  0.21011  0.65768  Biso   1.000  C
  C16      1.0000 0.48446  0.15659  0.68116  Biso   1.000  C
  C17      1.0000 0.58509  0.43490  0.61695  Biso   1.000  C
  C18      1.0000 0.50909  0.47587  0.61590  Biso   1.000  C
  C19      1.0000 0.51262  0.51672  0.65947  Biso   1.000  C
  C20      1.0000 0.44226  0.55381  0.65779  Biso   1.000  C
  C21      1.0000 0.36988  0.51366  0.57200  Biso   1.000  C
  C22      1.0000 0.43672  0.47497  0.57124  Biso   1.000  C
  C23      1.0000 0.77511  0.87397  0.75350  Biso   1.000  C
  C24      1.0000 0.77314  0.83502  0.80802  Biso   1.000  C
  C25      1.0000 0.76544  0.78367  0.79400  Biso   1.000  C
  C26      1.0000 0.76547  0.74553  0.84404  Biso   1.000  C
  C27      1.0000 0.76085  0.69263  0.82938  Biso   1.000  C
  C28      1.0000 0.76222  0.65671  0.87852  Biso   1.000  C
  C29      1.0000 0.76716  0.67315  0.94479  Biso   1.000  C
  C30      1.0000 0.77215  0.72450  0.95932  Biso   1.000  C
  C31      1.0000 0.77198  0.76264  0.90896  Biso   1.000  C
  C32      1.0000 0.77895  0.81584  0.92354  Biso   1.000  C
  C33      1.0000 0.77920  0.85163  0.87396  Biso   1.000  C
  C34      1.0000 0.76523  0.63275  0.99762  Biso   1.000  C
  C35      1.0000 0.92467  0.55099  0.09106  Biso   1.000  C
  C36      1.0000 0.99246  0.51272  0.08888  Biso   1.000  C
  C37      1.0000 0.98074  0.46828  0.12513  Biso   1.000  C
  C38      1.0000 0.89954  0.46413  0.16273  Biso   1.000  C
  C39      1.0000 0.83485  0.50374  0.16273  Biso   1.000  C
  C40      1.0000 0.05567  0.42711  0.12548  Biso   1.000  C
  C41      1.0000 0.00222  0.34647  0.06933  Biso   1.000  C
  C42      1.0000 0.98986  0.29172  0.08999  Biso   1.000  C
  C43      1.0000 0.97823  0.24800  0.05236  Biso   1.000  C
  C44      1.0000 0.97261  0.20238  0.08699  Biso   1.000  C
  C45      1.0000 0.95829  0.14873  0.06293  Biso   1.000  C
  C46      1.0000 0.96137  0.14598  0.17521  Biso   1.000  C
  C47      1.0000 0.97649  0.20075  0.15484  Biso   1.000  C
  C48      1.0000 0.98841  0.24437  0.19256  Biso   1.000  C
  C49      1.0000 0.99606  0.28989  0.15768  Biso   1.000  C
  C50      1.0000 0.01554  0.34341  0.18116  Biso   1.000  C
  C51      1.0000 0.91491  0.06510  0.11695  Biso   1.000  C
  C52      1.0000 0.99091  0.02413  0.11590  Biso   1.000  C
  C53      1.0000 0.98738  0.98328  0.15947  Biso   1.000  C
  C54      1.0000 0.05774  0.94619  0.15779  Biso   1.000  C
  C55      1.0000 0.13012  0.98634  0.07200  Biso   1.000  C
  C56      1.0000 0.06328  0.02503  0.07124  Biso   1.000  C
  C57      1.0000 0.72489  0.62603  0.25350  Biso   1.000  C
  C58      1.0000 0.72686  0.66498  0.30802  Biso   1.000  C
  C59      1.0000 0.73456  0.71633  0.29400  Biso   1.000  C
  C60      1.0000 0.73453  0.75447  0.34404  Biso   1.000  C
  C61      1.0000 0.73915  0.80737  0.32938  Biso   1.000  C
  C62      1.0000 0.73778  0.84329  0.37852  Biso   1.000  C
  C63      1.0000 0.73284  0.82685  0.44479  Biso   1.000  C
  C64      1.0000 0.72785  0.77550  0.45932  Biso   1.000  C
  C65      1.0000 0.72802  0.73736  0.40896  Biso   1.000  C
  C66      1.0000 0.72105  0.68416  0.42354  Biso   1.000  C
  C67      1.0000 0.72080  0.64837  0.37396  Biso   1.000  C
  C68      1.0000 0.73477  0.86725  0.49762  Biso   1.000  C
  C69      1.0000 0.42467  0.94901  0.09106  Biso   1.000  C
  C70      1.0000 0.49246  0.98728  0.08888  Biso   1.000  C
  C71      1.0000 0.48074  0.03172  0.12513  Biso   1.000  C
  C72      1.0000 0.39954  0.03587  0.16273  Biso   1.000  C
  C73      1.0000 0.33485  0.99626  0.16273  Biso   1.000  C
  C74      1.0000 0.55567  0.07289  0.12548  Biso   1.000  C
  C75      1.0000 0.50222  0.15353  0.06933  Biso   1.000  C
  C76      1.0000 0.48986  0.20828  0.08999  Biso   1.000  C
  C77      1.0000 0.47823  0.25200  0.05236  Biso   1.000  C
  C78      1.0000 0.47261  0.29762  0.08699  Biso   1.000  C
  C79      1.0000 0.45829  0.35127  0.06293  Biso   1.000  C
  C80      1.0000 0.46137  0.35402  0.17521  Biso   1.000  C
  C81      1.0000 0.47649  0.29925  0.15484  Biso   1.000  C
  C82      1.0000 0.48841  0.25563  0.19256  Biso   1.000  C
  C83      1.0000 0.49606  0.21011  0.15768  Biso   1.000  C
  C84      1.0000 0.51554  0.15659  0.18116  Biso   1.000  C
  C85      1.0000 0.41491  0.43490  0.11695  Biso   1.000  C
  C86      1.0000 0.49091  0.47587  0.11590  Biso   1.000  C
  C87      1.0000 0.48738  0.51672  0.15947  Biso   1.000  C
  C88      1.0000 0.55774  0.55381  0.15779  Biso   1.000  C
  C89      1.0000 0.63012  0.51366  0.07200  Biso   1.000  C
  C90      1.0000 0.56328  0.47497  0.07124  Biso   1.000  C
  C91      1.0000 0.22489  0.87397  0.25350  Biso   1.000  C
  C92      1.0000 0.22686  0.83502  0.30802  Biso   1.000  C
  C93      1.0000 0.23456  0.78367  0.29400  Biso   1.000  C
  C94      1.0000 0.23453  0.74553  0.34404  Biso   1.000  C
  C95      1.0000 0.23915  0.69263  0.32938  Biso   1.000  C
  C96      1.0000 0.23778  0.65671  0.37852  Biso   1.000  C
  C97      1.0000 0.23284  0.67315  0.44479  Biso   1.000  C
  C98      1.0000 0.22785  0.72450  0.45932  Biso   1.000  C
  C99      1.0000 0.22802  0.76264  0.40896  Biso   1.000  C
  C100     1.0000 0.22105  0.81584  0.42354  Biso   1.000  C
  C101     1.0000 0.22080  0.85163  0.37396  Biso   1.000  C
  C102     1.0000 0.23477  0.63275  0.49762  Biso   1.000  C
  C103     1.0000 0.07533  0.55099  0.59106  Biso   1.000  C
  C104     1.0000 0.00754  0.51272  0.58888  Biso   1.000  C
  C105     1.0000 0.01926  0.46828  0.62513  Biso   1.000  C
  C106     1.0000 0.10046  0.46413  0.66273  Biso   1.000  C
  C107     1.0000 0.16515  0.50374  0.66273  Biso   1.000  C
  C108     1.0000 0.94433  0.42711  0.62548  Biso   1.000  C
  C109     1.0000 0.99778  0.34647  0.56933  Biso   1.000  C
  C110     1.0000 0.01014  0.29172  0.58999  Biso   1.000  C
  C111     1.0000 0.02177  0.24800  0.55236  Biso   1.000  C
  C112     1.0000 0.02739  0.20238  0.58699  Biso   1.000  C
  C113     1.0000 0.04171  0.14873  0.56293  Biso   1.000  C
  C114     1.0000 0.03863  0.14598  0.67521  Biso   1.000  C
  C115     1.0000 0.02351  0.20075  0.65484  Biso   1.000  C
  C116     1.0000 0.01159  0.24437  0.69256  Biso   1.000  C
  C117     1.0000 0.00394  0.28989  0.65768  Biso   1.000  C
  C118     1.0000 0.98446  0.34341  0.68116  Biso   1.000  C
  C119     1.0000 0.08509  0.06510  0.61695  Biso   1.000  C
  C120     1.0000 0.00909  0.02413  0.61590  Biso   1.000  C
  C121     1.0000 0.01262  0.98328  0.65947  Biso   1.000  C
  C122     1.0000 0.94226  0.94619  0.65779  Biso   1.000  C
  C123     1.0000 0.86988  0.98634  0.57200  Biso   1.000  C
  C124     1.0000 0.93672  0.02503  0.57124  Biso   1.000  C
  C125     1.0000 0.27511  0.62603  0.75350  Biso   1.000  C
  C126     1.0000 0.27314  0.66498  0.80802  Biso   1.000  C
  C127     1.0000 0.26544  0.71633  0.79400  Biso   1.000  C
  C128     1.0000 0.26547  0.75447  0.84404  Biso   1.000  C
  C129     1.0000 0.26085  0.80737  0.82938  Biso   1.000  C
  C130     1.0000 0.26222  0.84329  0.87852  Biso   1.000  C
  C131     1.0000 0.26716  0.82685  0.94479  Biso   1.000  C
  C132     1.0000 0.27215  0.77550  0.95932  Biso   1.000  C
  C133     1.0000 0.27198  0.73736  0.90896  Biso   1.000  C
  C134     1.0000 0.27895  0.68416  0.92354  Biso   1.000  C
  C135     1.0000 0.27920  0.64837  0.87396  Biso   1.000  C
  C136     1.0000 0.26523  0.86725  0.99762  Biso   1.000  C
  N1       1.0000 0.65301  0.95306  0.62757  Biso   1.000  N
  N2       1.0000 0.48184  0.12543  0.62592  Biso   1.000  N
  N3       1.0000 0.54847  0.38233  0.61819  Biso   1.000  N
  N4       1.0000 0.37130  0.55200  0.61537  Biso   1.000  N
  N5       1.0000 0.84699  0.54694  0.12757  Biso   1.000  N
  N6       1.0000 0.01816  0.37457  0.12592  Biso   1.000  N
  N7       1.0000 0.95153  0.11767  0.11819  Biso   1.000  N
  N8       1.0000 0.12870  0.94800  0.11537  Biso   1.000  N
  N9       1.0000 0.34699  0.95306  0.12757  Biso   1.000  N
  N10      1.0000 0.51816  0.12543  0.12592  Biso   1.000  N
  N11      1.0000 0.45153  0.38233  0.11819  Biso   1.000  N
  N12      1.0000 0.62870  0.55200  0.11537  Biso   1.000  N
  N13      1.0000 0.15301  0.54694  0.62757  Biso   1.000  N
  N14      1.0000 0.98184  0.37457  0.62592  Biso   1.000  N
  N15      1.0000 0.04847  0.11767  0.61819  Biso   1.000  N
  N16      1.0000 0.87130  0.94800  0.61537  Biso   1.000  N
  O1       1.0000 0.50040  0.13568  0.51519  Biso   1.000  O
  O2       1.0000 0.54698  0.36654  0.50764  Biso   1.000  O
  O3       1.0000 0.54381  0.37136  0.72952  Biso   1.000  O
  O4       1.0000 0.47159  0.14181  0.73581  Biso   1.000  O
  O5       1.0000 0.77211  0.85458  0.69615  Biso   1.000  O
  O6       1.0000 0.77985  0.91981  0.76597  Biso   1.000  O
  O7       1.0000 0.76602  0.58691  0.98294  Biso   1.000  O
  O8       1.0000 0.76207  0.65044  0.05611  Biso   1.000  O
  O9       1.0000 0.99960  0.36432  0.01519  Biso   1.000  O
  O10      1.0000 0.95302  0.13346  0.00764  Biso   1.000  O
  O11      1.0000 0.95619  0.12864  0.22952  Biso   1.000  O
  O12      1.0000 0.02841  0.35819  0.23581  Biso   1.000  O
  O13      1.0000 0.72789  0.64542  0.19615  Biso   1.000  O
  O14      1.0000 0.72015  0.58019  0.26597  Biso   1.000  O
  O15      1.0000 0.73398  0.91309  0.48294  Biso   1.000  O
  O16      1.0000 0.73793  0.84956  0.55611  Biso   1.000  O
  O17      1.0000 0.49960  0.13568  0.01519  Biso   1.000  O
  O18      1.0000 0.45302  0.36654  0.00764  Biso   1.000  O
  O19      1.0000 0.45619  0.37136  0.22952  Biso   1.000  O
  O20      1.0000 0.52841  0.14181  0.23581  Biso   1.000  O
  O21      1.0000 0.22789  0.85458  0.19615  Biso   1.000  O
  O22      1.0000 0.22015  0.91981  0.26597  Biso   1.000  O
  O23      1.0000 0.23398  0.58691  0.48294  Biso   1.000  O
  O24      1.0000 0.23793  0.65044  0.55611  Biso   1.000  O
  O25      1.0000 0.00040  0.36432  0.51519  Biso   1.000  O
  O26      1.0000 0.04698  0.13346  0.50764  Biso   1.000  O
  O27      1.0000 0.04381  0.12864  0.72952  Biso   1.000  O
  O28      1.0000 0.97159  0.35819  0.73581  Biso   1.000  O
  O29      1.0000 0.27211  0.64542  0.69615  Biso   1.000  O
  O30      1.0000 0.27985  0.58019  0.76597  Biso   1.000  O
  O31      1.0000 0.26602  0.91309  0.98294  Biso   1.000  O
  O32      1.0000 0.26207  0.84956  0.05611  Biso   1.000  O
  Zn5      1.0000 0.75846  0.09960  0.87692  Biso   1.000  Zn
  Zn6      1.0000 0.74154  0.40040  0.37692  Biso   1.000  Zn
  Zn7      1.0000 0.24154  0.09960  0.37692  Biso   1.000  Zn
  Zn8      1.0000 0.25846  0.40040  0.87692  Biso   1.000  Zn
  H81      1.0000 0.56650  0.08120  0.93430  Biso   1.000  H
  H82      1.0000 0.45300  0.01690  0.93740  Biso   1.000  H
  H83      1.0000 0.61120  0.93420  0.81180  Biso   1.000  H
  H84      1.0000 0.72040  0.00040  0.81150  Biso   1.000  H
  H85      1.0000 0.40400  0.93150  0.91330  Biso   1.000  H
  H86      1.0000 0.40400  0.93190  0.83580  Biso   1.000  H
  H87      1.0000 0.52560  0.74920  0.99360  Biso   1.000  H
  H88      1.0000 0.50890  0.74320  0.76140  Biso   1.000  H
  H89      1.0000 0.62540  0.56090  0.92190  Biso   1.000  H
  H90      1.0000 0.62530  0.55970  0.84440  Biso   1.000  H
  H91      1.0000 0.56260  0.48080  0.81000  Biso   1.000  H
  H92      1.0000 0.44470  0.41850  0.81210  Biso   1.000  H
  H93      1.0000 0.32100  0.48700  0.95950  Biso   1.000  H
  H94      1.0000 0.43290  0.55210  0.95980  Biso   1.000  H
  H95      1.0000 0.75990  0.22690  0.75000  Biso   1.000  H
  H96      1.0000 0.75680  0.31830  0.71450  Biso   1.000  H
  H97      1.0000 0.75990  0.37900  0.63150  Biso   1.000  H
  H98      1.0000 0.77580  0.26490  0.49660  Biso   1.000  H
  H99      1.0000 0.78350  0.17310  0.53260  Biso   1.000  H
  H100     1.0000 0.78340  0.11260  0.61630  Biso   1.000  H
  H101     1.0000 0.93350  0.41880  0.43430  Biso   1.000  H
  H102     1.0000 0.04700  0.48310  0.43740  Biso   1.000  H
  H103     1.0000 0.88880  0.56580  0.31180  Biso   1.000  H
  H104     1.0000 0.77960  0.49960  0.31150  Biso   1.000  H
  H105     1.0000 0.09600  0.56850  0.41330  Biso   1.000  H
  H106     1.0000 0.09600  0.56810  0.33580  Biso   1.000  H
  H107     1.0000 0.97440  0.75080  0.49360  Biso   1.000  H
  H108     1.0000 0.99110  0.75680  0.26140  Biso   1.000  H
  H109     1.0000 0.87460  0.93910  0.42190  Biso   1.000  H
  H110     1.0000 0.87470  0.94030  0.34440  Biso   1.000  H
  H111     1.0000 0.93740  0.01920  0.31000  Biso   1.000  H
  H112     1.0000 0.05530  0.08150  0.31210  Biso   1.000  H
  H113     1.0000 0.17900  0.01300  0.45950  Biso   1.000  H
  H114     1.0000 0.06710  0.94790  0.45980  Biso   1.000  H
  H115     1.0000 0.74010  0.27310  0.25000  Biso   1.000  H
  H116     1.0000 0.74320  0.18170  0.21450  Biso   1.000  H
  H117     1.0000 0.74010  0.12100  0.13150  Biso   1.000  H
  H118     1.0000 0.72420  0.23510  0.99660  Biso   1.000  H
  H119     1.0000 0.71650  0.32690  0.03260  Biso   1.000  H
  H120     1.0000 0.71660  0.38740  0.11630  Biso   1.000  H
  H121     1.0000 0.43350  0.08120  0.43430  Biso   1.000  H
  H122     1.0000 0.54700  0.01690  0.43740  Biso   1.000  H
  H123     1.0000 0.38880  0.93420  0.31180  Biso   1.000  H
  H124     1.0000 0.27960  0.00040  0.31150  Biso   1.000  H
  H125     1.0000 0.59600  0.93150  0.41330  Biso   1.000  H
  H126     1.0000 0.59600  0.93190  0.33580  Biso   1.000  H
  H127     1.0000 0.47440  0.74920  0.49360  Biso   1.000  H
  H128     1.0000 0.49110  0.74320  0.26140  Biso   1.000  H
  H129     1.0000 0.37460  0.56090  0.42190  Biso   1.000  H
  H130     1.0000 0.37470  0.55970  0.34440  Biso   1.000  H
  H131     1.0000 0.43740  0.48080  0.31000  Biso   1.000  H
  H132     1.0000 0.55530  0.41850  0.31210  Biso   1.000  H
  H133     1.0000 0.67900  0.48700  0.45950  Biso   1.000  H
  H134     1.0000 0.56710  0.55210  0.45980  Biso   1.000  H
  H135     1.0000 0.24010  0.22690  0.25000  Biso   1.000  H
  H136     1.0000 0.24320  0.31830  0.21450  Biso   1.000  H
  H137     1.0000 0.24010  0.37900  0.13150  Biso   1.000  H
  H138     1.0000 0.22420  0.26490  0.99660  Biso   1.000  H
  H139     1.0000 0.21650  0.17310  0.03260  Biso   1.000  H
  H140     1.0000 0.21660  0.11260  0.11630  Biso   1.000  H
  H141     1.0000 0.06650  0.41880  0.93430  Biso   1.000  H
  H142     1.0000 0.95300  0.48310  0.93740  Biso   1.000  H
  H143     1.0000 0.11120  0.56580  0.81180  Biso   1.000  H
  H144     1.0000 0.22040  0.49960  0.81150  Biso   1.000  H
  H145     1.0000 0.90400  0.56850  0.91330  Biso   1.000  H
  H146     1.0000 0.90400  0.56810  0.83580  Biso   1.000  H
  H147     1.0000 0.02560  0.75080  0.99360  Biso   1.000  H
  H148     1.0000 0.00890  0.75680  0.76140  Biso   1.000  H
  H149     1.0000 0.12540  0.93910  0.92190  Biso   1.000  H
  H150     1.0000 0.12530  0.94030  0.84440  Biso   1.000  H
  H151     1.0000 0.06260  0.01920  0.81000  Biso   1.000  H
  H152     1.0000 0.94470  0.08150  0.81210  Biso   1.000  H
  H153     1.0000 0.82100  0.01300  0.95950  Biso   1.000  H
  H154     1.0000 0.93290  0.94790  0.95980  Biso   1.000  H
  H155     1.0000 0.25990  0.27310  0.75000  Biso   1.000  H
  H156     1.0000 0.25680  0.18170  0.71450  Biso   1.000  H
  H157     1.0000 0.25990  0.12100  0.63150  Biso   1.000  H
  H158     1.0000 0.27580  0.23510  0.49660  Biso   1.000  H
  H159     1.0000 0.28350  0.32690  0.53260  Biso   1.000  H
  H160     1.0000 0.28340  0.38740  0.61630  Biso   1.000  H
  C137     1.0000 0.57533  0.05099  0.90894  Biso   1.000  C
  C138     1.0000 0.50754  0.01272  0.91112  Biso   1.000  C
  C139     1.0000 0.51926  0.96828  0.87487  Biso   1.000  C
  C140     1.0000 0.60046  0.96413  0.83727  Biso   1.000  C
  C141     1.0000 0.66515  0.00374  0.83727  Biso   1.000  C
  C142     1.0000 0.44433  0.92711  0.87452  Biso   1.000  C
  C143     1.0000 0.49778  0.84647  0.93067  Biso   1.000  C
  C144     1.0000 0.51014  0.79172  0.91001  Biso   1.000  C
  C145     1.0000 0.52177  0.74800  0.94764  Biso   1.000  C
  C146     1.0000 0.52739  0.70238  0.91301  Biso   1.000  C
  C147     1.0000 0.54171  0.64873  0.93707  Biso   1.000  C
  C148     1.0000 0.53863  0.64598  0.82479  Biso   1.000  C
  C149     1.0000 0.52351  0.70075  0.84516  Biso   1.000  C
  C150     1.0000 0.51159  0.74437  0.80744  Biso   1.000  C
  C151     1.0000 0.50394  0.78989  0.84232  Biso   1.000  C
  C152     1.0000 0.48446  0.84341  0.81884  Biso   1.000  C
  C153     1.0000 0.58509  0.56510  0.88305  Biso   1.000  C
  C154     1.0000 0.50909  0.52413  0.88410  Biso   1.000  C
  C155     1.0000 0.51262  0.48328  0.84053  Biso   1.000  C
  C156     1.0000 0.44226  0.44619  0.84221  Biso   1.000  C
  C157     1.0000 0.36988  0.48634  0.92800  Biso   1.000  C
  C158     1.0000 0.43672  0.52503  0.92876  Biso   1.000  C
  C159     1.0000 0.77511  0.12603  0.74650  Biso   1.000  C
  C160     1.0000 0.77314  0.16498  0.69198  Biso   1.000  C
  C161     1.0000 0.76544  0.21633  0.70600  Biso   1.000  C
  C162     1.0000 0.76547  0.25447  0.65596  Biso   1.000  C
  C163     1.0000 0.76085  0.30737  0.67062  Biso   1.000  C
  C164     1.0000 0.76222  0.34329  0.62148  Biso   1.000  C
  C165     1.0000 0.76716  0.32685  0.55521  Biso   1.000  C
  C166     1.0000 0.77215  0.27550  0.54068  Biso   1.000  C
  C167     1.0000 0.77198  0.23736  0.59104  Biso   1.000  C
  C168     1.0000 0.77895  0.18416  0.57646  Biso   1.000  C
  C169     1.0000 0.77920  0.14837  0.62604  Biso   1.000  C
  C170     1.0000 0.76523  0.36725  0.50238  Biso   1.000  C
  C171     1.0000 0.92467  0.44901  0.40894  Biso   1.000  C
  C172     1.0000 0.99246  0.48728  0.41112  Biso   1.000  C
  C173     1.0000 0.98074  0.53172  0.37487  Biso   1.000  C
  C174     1.0000 0.89954  0.53587  0.33727  Biso   1.000  C
  C175     1.0000 0.83485  0.49626  0.33727  Biso   1.000  C
  C176     1.0000 0.05567  0.57289  0.37452  Biso   1.000  C
  C177     1.0000 0.00222  0.65353  0.43067  Biso   1.000  C
  C178     1.0000 0.98986  0.70828  0.41001  Biso   1.000  C
  C179     1.0000 0.97823  0.75200  0.44764  Biso   1.000  C
  C180     1.0000 0.97261  0.79762  0.41301  Biso   1.000  C
  C181     1.0000 0.95829  0.85127  0.43707  Biso   1.000  C
  C182     1.0000 0.96137  0.85402  0.32479  Biso   1.000  C
  C183     1.0000 0.97649  0.79925  0.34516  Biso   1.000  C
  C184     1.0000 0.98841  0.75563  0.30744  Biso   1.000  C
  C185     1.0000 0.99606  0.71011  0.34232  Biso   1.000  C
  C186     1.0000 0.01554  0.65659  0.31884  Biso   1.000  C
  C187     1.0000 0.91491  0.93490  0.38305  Biso   1.000  C
  C188     1.0000 0.99091  0.97587  0.38410  Biso   1.000  C
  C189     1.0000 0.98738  0.01672  0.34053  Biso   1.000  C
  C190     1.0000 0.05774  0.05381  0.34221  Biso   1.000  C
  C191     1.0000 0.13012  0.01366  0.42800  Biso   1.000  C
  C192     1.0000 0.06328  0.97497  0.42876  Biso   1.000  C
  C193     1.0000 0.72489  0.37397  0.24650  Biso   1.000  C
  C194     1.0000 0.72686  0.33502  0.19198  Biso   1.000  C
  C195     1.0000 0.73456  0.28367  0.20600  Biso   1.000  C
  C196     1.0000 0.73453  0.24553  0.15596  Biso   1.000  C
  C197     1.0000 0.73915  0.19263  0.17062  Biso   1.000  C
  C198     1.0000 0.73778  0.15671  0.12148  Biso   1.000  C
  C199     1.0000 0.73284  0.17315  0.05521  Biso   1.000  C
  C200     1.0000 0.72785  0.22450  0.04068  Biso   1.000  C
  C201     1.0000 0.72802  0.26264  0.09104  Biso   1.000  C
  C202     1.0000 0.72105  0.31584  0.07646  Biso   1.000  C
  C203     1.0000 0.72080  0.35163  0.12604  Biso   1.000  C
  C204     1.0000 0.73477  0.13275  0.00238  Biso   1.000  C
  C205     1.0000 0.42467  0.05099  0.40894  Biso   1.000  C
  C206     1.0000 0.49246  0.01272  0.41112  Biso   1.000  C
  C207     1.0000 0.48074  0.96828  0.37487  Biso   1.000  C
  C208     1.0000 0.39954  0.96413  0.33727  Biso   1.000  C
  C209     1.0000 0.33485  0.00374  0.33727  Biso   1.000  C
  C210     1.0000 0.55567  0.92711  0.37452  Biso   1.000  C
  C211     1.0000 0.50222  0.84647  0.43067  Biso   1.000  C
  C212     1.0000 0.48986  0.79172  0.41001  Biso   1.000  C
  C213     1.0000 0.47823  0.74800  0.44764  Biso   1.000  C
  C214     1.0000 0.47261  0.70238  0.41301  Biso   1.000  C
  C215     1.0000 0.45829  0.64873  0.43707  Biso   1.000  C
  C216     1.0000 0.46137  0.64598  0.32479  Biso   1.000  C
  C217     1.0000 0.47649  0.70075  0.34516  Biso   1.000  C
  C218     1.0000 0.48841  0.74437  0.30744  Biso   1.000  C
  C219     1.0000 0.49606  0.78989  0.34232  Biso   1.000  C
  C220     1.0000 0.51554  0.84341  0.31884  Biso   1.000  C
  C221     1.0000 0.41491  0.56510  0.38305  Biso   1.000  C
  C222     1.0000 0.49091  0.52413  0.38410  Biso   1.000  C
  C223     1.0000 0.48738  0.48328  0.34053  Biso   1.000  C
  C224     1.0000 0.55774  0.44619  0.34221  Biso   1.000  C
  C225     1.0000 0.63012  0.48634  0.42800  Biso   1.000  C
  C226     1.0000 0.56328  0.52503  0.42876  Biso   1.000  C
  C227     1.0000 0.22489  0.12603  0.24650  Biso   1.000  C
  C228     1.0000 0.22686  0.16498  0.19198  Biso   1.000  C
  C229     1.0000 0.23456  0.21633  0.20600  Biso   1.000  C
  C230     1.0000 0.23453  0.25447  0.15596  Biso   1.000  C
  C231     1.0000 0.23915  0.30737  0.17062  Biso   1.000  C
  C232     1.0000 0.23778  0.34329  0.12148  Biso   1.000  C
  C233     1.0000 0.23284  0.32685  0.05521  Biso   1.000  C
  C234     1.0000 0.22785  0.27550  0.04068  Biso   1.000  C
  C235     1.0000 0.22802  0.23736  0.09104  Biso   1.000  C
  C236     1.0000 0.22105  0.18416  0.07646  Biso   1.000  C
  C237     1.0000 0.22080  0.14837  0.12604  Biso   1.000  C
  C238     1.0000 0.23477  0.36725  0.00238  Biso   1.000  C
  C239     1.0000 0.07533  0.44901  0.90894  Biso   1.000  C
  C240     1.0000 0.00754  0.48728  0.91112  Biso   1.000  C
  C241     1.0000 0.01926  0.53172  0.87487  Biso   1.000  C
  C242     1.0000 0.10046  0.53587  0.83727  Biso   1.000  C
  C243     1.0000 0.16515  0.49626  0.83727  Biso   1.000  C
  C244     1.0000 0.94433  0.57289  0.87452  Biso   1.000  C
  C245     1.0000 0.99778  0.65353  0.93067  Biso   1.000  C
  C246     1.0000 0.01014  0.70828  0.91001  Biso   1.000  C
  C247     1.0000 0.02177  0.75200  0.94764  Biso   1.000  C
  C248     1.0000 0.02739  0.79762  0.91301  Biso   1.000  C
  C249     1.0000 0.04171  0.85127  0.93707  Biso   1.000  C
  C250     1.0000 0.03863  0.85402  0.82479  Biso   1.000  C
  C251     1.0000 0.02351  0.79925  0.84516  Biso   1.000  C
  C252     1.0000 0.01159  0.75563  0.80744  Biso   1.000  C
  C253     1.0000 0.00394  0.71011  0.84232  Biso   1.000  C
  C254     1.0000 0.98446  0.65659  0.81884  Biso   1.000  C
  C255     1.0000 0.08509  0.93490  0.88305  Biso   1.000  C
  C256     1.0000 0.00909  0.97587  0.88410  Biso   1.000  C
  C257     1.0000 0.01262  0.01672  0.84053  Biso   1.000  C
  C258     1.0000 0.94226  0.05381  0.84221  Biso   1.000  C
  C259     1.0000 0.86988  0.01366  0.92800  Biso   1.000  C
  C260     1.0000 0.93672  0.97497  0.92876  Biso   1.000  C
  C261     1.0000 0.27511  0.37397  0.74650  Biso   1.000  C
  C262     1.0000 0.27314  0.33502  0.69198  Biso   1.000  C
  C263     1.0000 0.26544  0.28367  0.70600  Biso   1.000  C
  C264     1.0000 0.26547  0.24553  0.65596  Biso   1.000  C
  C265     1.0000 0.26085  0.19263  0.67062  Biso   1.000  C
  C266     1.0000 0.26222  0.15671  0.62148  Biso   1.000  C
  C267     1.0000 0.26716  0.17315  0.55521  Biso   1.000  C
  C268     1.0000 0.27215  0.22450  0.54068  Biso   1.000  C
  C269     1.0000 0.27198  0.26264  0.59104  Biso   1.000  C
  C270     1.0000 0.27895  0.31584  0.57646  Biso   1.000  C
  C271     1.0000 0.27920  0.35163  0.62604  Biso   1.000  C
  C272     1.0000 0.26523  0.13275  0.50238  Biso   1.000  C
  N17      1.0000 0.65301  0.04694  0.87243  Biso   1.000  N
  N18      1.0000 0.48184  0.87457  0.87408  Biso   1.000  N
  N19      1.0000 0.54847  0.61767  0.88181  Biso   1.000  N
  N20      1.0000 0.37130  0.44800  0.88463  Biso   1.000  N
  N21      1.0000 0.84699  0.45306  0.37243  Biso   1.000  N
  N22      1.0000 0.01816  0.62543  0.37408  Biso   1.000  N
  N23      1.0000 0.95153  0.88233  0.38181  Biso   1.000  N
  N24      1.0000 0.12870  0.05200  0.38463  Biso   1.000  N
  N25      1.0000 0.34699  0.04694  0.37243  Biso   1.000  N
  N26      1.0000 0.51816  0.87457  0.37408  Biso   1.000  N
  N27      1.0000 0.45153  0.61767  0.38181  Biso   1.000  N
  N28      1.0000 0.62870  0.44800  0.38463  Biso   1.000  N
  N29      1.0000 0.15301  0.45306  0.87243  Biso   1.000  N
  N30      1.0000 0.98184  0.62543  0.87408  Biso   1.000  N
  N31      1.0000 0.04847  0.88233  0.88181  Biso   1.000  N
  N32      1.0000 0.87130  0.05200  0.88463  Biso   1.000  N
  O33      1.0000 0.50040  0.86432  0.98481  Biso   1.000  O
  O34      1.0000 0.54698  0.63346  0.99236  Biso   1.000  O
  O35      1.0000 0.54381  0.62864  0.77048  Biso   1.000  O
  O36      1.0000 0.47159  0.85819  0.76419  Biso   1.000  O
  O37      1.0000 0.77211  0.14542  0.80385  Biso   1.000  O
  O38      1.0000 0.77985  0.08019  0.73403  Biso   1.000  O
  O39      1.0000 0.76602  0.41309  0.51706  Biso   1.000  O
  O40      1.0000 0.76207  0.34956  0.44389  Biso   1.000  O
  O41      1.0000 0.99960  0.63568  0.48481  Biso   1.000  O
  O42      1.0000 0.95302  0.86654  0.49236  Biso   1.000  O
  O43      1.0000 0.95619  0.87136  0.27048  Biso   1.000  O
  O44      1.0000 0.02841  0.64181  0.26419  Biso   1.000  O
  O45      1.0000 0.72789  0.35458  0.30385  Biso   1.000  O
  O46      1.0000 0.72015  0.41981  0.23403  Biso   1.000  O
  O47      1.0000 0.73398  0.08691  0.01706  Biso   1.000  O
  O48      1.0000 0.73793  0.15044  0.94389  Biso   1.000  O
  O49      1.0000 0.49960  0.86432  0.48481  Biso   1.000  O
  O50      1.0000 0.45302  0.63346  0.49236  Biso   1.000  O
  O51      1.0000 0.45619  0.62864  0.27048  Biso   1.000  O
  O52      1.0000 0.52841  0.85819  0.26419  Biso   1.000  O
  O53      1.0000 0.22789  0.14542  0.30385  Biso   1.000  O
  O54      1.0000 0.22015  0.08019  0.23403  Biso   1.000  O
  O55      1.0000 0.23398  0.41309  0.01706  Biso   1.000  O
  O56      1.0000 0.23793  0.34956  0.94389  Biso   1.000  O
  O57      1.0000 0.00040  0.63568  0.98481  Biso   1.000  O
  O58      1.0000 0.04698  0.86654  0.99236  Biso   1.000  O
  O59      1.0000 0.04381  0.87136  0.77048  Biso   1.000  O
  O60      1.0000 0.97159  0.64181  0.76419  Biso   1.000  O
  O61      1.0000 0.27211  0.35458  0.80385  Biso   1.000  O
  O62      1.0000 0.27985  0.41981  0.73403  Biso   1.000  O
  O63      1.0000 0.26602  0.08691  0.51706  Biso   1.000  O
  O64      1.0000 0.26207  0.15044  0.44389  Biso   1.000  O
