data_image0
_cell_length_a       7.9714
_cell_length_b       9.7403
_cell_length_c       21.312
_cell_angle_alpha    90
_cell_angle_beta     90
_cell_angle_gamma    114.154

_symmetry_space_group_name_H-M    P 1
_symmetry_int_tables_number       1

loop_
  _symmetry_equiv_pos_as_xyz
  'x, y, z'

loop_
  _atom_site_label
  _atom_site_occupancy
  _atom_site_fract_x
  _atom_site_fract_y
  _atom_site_fract_z
  _atom_site_thermal_displace_type
  _atom_site_B_iso_or_equiv
  _atom_site_type_symbol
  Na1      1.0000 0.88990  1.00000  0.50000  Biso   1.000  Na
  Na2      1.0000 0.11010  1.00000  0.00000  Biso   1.000  Na
  U1       1.0000 0.45905  0.85680  0.61808  Biso   1.000  U
  U2       1.0000 0.54095  0.14320  0.11808  Biso   1.000  U
  U3       1.0000 0.39775  0.85680  0.88192  Biso   1.000  U
  U4       1.0000 0.60225  0.14320  0.38192  Biso   1.000  U
  H1       1.0000 0.98450  0.66360  0.54300  Biso   1.000  H
  H2       1.0000 0.98290  0.39920  0.54690  Biso   1.000  H
  H3       1.0000 0.85510  0.44500  0.72000  Biso   1.000  H
  H4       1.0000 0.01550  0.33640  0.04300  Biso   1.000  H
  H5       1.0000 0.01710  0.60080  0.04690  Biso   1.000  H
  H6       1.0000 0.14490  0.55500  0.22000  Biso   1.000  H
  H7       1.0000 0.67910  0.66360  0.95700  Biso   1.000  H
  H8       1.0000 0.41630  0.39920  0.95310  Biso   1.000  H
  H9       1.0000 0.58990  0.44500  0.78000  Biso   1.000  H
  H10      1.0000 0.32090  0.33640  0.45700  Biso   1.000  H
  H11      1.0000 0.58370  0.60080  0.45310  Biso   1.000  H
  H12      1.0000 0.41010  0.55500  0.28000  Biso   1.000  H
  C1       1.0000 0.62820  0.65900  0.58630  Biso   1.000  C
  C2       1.0000 0.71990  0.55600  0.57460  Biso   1.000  C
  C3       1.0000 0.95340  0.67300  0.72230  Biso   1.000  C
  C4       1.0000 0.72410  0.33420  0.57780  Biso   1.000  C
  C5       1.0000 0.63550  0.17300  0.58900  Biso   1.000  C
  C6       1.0000 0.88820  0.57460  0.55530  Biso   1.000  C
  C7       1.0000 0.88660  0.42520  0.55770  Biso   1.000  C
  C8       1.0000 0.12300  0.74040  0.68710  Biso   1.000  C
  C9       1.0000 0.83890  0.52980  0.73310  Biso   1.000  C
  C10      1.0000 0.37180  0.34100  0.08630  Biso   1.000  C
  C11      1.0000 0.28010  0.44400  0.07460  Biso   1.000  C
  C12      1.0000 0.04660  0.32700  0.22230  Biso   1.000  C
  C13      1.0000 0.27590  0.66580  0.07780  Biso   1.000  C
  C14      1.0000 0.36450  0.82700  0.08900  Biso   1.000  C
  C15      1.0000 0.11180  0.42540  0.05530  Biso   1.000  C
  C16      1.0000 0.11340  0.57480  0.05770  Biso   1.000  C
  C17      1.0000 0.87700  0.25960  0.18710  Biso   1.000  C
  C18      1.0000 0.16110  0.47020  0.23310  Biso   1.000  C
  C19      1.0000 0.03080  0.65900  0.91370  Biso   1.000  C
  C20      1.0000 0.83610  0.55600  0.92540  Biso   1.000  C
  C21      1.0000 0.71960  0.67300  0.77770  Biso   1.000  C
  C22      1.0000 0.61010  0.33420  0.92220  Biso   1.000  C
  C23      1.0000 0.53750  0.17300  0.91100  Biso   1.000  C
  C24      1.0000 0.68640  0.57460  0.94470  Biso   1.000  C
  C25      1.0000 0.53860  0.42520  0.94230  Biso   1.000  C
  C26      1.0000 0.61740  0.74040  0.81290  Biso   1.000  C
  C27      1.0000 0.69090  0.52980  0.76690  Biso   1.000  C
  C28      1.0000 0.96920  0.34100  0.41370  Biso   1.000  C
  C29      1.0000 0.16390  0.44400  0.42540  Biso   1.000  C
  C30      1.0000 0.28040  0.32700  0.27770  Biso   1.000  C
  C31      1.0000 0.38990  0.66580  0.42220  Biso   1.000  C
  C32      1.0000 0.46250  0.82700  0.41100  Biso   1.000  C
  C33      1.0000 0.31360  0.42540  0.44470  Biso   1.000  C
  C34      1.0000 0.46140  0.57480  0.44230  Biso   1.000  C
  C35      1.0000 0.38260  0.25960  0.31290  Biso   1.000  C
  C36      1.0000 0.30910  0.47020  0.26690  Biso   1.000  C
  O1       1.0000 0.47790  0.61400  0.61090  Biso   1.000  O
  O2       1.0000 0.71090  0.79980  0.57000  Biso   1.000  O
  O3       1.0000 0.48020  0.11380  0.61670  Biso   1.000  O
  O4       1.0000 0.19290  0.87880  0.67170  Biso   1.000  O
  O5       1.0000 0.71620  0.08880  0.57450  Biso   1.000  O
  O6       1.0000 0.20070  0.65560  0.66900  Biso   1.000  O
  O7       1.0000 0.61420  0.40980  0.58980  Biso   1.000  O
  O8       1.0000 0.57790  0.89120  0.68930  Biso   1.000  O
  O9       1.0000 0.33850  0.82080  0.54600  Biso   1.000  O
  O10      1.0000 0.02440  0.88160  0.43860  Biso   1.000  O
  O11      1.0000 0.52210  0.38600  0.11090  Biso   1.000  O
  O12      1.0000 0.28910  0.20020  0.07000  Biso   1.000  O
  O13      1.0000 0.51980  0.88620  0.11670  Biso   1.000  O
  O14      1.0000 0.80710  0.12120  0.17170  Biso   1.000  O
  O15      1.0000 0.28380  0.91120  0.07450  Biso   1.000  O
  O16      1.0000 0.79930  0.34440  0.16900  Biso   1.000  O
  O17      1.0000 0.38580  0.59020  0.08980  Biso   1.000  O
  O18      1.0000 0.42210  0.10880  0.18930  Biso   1.000  O
  O19      1.0000 0.66150  0.17920  0.04600  Biso   1.000  O
  O20      1.0000 0.97560  0.11840  0.93860  Biso   1.000  O
  O21      1.0000 0.13610  0.61400  0.88910  Biso   1.000  O
  O22      1.0000 0.08890  0.79980  0.93000  Biso   1.000  O
  O23      1.0000 0.63360  0.11380  0.88330  Biso   1.000  O
  O24      1.0000 0.68590  0.87880  0.82830  Biso   1.000  O
  O25      1.0000 0.37260  0.08880  0.92550  Biso   1.000  O
  O26      1.0000 0.45490  0.65560  0.83100  Biso   1.000  O
  O27      1.0000 0.79560  0.40980  0.91020  Biso   1.000  O
  O28      1.0000 0.31330  0.89120  0.81070  Biso   1.000  O
  O29      1.0000 0.48230  0.82080  0.95400  Biso   1.000  O
  O30      1.0000 0.85720  0.88160  0.06140  Biso   1.000  O
  O31      1.0000 0.86390  0.38600  0.38910  Biso   1.000  O
  O32      1.0000 0.91110  0.20020  0.43000  Biso   1.000  O
  O33      1.0000 0.36640  0.88620  0.38330  Biso   1.000  O
  O34      1.0000 0.31410  0.12120  0.32830  Biso   1.000  O
  O35      1.0000 0.62740  0.91120  0.42550  Biso   1.000  O
  O36      1.0000 0.54510  0.34440  0.33100  Biso   1.000  O
  O37      1.0000 0.20440  0.59020  0.41020  Biso   1.000  O
  O38      1.0000 0.68670  0.10880  0.31070  Biso   1.000  O
  O39      1.0000 0.51770  0.17920  0.45400  Biso   1.000  O
  O40      1.0000 0.14280  0.11840  0.56140  Biso   1.000  O
  O41      1.0000 0.88390  0.76780  0.75000  Biso   1.000  O
  O42      1.0000 0.11610  0.23220  0.25000  Biso   1.000  O
