data_cg034025wsi20030214_115651_freeONLY
_audit_creation_date              2015-08-19
_audit_creation_method            'Materials Studio'
_symmetry_space_group_name_H-M    'P1'
_symmetry_Int_Tables_number       1
_symmetry_cell_setting            triclinic
loop_
_symmetry_equiv_pos_as_xyz
  x,y,z
_cell_length_a                    8.4570
_cell_length_b                    9.6900
_cell_length_c                    17.2250
_cell_angle_alpha                 90.0000
_cell_angle_beta                  90.0000
_cell_angle_gamma                 112.2200
loop_
_atom_site_label
_atom_site_type_symbol
_atom_site_fract_x
_atom_site_fract_y
_atom_site_fract_z
_atom_site_U_iso_or_equiv
_atom_site_adp_type
_atom_site_occupancy
Er1    Er    0.34421   0.02392   0.25741   0.01267  Uiso   1.00
Er2    Er    0.65579   0.47608   0.75741   0.01267  Uiso   1.00
Er3    Er    0.34421   0.52392   0.24259   0.01267  Uiso   1.00
Er4    Er    0.65579   0.97608   0.74259   0.01267  Uiso   1.00
H1     H     0.85200   0.15200   0.32100   0.01267  Uiso   1.00
H2     H     0.66070   0.83190   0.58960   0.01267  Uiso   1.00
H3     H     0.16000   0.09500   0.73600   0.01267  Uiso   1.00
H4     H     0.41800   0.07900   0.99200   0.01267  Uiso   1.00
H5     H     0.85200   0.65200   0.17900   0.01267  Uiso   1.00
H6     H     0.66070   0.33190   0.91040   0.01267  Uiso   1.00
H7     H     0.58200   0.92100   0.00800   0.01267  Uiso   1.00
H8     H     0.89190   0.20950   0.63100   0.01267  Uiso   1.00
H9     H     0.10810   0.79050   0.36900   0.01267  Uiso   1.00
H10    H     0.41800   0.57900   0.50800   0.01267  Uiso   1.00
H11    H     0.89190   0.70950   0.86900   0.01267  Uiso   1.00
H12    H     0.10810   0.29050   0.13100   0.01267  Uiso   1.00
H13    H     0.14800   0.34800   0.82100   0.01267  Uiso   1.00
H14    H     0.33930   0.16810   0.41040   0.01267  Uiso   1.00
H15    H     0.14800   0.84800   0.67900   0.01267  Uiso   1.00
H16    H     0.17860   0.38150   0.08820   0.01267  Uiso   1.00
H17    H     0.82140   0.11850   0.58820   0.01267  Uiso   1.00
H18    H     0.84000   0.40500   0.23600   0.01267  Uiso   1.00
H19    H     0.82140   0.61850   0.91180   0.01267  Uiso   1.00
H20    H     0.16000   0.59500   0.76400   0.01267  Uiso   1.00
H21    H     0.17860   0.88150   0.41180   0.01267  Uiso   1.00
H22    H     0.84000   0.90500   0.26400   0.01267  Uiso   1.00
H23    H     0.58200   0.42100   0.49200   0.01267  Uiso   1.00
H24    H     0.33930   0.66810   0.08960   0.01267  Uiso   1.00
C1     C     0.81350   0.96140   0.28320   0.01267  Uiso   1.00
C2     C     0.18650   0.53860   0.78320   0.01267  Uiso   1.00
C3     C     0.62900   0.86700   0.28620   0.01267  Uiso   1.00
C4     C     0.37100   0.13300   0.71380   0.01267  Uiso   1.00
C5     C     0.18650   0.03860   0.71680   0.01267  Uiso   1.00
C6     C     0.40570   0.02580   0.09840   0.01267  Uiso   1.00
C7     C     0.44380   0.52810   0.48540   0.01267  Uiso   1.00
C8     C     0.12400   0.89720   0.69940   0.01267  Uiso   1.00
C9     C     0.06260   0.19860   0.28930   0.01267  Uiso   1.00
C10    C     0.55620   0.97190   0.98540   0.01267  Uiso   1.00
C11    C     0.44380   0.02810   0.01460   0.01267  Uiso   1.00
C12    C     0.55620   0.47190   0.51460   0.01267  Uiso   1.00
C13    C     0.12400   0.39720   0.80060   0.01267  Uiso   1.00
C14    C     0.87600   0.60280   0.19940   0.01267  Uiso   1.00
C15    C     0.93740   0.30140   0.78930   0.01267  Uiso   1.00
C16    C     0.06260   0.69860   0.21070   0.01267  Uiso   1.00
C17    C     0.93740   0.80140   0.71070   0.01267  Uiso   1.00
C18    C     0.62900   0.36700   0.21380   0.01267  Uiso   1.00
C19    C     0.87600   0.10280   0.30060   0.01267  Uiso   1.00
C20    C     0.59430   0.97420   0.90160   0.01267  Uiso   1.00
C21    C     0.59430   0.47420   0.59840   0.01267  Uiso   1.00
C22    C     0.37100   0.63300   0.78620   0.01267  Uiso   1.00
C23    C     0.81350   0.46140   0.21680   0.01267  Uiso   1.00
C24    C     0.40570   0.52580   0.40160   0.01267  Uiso   1.00
O1     O     0.16560   0.63880   0.23000   0.01267  Uiso   1.00
O2     O     0.58830   0.73200   0.26880   0.01267  Uiso   1.00
O3     O     0.46410   0.95460   0.14530   0.01267  Uiso   1.00
O4     O     0.10510   0.33620   0.29650   0.01267  Uiso   1.00
O5     O     0.80600   0.13240   0.63700   0.01267  Uiso   1.00
O6     O     0.46410   0.45460   0.35470   0.01267  Uiso   1.00
O7     O     0.42900   0.66250   0.12190   0.01267  Uiso   1.00
O8     O     0.89490   0.66380   0.70350   0.01267  Uiso   1.00
O9     O     0.89490   0.16380   0.79650   0.01267  Uiso   1.00
O10    O     0.47490   0.07610   0.69470   0.01267  Uiso   1.00
O11    O     0.31230   0.59160   0.37780   0.01267  Uiso   1.00
O12    O     0.41170   0.76800   0.76880   0.01267  Uiso   1.00
O13    O     0.47490   0.57610   0.80530   0.01267  Uiso   1.00
O14    O     0.19400   0.86760   0.36300   0.01267  Uiso   1.00
O15    O     0.16560   0.13880   0.27000   0.01267  Uiso   1.00
O16    O     0.57100   0.83750   0.62190   0.01267  Uiso   1.00
O17    O     0.31230   0.09160   0.12220   0.01267  Uiso   1.00
O18    O     0.83440   0.86120   0.73000   0.01267  Uiso   1.00
O19    O     0.57100   0.33750   0.87810   0.01267  Uiso   1.00
O20    O     0.58830   0.23200   0.23120   0.01267  Uiso   1.00
O21    O     0.52510   0.42390   0.19470   0.01267  Uiso   1.00
O22    O     0.19400   0.36760   0.13700   0.01267  Uiso   1.00
O23    O     0.42900   0.16250   0.37810   0.01267  Uiso   1.00
O24    O     0.52510   0.92390   0.30530   0.01267  Uiso   1.00
O25    O     0.68770   0.40840   0.62220   0.01267  Uiso   1.00
O26    O     0.68770   0.90840   0.87780   0.01267  Uiso   1.00
O27    O     0.10510   0.83620   0.20350   0.01267  Uiso   1.00
O28    O     0.53590   0.54540   0.64530   0.01267  Uiso   1.00
O29    O     0.80600   0.63240   0.86300   0.01267  Uiso   1.00
O30    O     0.83440   0.36120   0.77000   0.01267  Uiso   1.00
O31    O     0.53590   0.04540   0.85470   0.01267  Uiso   1.00
O32    O     0.41170   0.26800   0.73120   0.01267  Uiso   1.00
