data_cg0702636-file001_freeONLY
_audit_creation_date              2015-08-19
_audit_creation_method            'Materials Studio'
_symmetry_space_group_name_H-M    'P1'
_symmetry_Int_Tables_number       1
_symmetry_cell_setting            triclinic
loop_
_symmetry_equiv_pos_as_xyz
  x,y,z
_cell_length_a                    9.1907
_cell_length_b                    9.1907
_cell_length_c                    12.7590
_cell_angle_alpha                 90.0000
_cell_angle_beta                  90.0000
_cell_angle_gamma                 120.0000
loop_
_atom_site_label
_atom_site_type_symbol
_atom_site_fract_x
_atom_site_fract_y
_atom_site_fract_z
_atom_site_U_iso_or_equiv
_atom_site_adp_type
_atom_site_occupancy
Cd1    Cd    0.63735  -0.00000   0.00000   0.01267  Uiso   1.00
Cd2    Cd    0.00000   0.63735   0.33333   0.01267  Uiso   1.00
Cd3    Cd    0.36265   0.36265   0.66667   0.01267  Uiso   1.00
H1     H     0.96380   0.79430   0.54947   0.01267  Uiso   1.00
H2     H     0.83050   0.03620   0.21613   0.01267  Uiso   1.00
H3     H     0.79430   0.96380   0.78387   0.01267  Uiso   1.00
H4     H     0.16950   0.20570   0.45053   0.01267  Uiso   1.00
H5     H     0.03620   0.83050   0.11720   0.01267  Uiso   1.00
H6     H     0.20570   0.16950   0.88280   0.01267  Uiso   1.00
C1     C     0.07120   0.07120   0.66667   0.01267  Uiso   1.00
C2     C     0.88000   0.77970   0.59632   0.01267  Uiso   1.00
C3     C     0.68030   0.48350   0.52295   0.01267  Uiso   1.00
C4     C     0.48350   0.68030   0.81039   0.01267  Uiso   1.00
C5     C     0.63100   0.72590   0.73581   0.01267  Uiso   1.00
C6     C     0.09490   0.36900   0.40247   0.01267  Uiso   1.00
C7     C     0.90580   0.90580   0.66667   0.01267  Uiso   1.00
C8     C     0.12000   0.89970   0.07035   0.01267  Uiso   1.00
C9     C     0.22030   0.10030   0.92965   0.01267  Uiso   1.00
C10    C     0.51650   0.19680   0.85628   0.01267  Uiso   1.00
C11    C     0.72590   0.63100   0.59753   0.01267  Uiso   1.00
C12    C     0.00000   0.92880   0.33333   0.01267  Uiso   1.00
C13    C     0.92880  -0.00000   0.00000   0.01267  Uiso   1.00
C14    C     0.77970   0.88000   0.73702   0.01267  Uiso   1.00
C15    C     0.80320   0.31970   0.18961   0.01267  Uiso   1.00
C16    C     0.89970   0.12000   0.26298   0.01267  Uiso   1.00
C17    C     0.90510   0.27410   0.26419   0.01267  Uiso   1.00
C18    C     0.27410   0.90510   0.06914   0.01267  Uiso   1.00
C19    C     0.36900   0.09490   0.93086   0.01267  Uiso   1.00
C20    C     0.00000   0.09420   0.33333   0.01267  Uiso   1.00
C21    C     0.09420  -0.00000   0.00000   0.01267  Uiso   1.00
C22    C     0.10030   0.22030   0.40368   0.01267  Uiso   1.00
C23    C     0.19680   0.51650   0.47705   0.01267  Uiso   1.00
C24    C     0.31970   0.80320   0.14372   0.01267  Uiso   1.00
N1     N     0.60760   0.60760   0.66667   0.01267  Uiso   1.00
N2     N     0.00000   0.39240   0.33333   0.01267  Uiso   1.00
N3     N     0.39240   0.00000   0.00000   0.01267  Uiso   1.00
O1     O     0.35610   0.53990   0.79814   0.01267  Uiso   1.00
O2     O     0.64390   0.18380   0.86853   0.01267  Uiso   1.00
O3     O     0.92439   0.11859   0.95657   0.01267  Uiso   1.00
O4     O     0.88141   0.80580   0.28990   0.01267  Uiso   1.00
O5     O     0.53990   0.35610   0.53520   0.01267  Uiso   1.00
O6     O     0.19420   0.07561   0.62324   0.01267  Uiso   1.00
O7     O     0.49920   0.78560   0.87572   0.01267  Uiso   1.00
O8     O     0.07561   0.19420   0.71010   0.01267  Uiso   1.00
O9     O     0.28640   0.50080   0.54238   0.01267  Uiso   1.00
O10    O     0.78560   0.49920   0.45762   0.01267  Uiso   1.00
O11    O     0.11859   0.92439   0.37676   0.01267  Uiso   1.00
O12    O     0.80580   0.88141   0.04343   0.01267  Uiso   1.00
O13    O     0.50080   0.28640   0.79095   0.01267  Uiso   1.00
O14    O     0.81620   0.46010   0.20186   0.01267  Uiso   1.00
O15    O     0.18380   0.64390   0.46480   0.01267  Uiso   1.00
O16    O     0.21440   0.71360   0.20905   0.01267  Uiso   1.00
O17    O     0.71360   0.21440   0.12428   0.01267  Uiso   1.00
O18    O     0.46010   0.81620   0.13147   0.01267  Uiso   1.00
