data_cg200332y_si_002_freeONLY
_audit_creation_date              2015-08-19
_audit_creation_method            'Materials Studio'
_symmetry_space_group_name_H-M    'P1'
_symmetry_Int_Tables_number       1
_symmetry_cell_setting            triclinic
loop_
_symmetry_equiv_pos_as_xyz
  x,y,z
_cell_length_a                    8.4770
_cell_length_b                    8.7950
_cell_length_c                    8.9290
_cell_angle_alpha                 92.2480
_cell_angle_beta                  95.8250
_cell_angle_gamma                 98.0760
loop_
_atom_site_label
_atom_site_type_symbol
_atom_site_fract_x
_atom_site_fract_y
_atom_site_fract_z
_atom_site_U_iso_or_equiv
_atom_site_adp_type
_atom_site_occupancy
Ga1    Ga    0.01132   0.48296   0.25211   0.01267  Uiso   1.00
Ga2    Ga    0.98868   0.51704   0.74789   0.01267  Uiso   1.00
P1     P     0.23569   0.56332   0.53090   0.01267  Uiso   1.00
P2     P     0.99446   0.73159   0.01901   0.01267  Uiso   1.00
P3     P     0.76431   0.43668   0.46910   0.01267  Uiso   1.00
P4     P     0.00554   0.26841   0.98099   0.01267  Uiso   1.00
H1     H     0.00000   0.00000   0.00000   0.01267  Uiso   1.00
H2     H     0.50000   0.50000   0.50000   0.01267  Uiso   1.00
O1     O     0.41811   0.57650   0.56685   0.01267  Uiso   1.00
O2     O     0.17730   0.71519   0.52304   0.01267  Uiso   1.00
O3     O     0.08270   0.63926   0.13644   0.01267  Uiso   1.00
O4     O     0.82270   0.28481   0.47696   0.01267  Uiso   1.00
O5     O     0.18252   0.30270   0.98361   0.01267  Uiso   1.00
O6     O     0.16074   0.47087   0.65759   0.01267  Uiso   1.00
O7     O     0.93693   0.09956   0.93595   0.01267  Uiso   1.00
O8     O     0.81748   0.69730   0.01639   0.01267  Uiso   1.00
O9     O     0.94995   0.30463   0.13687   0.01267  Uiso   1.00
O10    O     0.81094   0.53706   0.61908   0.01267  Uiso   1.00
O11    O     0.91730   0.36074   0.86356   0.01267  Uiso   1.00
O12    O     0.06307   0.90044   0.06405   0.01267  Uiso   1.00
O13    O     0.05005   0.69537   0.86313   0.01267  Uiso   1.00
O14    O     0.58189   0.42350   0.43315   0.01267  Uiso   1.00
O15    O     0.18906   0.46294   0.38092   0.01267  Uiso   1.00
O16    O     0.83926   0.52913   0.34241   0.01267  Uiso   1.00
