data_cg200606r_si_001_freeONLY
_audit_creation_date              2015-08-19
_audit_creation_method            'Materials Studio'
_symmetry_space_group_name_H-M    'P1'
_symmetry_Int_Tables_number       1
_symmetry_cell_setting            triclinic
loop_
_symmetry_equiv_pos_as_xyz
  x,y,z
_cell_length_a                    8.1331
_cell_length_b                    14.6556
_cell_length_c                    16.8257
_cell_angle_alpha                 90.0000
_cell_angle_beta                  90.0000
_cell_angle_gamma                 90.0000
loop_
_atom_site_label
_atom_site_type_symbol
_atom_site_fract_x
_atom_site_fract_y
_atom_site_fract_z
_atom_site_U_iso_or_equiv
_atom_site_adp_type
_atom_site_occupancy
Zn1    Zn    0.43975   0.52751   0.04525   0.01267  Uiso   1.00
Zn2    Zn    0.93975   0.97249   0.95475   0.01267  Uiso   1.00
Zn3    Zn    0.06025   0.47249   0.54525   0.01267  Uiso   1.00
Zn4    Zn    0.56025   0.02751   0.45475   0.01267  Uiso   1.00
H1     H     0.89600   0.72180   0.67960   0.01267  Uiso   1.00
H2     H     0.55330   0.96850   0.91280   0.01267  Uiso   1.00
H3     H     0.81760   0.49870   0.27490   0.01267  Uiso   1.00
H4     H     0.97950   0.42220   0.88130   0.01267  Uiso   1.00
H5     H     0.68240   0.50130   0.77490   0.01267  Uiso   1.00
H6     H     0.02050   0.92220   0.61870   0.01267  Uiso   1.00
H7     H     0.83870   0.48420   0.00100   0.01267  Uiso   1.00
H8     H     0.23280   0.56700   0.39780   0.01267  Uiso   1.00
H9     H     0.26720   0.43300   0.89780   0.01267  Uiso   1.00
H10    H     0.17340   0.76010   0.10860   0.01267  Uiso   1.00
H11    H     0.73280   0.93300   0.60220   0.01267  Uiso   1.00
H12    H     0.05330   0.53150   0.08720   0.01267  Uiso   1.00
H13    H     0.39600   0.77820   0.32040   0.01267  Uiso   1.00
H14    H     0.16130   0.98420   0.49900   0.01267  Uiso   1.00
H15    H     0.33870   0.01580   0.99900   0.01267  Uiso   1.00
H16    H     0.44670   0.46850   0.58720   0.01267  Uiso   1.00
H17    H     0.76720   0.06700   0.10220   0.01267  Uiso   1.00
H18    H     0.52050   0.57780   0.38130   0.01267  Uiso   1.00
H19    H     0.18240   0.99870   0.22510   0.01267  Uiso   1.00
H20    H     0.66130   0.51580   0.50100   0.01267  Uiso   1.00
H21    H     0.60400   0.27820   0.17960   0.01267  Uiso   1.00
H22    H     0.94670   0.03150   0.41280   0.01267  Uiso   1.00
H23    H     0.82660   0.26010   0.39140   0.01267  Uiso   1.00
H24    H     0.67340   0.73990   0.89140   0.01267  Uiso   1.00
H25    H     0.31760   0.00130   0.72510   0.01267  Uiso   1.00
H26    H     0.47950   0.07780   0.11870   0.01267  Uiso   1.00
H27    H     0.32660   0.23990   0.60860   0.01267  Uiso   1.00
H28    H     0.10400   0.22180   0.82040   0.01267  Uiso   1.00
C1     C     0.43110   0.49440   0.53730   0.01267  Uiso   1.00
C2     C     0.28760   0.75449   0.21395   0.01267  Uiso   1.00
C3     C     0.68720   0.04820   0.06620   0.01267  Uiso   1.00
C4     C     0.45100   0.02000   0.00890   0.01267  Uiso   1.00
C5     C     0.65200   0.45601   0.14700   0.01267  Uiso   1.00
C6     C     0.56890   0.99440   0.96270   0.01267  Uiso   1.00
C7     C     0.29590   0.89773   0.28354   0.01267  Uiso   1.00
C8     C     0.18720   0.45180   0.93380   0.01267  Uiso   1.00
C9     C     0.28910   0.06267   0.72199   0.01267  Uiso   1.00
C10    C     0.79590   0.60227   0.71646   0.01267  Uiso   1.00
C11    C     0.04900   0.98000   0.50890   0.01267  Uiso   1.00
C12    C     0.91430   0.43270   0.41389   0.01267  Uiso   1.00
C13    C     0.95100   0.48000   0.99110   0.01267  Uiso   1.00
C14    C     0.15200   0.04399   0.85300   0.01267  Uiso   1.00
C15    C     0.33660   0.80549   0.27956   0.01267  Uiso   1.00
C16    C     0.20460   0.79475   0.15237   0.01267  Uiso   1.00
C17    C     0.31280   0.54820   0.43380   0.01267  Uiso   1.00
C18    C     0.21240   0.24551   0.71395   0.01267  Uiso   1.00
C19    C     0.54900   0.52000   0.49110   0.01267  Uiso   1.00
C20    C     0.41430   0.06730   0.58611   0.01267  Uiso   1.00
C21    C     0.34800   0.95601   0.35300   0.01267  Uiso   1.00
C22    C     0.81280   0.95180   0.56620   0.01267  Uiso   1.00
C23    C     0.83660   0.69451   0.72044   0.01267  Uiso   1.00
C24    C     0.16670   0.88743   0.15514   0.01267  Uiso   1.00
C25    C     0.21090   0.93733   0.22199   0.01267  Uiso   1.00
C26    C     0.08570   0.93270   0.08611   0.01267  Uiso   1.00
C27    C     0.33330   0.11257   0.65514   0.01267  Uiso   1.00
C28    C     0.16340   0.19451   0.77956   0.01267  Uiso   1.00
C29    C     0.78760   0.74551   0.78605   0.01267  Uiso   1.00
C30    C     0.06890   0.50560   0.03730   0.01267  Uiso   1.00
C31    C     0.71240   0.25449   0.28605   0.01267  Uiso   1.00
C32    C     0.20410   0.10227   0.78354   0.01267  Uiso   1.00
C33    C     0.66340   0.30549   0.22044   0.01267  Uiso   1.00
C34    C     0.58570   0.56730   0.91389   0.01267  Uiso   1.00
C35    C     0.29540   0.20525   0.65237   0.01267  Uiso   1.00
C36    C     0.70460   0.70525   0.84763   0.01267  Uiso   1.00
C37    C     0.79540   0.29475   0.34763   0.01267  Uiso   1.00
C38    C     0.83330   0.38743   0.34486   0.01267  Uiso   1.00
C39    C     0.84800   0.54399   0.64700   0.01267  Uiso   1.00
C40    C     0.78910   0.43733   0.27801   0.01267  Uiso   1.00
C41    C     0.93110   0.00560   0.46270   0.01267  Uiso   1.00
C42    C     0.70410   0.39773   0.21646   0.01267  Uiso   1.00
C43    C     0.66670   0.61257   0.84486   0.01267  Uiso   1.00
C44    C     0.71090   0.56267   0.77801   0.01267  Uiso   1.00
S1     S     0.66898   0.13599   0.28981   0.01267  Uiso   1.00
S2     S     0.33102   0.63599   0.21019   0.01267  Uiso   1.00
S3     S     0.16898   0.36401   0.71019   0.01267  Uiso   1.00
S4     S     0.83102   0.86401   0.78981   0.01267  Uiso   1.00
N1     N     0.78190   0.99016   0.49560   0.01267  Uiso   1.00
N2     N     0.28190   0.50984   0.50440   0.01267  Uiso   1.00
N3     N     0.71810   0.00984   0.99560   0.01267  Uiso   1.00
N4     N     0.97230   0.94440   0.57760   0.01267  Uiso   1.00
N5     N     0.02770   0.44440   0.92240   0.01267  Uiso   1.00
N6     N     0.47230   0.55560   0.42240   0.01267  Uiso   1.00
N7     N     0.52770   0.05560   0.07760   0.01267  Uiso   1.00
N8     N     0.21810   0.49016   0.00440   0.01267  Uiso   1.00
O1     O     0.96790   0.38246   0.46927   0.01267  Uiso   1.00
O2     O     0.02540   0.37912   0.75922   0.01267  Uiso   1.00
O3     O     0.57290   0.48314   0.91627   0.01267  Uiso   1.00
O4     O     0.63670   0.12159   0.37415   0.01267  Uiso   1.00
O5     O     0.52540   0.12088   0.24078   0.01267  Uiso   1.00
O6     O     0.77330   0.47394   0.63137   0.01267  Uiso   1.00
O7     O     0.52480   0.42780   0.10951   0.01267  Uiso   1.00
O8     O     0.97520   0.57220   0.60951   0.01267  Uiso   1.00
O9     O     0.72670   0.52606   0.13137   0.01267  Uiso   1.00
O10    O     0.18650   0.58923   0.23653   0.01267  Uiso   1.00
O11    O     0.53210   0.61754   0.96927   0.01267  Uiso   1.00
O12    O     0.97460   0.87912   0.74078   0.01267  Uiso   1.00
O13    O     0.22670   0.97394   0.86863   0.01267  Uiso   1.00
O14    O     0.31350   0.41077   0.73653   0.01267  Uiso   1.00
O15    O     0.92710   0.51686   0.41627   0.01267  Uiso   1.00
O16    O     0.47520   0.92780   0.39049   0.01267  Uiso   1.00
O17    O     0.36330   0.62159   0.12585   0.01267  Uiso   1.00
O18    O     0.02480   0.07220   0.89049   0.01267  Uiso   1.00
O19    O     0.13670   0.37841   0.62585   0.01267  Uiso   1.00
O20    O     0.47460   0.62088   0.25922   0.01267  Uiso   1.00
O21    O     0.46790   0.11754   0.53073   0.01267  Uiso   1.00
O22    O     0.07290   0.01686   0.08373   0.01267  Uiso   1.00
O23    O     0.68650   0.91077   0.76347   0.01267  Uiso   1.00
O24    O     0.27330   0.02606   0.36863   0.01267  Uiso   1.00
O25    O     0.81350   0.08923   0.26347   0.01267  Uiso   1.00
O26    O     0.42710   0.98314   0.58373   0.01267  Uiso   1.00
O27    O     0.03210   0.88246   0.03073   0.01267  Uiso   1.00
O28    O     0.86330   0.87841   0.87415   0.01267  Uiso   1.00
