data_image0
_cell_length_a       7.1364
_cell_length_b       11.4297
_cell_length_c       11.7485
_cell_angle_alpha    62.658
_cell_angle_beta     75.568
_cell_angle_gamma    88.56

_symmetry_space_group_name_H-M    "P 1"
_symmetry_int_tables_number       1

loop_
  _symmetry_equiv_pos_as_xyz
  'x, y, z'

loop_
  _atom_site_label
  _atom_site_occupancy
  _atom_site_fract_x
  _atom_site_fract_y
  _atom_site_fract_z
  _atom_site_thermal_displace_type
  _atom_site_B_iso_or_equiv
  _atom_site_type_symbol
  Cu1      1.0000 0.87997  0.71930  0.35633  Biso   1.000  Cu
  Cl1      1.0000 0.21300  0.31359  0.09614  Biso   1.000  Cl
  K1       1.0000 0.23290  0.07700  0.99680  Biso   1.000  K
  S1       1.0000 0.30190  0.84387  0.89990  Biso   1.000  S
  O1       1.0000 0.14200  0.92770  0.88150  Biso   1.000  O
  O2       1.0000 0.44340  0.89160  0.94140  Biso   1.000  O
  O3       1.0000 0.38360  0.82270  0.78630  Biso   1.000  O
  O4       1.0000 0.42390  0.26720  0.75430  Biso   1.000  O
  O5       1.0000 0.71470  0.64840  0.53320  Biso   1.000  O
  O6       1.0000 0.88900  0.89020  0.35240  Biso   1.000  O
  H1       1.0000 0.84320  0.90270  0.41510  Biso   1.000  H
  H2       1.0000 0.90160  0.95440  0.27970  Biso   1.000  H
  O7       1.0000 0.04520  0.77870  0.17910  Biso   1.000  O
  N1       1.0000 0.88870  0.54640  0.37180  Biso   1.000  N
  N2       1.0000 0.79930  0.43460  0.46510  Biso   1.000  N
  C1       1.0000 0.08230  0.67840  0.15430  Biso   1.000  C
  C2       1.0000 0.19570  0.68730  0.03370  Biso   1.000  C
  C3       1.0000 0.23110  0.57650  0.01430  Biso   1.000  C
  H3       1.0000 0.30740  0.58620  0.93110  Biso   1.000  H
  C4       1.0000 0.15380  0.45200  0.11780  Biso   1.000  C
  C5       1.0000 0.03880  0.43670  0.23780  Biso   1.000  C
  H4       1.0000 0.98300  0.35140  0.30740  Biso   1.000  H
  C6       1.0000 0.00660  0.54770  0.25500  Biso   1.000  C
  C7       1.0000 0.67260  0.42480  0.57870  Biso   1.000  C
  C8       1.0000 0.56840  0.29020  0.66150  Biso   1.000  C
  C9       1.0000 0.63340  0.18410  0.62540  Biso   1.000  C
  H5       1.0000 0.56540  0.09850  0.69620  Biso   1.000  H
  H6       1.0000 0.77400  0.18150  0.61410  Biso   1.000  H
  H7       1.0000 0.60380  0.20250  0.54200  Biso   1.000  H
  C10      1.0000 0.63670  0.52980  0.61040  Biso   1.000  C
  C11      1.0000 0.50390  0.51180  0.73950  Biso   1.000  C
  H8       1.0000 0.52810  0.58830  0.75240  Biso   1.000  H
  H9       1.0000 0.52850  0.43110  0.81280  Biso   1.000  H
  H10      1.0000 0.36830  0.50420  0.73770  Biso   1.000  H
  Cu2      1.0000 0.12003  0.28070  0.64367  Biso   1.000  Cu
  Cl2      1.0000 0.78700  0.68641  0.90386  Biso   1.000  Cl
  K2       1.0000 0.76710  0.92300  0.00320  Biso   1.000  K
  S2       1.0000 0.69810  0.15613  0.10010  Biso   1.000  S
  O8       1.0000 0.85800  0.07230  0.11850  Biso   1.000  O
  O9       1.0000 0.55660  0.10840  0.05860  Biso   1.000  O
  O10      1.0000 0.61640  0.17730  0.21370  Biso   1.000  O
  O11      1.0000 0.57610  0.73280  0.24570  Biso   1.000  O
  O12      1.0000 0.28530  0.35160  0.46680  Biso   1.000  O
  O13      1.0000 0.11100  0.10980  0.64760  Biso   1.000  O
  H11      1.0000 0.15680  0.09730  0.58490  Biso   1.000  H
  H12      1.0000 0.09840  0.04560  0.72030  Biso   1.000  H
  O14      1.0000 0.95480  0.22130  0.82090  Biso   1.000  O
  N3       1.0000 0.11130  0.45360  0.62820  Biso   1.000  N
  N4       1.0000 0.20070  0.56540  0.53490  Biso   1.000  N
  C12      1.0000 0.91770  0.32160  0.84570  Biso   1.000  C
  C13      1.0000 0.80430  0.31270  0.96630  Biso   1.000  C
  C14      1.0000 0.76890  0.42350  0.98570  Biso   1.000  C
  H13      1.0000 0.69260  0.41380  0.06890  Biso   1.000  H
  C15      1.0000 0.84620  0.54800  0.88220  Biso   1.000  C
  C16      1.0000 0.96120  0.56330  0.76220  Biso   1.000  C
  H14      1.0000 0.01700  0.64860  0.69260  Biso   1.000  H
  C17      1.0000 0.99340  0.45230  0.74500  Biso   1.000  C
  C18      1.0000 0.32740  0.57520  0.42130  Biso   1.000  C
  C19      1.0000 0.43160  0.70980  0.33850  Biso   1.000  C
  C20      1.0000 0.36660  0.81590  0.37460  Biso   1.000  C
  H15      1.0000 0.43460  0.90150  0.30380  Biso   1.000  H
  H16      1.0000 0.22600  0.81850  0.38590  Biso   1.000  H
  H17      1.0000 0.39620  0.79750  0.45800  Biso   1.000  H
  C21      1.0000 0.36330  0.47020  0.38960  Biso   1.000  C
  C22      1.0000 0.49610  0.48820  0.26050  Biso   1.000  C
  H18      1.0000 0.47190  0.41170  0.24760  Biso   1.000  H
  H19      1.0000 0.47150  0.56890  0.18720  Biso   1.000  H
  H20      1.0000 0.63170  0.49580  0.26230  Biso   1.000  H
