data_cg300302n_si_004_freeONLY
_audit_creation_date              2015-08-19
_audit_creation_method            'Materials Studio'
_symmetry_space_group_name_H-M    'P1'
_symmetry_Int_Tables_number       1
_symmetry_cell_setting            triclinic
loop_
_symmetry_equiv_pos_as_xyz
  x,y,z
_cell_length_a                    6.2985
_cell_length_b                    14.3520
_cell_length_c                    14.3520
_cell_angle_alpha                 90.0000
_cell_angle_beta                  90.0000
_cell_angle_gamma                 90.0000
loop_
_atom_site_label
_atom_site_type_symbol
_atom_site_fract_x
_atom_site_fract_y
_atom_site_fract_z
_atom_site_U_iso_or_equiv
_atom_site_adp_type
_atom_site_occupancy
Co1    Co    0.50000   0.00000   0.00000   0.01267  Uiso   1.00
Co2    Co    0.00000   0.50000   0.50000   0.01267  Uiso   1.00
H1     H     0.36690   0.34270   0.46630   0.01267  Uiso   1.00
H2     H     0.83470   0.30640   0.96380   0.01267  Uiso   1.00
H3     H     0.66200   0.79420   0.41560   0.01267  Uiso   1.00
H4     H     0.83470   0.69360   0.03620   0.01267  Uiso   1.00
H5     H     0.98780   0.71220   0.84810   0.01267  Uiso   1.00
H6     H     0.63310   0.46630   0.65730   0.01267  Uiso   1.00
H7     H     0.41940   0.04190   0.78630   0.01267  Uiso   1.00
H8     H     0.28890   0.80030   0.38150   0.01267  Uiso   1.00
H9     H     0.07980   0.50530   0.28580   0.01267  Uiso   1.00
H10    H     0.33800   0.41560   0.20580   0.01267  Uiso   1.00
H11    H     0.16530   0.96380   0.69360   0.01267  Uiso   1.00
H12    H     0.58060   0.21370   0.04190   0.01267  Uiso   1.00
H13    H     0.36690   0.65730   0.53370   0.01267  Uiso   1.00
H14    H     0.80380   0.09020   0.33140   0.01267  Uiso   1.00
H15    H     0.16530   0.03620   0.30640   0.01267  Uiso   1.00
H16    H     0.52950   0.18350   0.38130   0.01267  Uiso   1.00
H17    H     0.19620   0.33140   0.90980   0.01267  Uiso   1.00
H18    H     0.47050   0.61870   0.18350   0.01267  Uiso   1.00
H19    H     0.71110   0.38150   0.19970   0.01267  Uiso   1.00
H20    H     0.19620   0.66860   0.09020   0.01267  Uiso   1.00
H21    H     0.98780   0.28780   0.15190   0.01267  Uiso   1.00
H22    H     0.85900   0.06240   0.84980   0.01267  Uiso   1.00
H23    H     0.63310   0.53370   0.34270   0.01267  Uiso   1.00
H24    H     0.41940   0.95810   0.21370   0.01267  Uiso   1.00
H25    H     0.71110   0.61850   0.80030   0.01267  Uiso   1.00
H26    H     0.80380   0.90980   0.66860   0.01267  Uiso   1.00
H27    H     0.33800   0.58440   0.79420   0.01267  Uiso   1.00
H28    H     0.58060   0.78630   0.95810   0.01267  Uiso   1.00
H29    H     0.14100   0.84980   0.93760   0.01267  Uiso   1.00
H30    H     0.28890   0.19970   0.61850   0.01267  Uiso   1.00
H31    H     0.52950   0.81650   0.61870   0.01267  Uiso   1.00
H32    H     0.14100   0.15020   0.06240   0.01267  Uiso   1.00
H33    H     0.85900   0.93760   0.15020   0.01267  Uiso   1.00
H34    H     0.01220   0.84810   0.28780   0.01267  Uiso   1.00
H35    H     0.92020   0.71420   0.50530   0.01267  Uiso   1.00
H36    H     0.47050   0.38130   0.81650   0.01267  Uiso   1.00
H37    H     0.07980   0.49470   0.71420   0.01267  Uiso   1.00
H38    H     0.66200   0.20580   0.58440   0.01267  Uiso   1.00
H39    H     0.92020   0.28580   0.49470   0.01267  Uiso   1.00
H40    H     0.01220   0.15190   0.71220   0.01267  Uiso   1.00
C1     C     0.37990   0.33470   0.79540   0.01267  Uiso   1.00
C2     C     0.66820   0.80540   0.00670   0.01267  Uiso   1.00
C3     C     0.17840   0.88750   0.88750   0.01267  Uiso   1.00
C4     C     0.82970   0.31210   0.53870   0.01267  Uiso   1.00
C5     C     0.78520   0.14860   0.30460   0.01267  Uiso   1.00
C6     C     0.82160   0.88750   0.11250   0.01267  Uiso   1.00
C7     C     0.67140   0.58930   0.37130   0.01267  Uiso   1.00
C8     C     0.62010   0.79540   0.66530   0.01267  Uiso   1.00
C9     C     0.90740   0.80170   0.11790   0.01267  Uiso   1.00
C10    C     0.21480   0.69540   0.14860   0.01267  Uiso   1.00
C11    C     0.89450   0.73360   0.80270   0.01267  Uiso   1.00
C12    C     0.62010   0.20460   0.33470   0.01267  Uiso   1.00
C13    C     0.58520   0.32640   0.64710   0.01267  Uiso   1.00
C14    C     0.32860   0.37130   0.41070   0.01267  Uiso   1.00
C15    C     0.90740   0.19830   0.88210   0.01267  Uiso   1.00
C16    C     0.07670   0.76460   0.17760   0.01267  Uiso   1.00
C17    C     0.78520   0.85140   0.69540   0.01267  Uiso   1.00
C18    C     0.82160   0.11250   0.88750   0.01267  Uiso   1.00
C19    C     0.41480   0.64710   0.67360   0.01267  Uiso   1.00
C20    C     0.27090   0.77360   0.32300   0.01267  Uiso   1.00
C21    C     0.09260   0.88210   0.80170   0.01267  Uiso   1.00
C22    C     0.09260   0.11790   0.19830   0.01267  Uiso   1.00
C23    C     0.17840   0.11250   0.11250   0.01267  Uiso   1.00
C24    C     0.58900   0.29250   0.29550   0.01267  Uiso   1.00
C25    C     0.07670   0.23540   0.82240   0.01267  Uiso   1.00
C26    C     0.92330   0.17760   0.23540   0.01267  Uiso   1.00
C27    C     0.89450   0.26640   0.19730   0.01267  Uiso   1.00
C28    C     0.33180   0.00670   0.19460   0.01267  Uiso   1.00
C29    C     0.58900   0.70750   0.70450   0.01267  Uiso   1.00
C30    C     0.32860   0.62870   0.58930   0.01267  Uiso   1.00
C31    C     0.58520   0.67360   0.35290   0.01267  Uiso   1.00
C32    C     0.10550   0.80270   0.26640   0.01267  Uiso   1.00
C33    C     0.72910   0.67700   0.77360   0.01267  Uiso   1.00
C34    C     0.37990   0.66530   0.20460   0.01267  Uiso   1.00
C35    C     0.41480   0.35290   0.32640   0.01267  Uiso   1.00
C36    C     0.92330   0.82240   0.76460   0.01267  Uiso   1.00
C37    C     0.67140   0.41070   0.62870   0.01267  Uiso   1.00
C38    C     0.21480   0.30460   0.85140   0.01267  Uiso   1.00
C39    C     0.10550   0.19730   0.73360   0.01267  Uiso   1.00
C40    C     0.66820   0.19460   0.99330   0.01267  Uiso   1.00
C41    C     0.17030   0.53870   0.68790   0.01267  Uiso   1.00
C42    C     0.41100   0.29550   0.70750   0.01267  Uiso   1.00
C43    C     0.17030   0.46130   0.31210   0.01267  Uiso   1.00
C44    C     0.27090   0.22640   0.67700   0.01267  Uiso   1.00
C45    C     0.41100   0.70450   0.29250   0.01267  Uiso   1.00
C46    C     0.33180   0.99330   0.80540   0.01267  Uiso   1.00
C47    C     0.72910   0.32300   0.22640   0.01267  Uiso   1.00
C48    C     0.82970   0.68790   0.46130   0.01267  Uiso   1.00
N1     N     0.33050   0.04271   0.10948   0.01267  Uiso   1.00
N2     N     0.19070   0.95060   0.75102   0.01267  Uiso   1.00
N3     N     0.33050   0.95729   0.89052   0.01267  Uiso   1.00
N4     N     0.82540   0.40141   0.56058   0.01267  Uiso   1.00
N5     N     0.82540   0.59859   0.43942   0.01267  Uiso   1.00
N6     N     0.31330   0.58833   0.73542   0.01267  Uiso   1.00
N7     N     0.31330   0.41167   0.26458   0.01267  Uiso   1.00
N8     N     0.68670   0.73542   0.41167   0.01267  Uiso   1.00
N9     N     0.80930   0.75102   0.04940   0.01267  Uiso   1.00
N10    N     0.17460   0.43942   0.40141   0.01267  Uiso   1.00
N11    N     0.66950   0.89052   0.04271   0.01267  Uiso   1.00
N12    N     0.68670   0.26458   0.58833   0.01267  Uiso   1.00
N13    N     0.17460   0.56058   0.59859   0.01267  Uiso   1.00
N14    N     0.66950   0.10948   0.95729   0.01267  Uiso   1.00
N15    N     0.19070   0.04940   0.24898   0.01267  Uiso   1.00
N16    N     0.80930   0.24898   0.95060   0.01267  Uiso   1.00
