data_image0
_cell_length_a       25.2913
_cell_length_b       33.509
_cell_length_c       18.681
_cell_angle_alpha    90
_cell_angle_beta     90
_cell_angle_gamma    90

_symmetry_space_group_name_H-M    "P 1"
_symmetry_int_tables_number       1

loop_
  _symmetry_equiv_pos_as_xyz
  'x, y, z'

loop_
  _atom_site_label
  _atom_site_occupancy
  _atom_site_fract_x
  _atom_site_fract_y
  _atom_site_fract_z
  _atom_site_thermal_displace_type
  _atom_site_B_iso_or_equiv
  _atom_site_type_symbol
  C1       1.0000 0.88156  0.60497  0.10593  Biso   1.000  C
  C2       1.0000 0.86122  0.64185  0.08524  Biso   1.000  C
  H1       1.0000 0.87740  0.66530  0.10050  Biso   1.000  H
  C3       1.0000 0.81775  0.64353  0.04275  Biso   1.000  C
  C4       1.0000 0.79311  0.60892  0.01929  Biso   1.000  C
  H2       1.0000 0.76360  0.61040  0.98970  Biso   1.000  H
  C5       1.0000 0.81304  0.57174  0.04050  Biso   1.000  C
  C6       1.0000 0.85727  0.57007  0.08446  Biso   1.000  C
  H3       1.0000 0.87050  0.54550  0.09940  Biso   1.000  H
  C7       1.0000 0.92783  0.60366  0.15667  Biso   1.000  C
  C8       1.0000 0.79379  0.68296  0.02236  Biso   1.000  C
  C9       1.0000 0.78604  0.53401  0.01973  Biso   1.000  C
  C10      1.0000 0.73153  0.53356  0.01976  Biso   1.000  C
  H4       1.0000 0.71300  0.55630  0.03340  Biso   1.000  H
  C11      1.0000 0.17347  0.23252  0.18565  Biso   1.000  C
  C12      1.0000 0.12458  0.21365  0.18553  Biso   1.000  C
  H5       1.0000 0.10810  0.20700  0.14270  Biso   1.000  H
  C13      1.0000 0.20142  0.24074  0.11566  Biso   1.000  C
  Cu1      1.0000 0.21121  0.23194  0.96484  Biso   1.000  Cu
  O1       1.0000 0.94497  0.57076  0.17648  Biso   1.000  O
  O2       1.0000 0.94527  0.63645  0.17711  Biso   1.000  O
  O3       1.0000 0.75195  0.68359  0.98768  Biso   1.000  O
  O4       1.0000 0.81663  0.71399  0.04748  Biso   1.000  O
  O5       1.0000 0.17892  0.22875  0.06085  Biso   1.000  O
  O6       1.0000 0.24435  0.25858  0.11894  Biso   1.000  O
  C14      1.0000 0.38156  0.10497  0.10593  Biso   1.000  C
  C15      1.0000 0.36122  0.14185  0.08524  Biso   1.000  C
  H6       1.0000 0.37740  0.16530  0.10050  Biso   1.000  H
  C16      1.0000 0.31775  0.14353  0.04275  Biso   1.000  C
  C17      1.0000 0.29311  0.10892  0.01929  Biso   1.000  C
  H7       1.0000 0.26360  0.11040  0.98970  Biso   1.000  H
  C18      1.0000 0.31304  0.07174  0.04050  Biso   1.000  C
  C19      1.0000 0.35727  0.07007  0.08446  Biso   1.000  C
  H8       1.0000 0.37050  0.04550  0.09940  Biso   1.000  H
  C20      1.0000 0.42783  0.10366  0.15667  Biso   1.000  C
  C21      1.0000 0.29379  0.18296  0.02236  Biso   1.000  C
  C22      1.0000 0.28604  0.03401  0.01973  Biso   1.000  C
  C23      1.0000 0.23153  0.03356  0.01976  Biso   1.000  C
  H9       1.0000 0.21300  0.05630  0.03340  Biso   1.000  H
  C24      1.0000 0.67347  0.73252  0.18565  Biso   1.000  C
  C25      1.0000 0.62458  0.71365  0.18553  Biso   1.000  C
  H10      1.0000 0.60810  0.70700  0.14270  Biso   1.000  H
  C26      1.0000 0.70142  0.74074  0.11566  Biso   1.000  C
  Cu2      1.0000 0.71121  0.73194  0.96484  Biso   1.000  Cu
  O7       1.0000 0.44497  0.07076  0.17648  Biso   1.000  O
  O8       1.0000 0.44527  0.13645  0.17711  Biso   1.000  O
  O9       1.0000 0.25195  0.18359  0.98768  Biso   1.000  O
  O10      1.0000 0.31663  0.21399  0.04748  Biso   1.000  O
  O11      1.0000 0.67892  0.72875  0.06085  Biso   1.000  O
  O12      1.0000 0.74435  0.75858  0.11894  Biso   1.000  O
  C27      1.0000 0.11844  0.39503  0.60593  Biso   1.000  C
  C28      1.0000 0.13878  0.35815  0.58524  Biso   1.000  C
  H11      1.0000 0.12260  0.33470  0.60050  Biso   1.000  H
  C29      1.0000 0.18225  0.35647  0.54275  Biso   1.000  C
  C30      1.0000 0.20689  0.39108  0.51929  Biso   1.000  C
  H12      1.0000 0.23640  0.38960  0.48970  Biso   1.000  H
  C31      1.0000 0.18696  0.42826  0.54050  Biso   1.000  C
  C32      1.0000 0.14273  0.42993  0.58446  Biso   1.000  C
  H13      1.0000 0.12950  0.45450  0.59940  Biso   1.000  H
  C33      1.0000 0.07217  0.39634  0.65667  Biso   1.000  C
  C34      1.0000 0.20621  0.31704  0.52236  Biso   1.000  C
  C35      1.0000 0.21396  0.46599  0.51973  Biso   1.000  C
  C36      1.0000 0.26847  0.46644  0.51976  Biso   1.000  C
  H14      1.0000 0.28700  0.44370  0.53340  Biso   1.000  H
  C37      1.0000 0.82653  0.76748  0.68565  Biso   1.000  C
  C38      1.0000 0.87542  0.78635  0.68553  Biso   1.000  C
  H15      1.0000 0.89190  0.79300  0.64270  Biso   1.000  H
  C39      1.0000 0.79858  0.75926  0.61566  Biso   1.000  C
  Cu3      1.0000 0.78879  0.76806  0.46484  Biso   1.000  Cu
  O13      1.0000 0.05503  0.42924  0.67648  Biso   1.000  O
  O14      1.0000 0.05473  0.36355  0.67711  Biso   1.000  O
  O15      1.0000 0.24805  0.31641  0.48768  Biso   1.000  O
  O16      1.0000 0.18337  0.28601  0.54748  Biso   1.000  O
  O17      1.0000 0.82108  0.77125  0.56085  Biso   1.000  O
  O18      1.0000 0.75565  0.74142  0.61894  Biso   1.000  O
  C40      1.0000 0.61844  0.89503  0.60593  Biso   1.000  C
  C41      1.0000 0.63878  0.85815  0.58524  Biso   1.000  C
  H16      1.0000 0.62260  0.83470  0.60050  Biso   1.000  H
  C42      1.0000 0.68225  0.85647  0.54275  Biso   1.000  C
  C43      1.0000 0.70689  0.89108  0.51929  Biso   1.000  C
  H17      1.0000 0.73640  0.88960  0.48970  Biso   1.000  H
  C44      1.0000 0.68696  0.92826  0.54050  Biso   1.000  C
  C45      1.0000 0.64273  0.92993  0.58446  Biso   1.000  C
  H18      1.0000 0.62950  0.95450  0.59940  Biso   1.000  H
  C46      1.0000 0.57217  0.89634  0.65667  Biso   1.000  C
  C47      1.0000 0.70621  0.81704  0.52236  Biso   1.000  C
  C48      1.0000 0.71396  0.96599  0.51973  Biso   1.000  C
  C49      1.0000 0.76847  0.96644  0.51976  Biso   1.000  C
  H19      1.0000 0.78700  0.94370  0.53340  Biso   1.000  H
  C50      1.0000 0.32653  0.26748  0.68565  Biso   1.000  C
  C51      1.0000 0.37542  0.28635  0.68553  Biso   1.000  C
  H20      1.0000 0.39190  0.29300  0.64270  Biso   1.000  H
  C52      1.0000 0.29858  0.25926  0.61566  Biso   1.000  C
  Cu4      1.0000 0.28879  0.26806  0.46484  Biso   1.000  Cu
  O19      1.0000 0.55503  0.92924  0.67648  Biso   1.000  O
  O20      1.0000 0.55473  0.86355  0.67711  Biso   1.000  O
  O21      1.0000 0.74805  0.81641  0.48768  Biso   1.000  O
  O22      1.0000 0.68337  0.78601  0.54748  Biso   1.000  O
  O23      1.0000 0.32108  0.27125  0.56085  Biso   1.000  O
  O24      1.0000 0.25565  0.24142  0.61894  Biso   1.000  O
  C53      1.0000 0.11844  0.60497  0.39407  Biso   1.000  C
  C54      1.0000 0.13878  0.64185  0.41476  Biso   1.000  C
  H21      1.0000 0.12260  0.66530  0.39950  Biso   1.000  H
  C55      1.0000 0.18225  0.64353  0.45725  Biso   1.000  C
  C56      1.0000 0.20689  0.60892  0.48071  Biso   1.000  C
  H22      1.0000 0.23640  0.61040  0.51030  Biso   1.000  H
  C57      1.0000 0.18696  0.57174  0.45950  Biso   1.000  C
  C58      1.0000 0.14273  0.57007  0.41554  Biso   1.000  C
  H23      1.0000 0.12950  0.54550  0.40060  Biso   1.000  H
  C59      1.0000 0.07217  0.60366  0.34333  Biso   1.000  C
  C60      1.0000 0.20621  0.68296  0.47764  Biso   1.000  C
  C61      1.0000 0.21396  0.53401  0.48027  Biso   1.000  C
  C62      1.0000 0.26847  0.53356  0.48024  Biso   1.000  C
  H24      1.0000 0.28700  0.55630  0.46660  Biso   1.000  H
  C63      1.0000 0.82653  0.23252  0.31435  Biso   1.000  C
  C64      1.0000 0.87542  0.21365  0.31447  Biso   1.000  C
  H25      1.0000 0.89190  0.20700  0.35730  Biso   1.000  H
  C65      1.0000 0.79858  0.24074  0.38434  Biso   1.000  C
  Cu5      1.0000 0.78879  0.23194  0.53516  Biso   1.000  Cu
  O25      1.0000 0.05503  0.57076  0.32352  Biso   1.000  O
  O26      1.0000 0.05473  0.63645  0.32289  Biso   1.000  O
  O27      1.0000 0.24805  0.68359  0.51232  Biso   1.000  O
  O28      1.0000 0.18337  0.71399  0.45252  Biso   1.000  O
  O29      1.0000 0.82108  0.22875  0.43915  Biso   1.000  O
  O30      1.0000 0.75565  0.25858  0.38106  Biso   1.000  O
  C66      1.0000 0.61844  0.10497  0.39407  Biso   1.000  C
  C67      1.0000 0.63878  0.14185  0.41476  Biso   1.000  C
  H26      1.0000 0.62260  0.16530  0.39950  Biso   1.000  H
  C68      1.0000 0.68225  0.14353  0.45725  Biso   1.000  C
  C69      1.0000 0.70689  0.10892  0.48071  Biso   1.000  C
  H27      1.0000 0.73640  0.11040  0.51030  Biso   1.000  H
  C70      1.0000 0.68696  0.07174  0.45950  Biso   1.000  C
  C71      1.0000 0.64273  0.07007  0.41554  Biso   1.000  C
  H28      1.0000 0.62950  0.04550  0.40060  Biso   1.000  H
  C72      1.0000 0.57217  0.10366  0.34333  Biso   1.000  C
  C73      1.0000 0.70621  0.18296  0.47764  Biso   1.000  C
  C74      1.0000 0.71396  0.03401  0.48027  Biso   1.000  C
  C75      1.0000 0.76847  0.03356  0.48024  Biso   1.000  C
  H29      1.0000 0.78700  0.05630  0.46660  Biso   1.000  H
  C76      1.0000 0.32653  0.73252  0.31435  Biso   1.000  C
  C77      1.0000 0.37542  0.71365  0.31447  Biso   1.000  C
  H30      1.0000 0.39190  0.70700  0.35730  Biso   1.000  H
  C78      1.0000 0.29858  0.74074  0.38434  Biso   1.000  C
  Cu6      1.0000 0.28879  0.73194  0.53516  Biso   1.000  Cu
  O31      1.0000 0.55503  0.07076  0.32352  Biso   1.000  O
  O32      1.0000 0.55473  0.13645  0.32289  Biso   1.000  O
  O33      1.0000 0.74805  0.18359  0.51232  Biso   1.000  O
  O34      1.0000 0.68337  0.21399  0.45252  Biso   1.000  O
  O35      1.0000 0.32108  0.72875  0.43915  Biso   1.000  O
  O36      1.0000 0.25565  0.75858  0.38106  Biso   1.000  O
  C79      1.0000 0.88156  0.39503  0.89407  Biso   1.000  C
  C80      1.0000 0.86122  0.35815  0.91476  Biso   1.000  C
  H31      1.0000 0.87740  0.33470  0.89950  Biso   1.000  H
  C81      1.0000 0.81775  0.35647  0.95725  Biso   1.000  C
  C82      1.0000 0.79311  0.39108  0.98071  Biso   1.000  C
  H32      1.0000 0.76360  0.38960  0.01030  Biso   1.000  H
  C83      1.0000 0.81304  0.42826  0.95950  Biso   1.000  C
  C84      1.0000 0.85727  0.42993  0.91554  Biso   1.000  C
  H33      1.0000 0.87050  0.45450  0.90060  Biso   1.000  H
  C85      1.0000 0.92783  0.39634  0.84333  Biso   1.000  C
  C86      1.0000 0.79379  0.31704  0.97764  Biso   1.000  C
  C87      1.0000 0.78604  0.46599  0.98027  Biso   1.000  C
  C88      1.0000 0.73153  0.46644  0.98024  Biso   1.000  C
  H34      1.0000 0.71300  0.44370  0.96660  Biso   1.000  H
  C89      1.0000 0.17347  0.76748  0.81435  Biso   1.000  C
  C90      1.0000 0.12458  0.78635  0.81447  Biso   1.000  C
  H35      1.0000 0.10810  0.79300  0.85730  Biso   1.000  H
  C91      1.0000 0.20142  0.75926  0.88434  Biso   1.000  C
  Cu7      1.0000 0.21121  0.76806  0.03516  Biso   1.000  Cu
  O37      1.0000 0.94497  0.42924  0.82352  Biso   1.000  O
  O38      1.0000 0.94527  0.36355  0.82289  Biso   1.000  O
  O39      1.0000 0.75195  0.31641  0.01232  Biso   1.000  O
  O40      1.0000 0.81663  0.28601  0.95252  Biso   1.000  O
  O41      1.0000 0.17892  0.77125  0.93915  Biso   1.000  O
  O42      1.0000 0.24435  0.74142  0.88106  Biso   1.000  O
  C92      1.0000 0.38156  0.89503  0.89407  Biso   1.000  C
  C93      1.0000 0.36122  0.85815  0.91476  Biso   1.000  C
  H36      1.0000 0.37740  0.83470  0.89950  Biso   1.000  H
  C94      1.0000 0.31775  0.85647  0.95725  Biso   1.000  C
  C95      1.0000 0.29311  0.89108  0.98071  Biso   1.000  C
  H37      1.0000 0.26360  0.88960  0.01030  Biso   1.000  H
  C96      1.0000 0.31304  0.92826  0.95950  Biso   1.000  C
  C97      1.0000 0.35727  0.92993  0.91554  Biso   1.000  C
  H38      1.0000 0.37050  0.95450  0.90060  Biso   1.000  H
  C98      1.0000 0.42783  0.89634  0.84333  Biso   1.000  C
  C99      1.0000 0.29379  0.81704  0.97764  Biso   1.000  C
  C100     1.0000 0.28604  0.96599  0.98027  Biso   1.000  C
  C101     1.0000 0.23153  0.96644  0.98024  Biso   1.000  C
  H39      1.0000 0.21300  0.94370  0.96660  Biso   1.000  H
  C102     1.0000 0.67347  0.26748  0.81435  Biso   1.000  C
  C103     1.0000 0.62458  0.28635  0.81447  Biso   1.000  C
  H40      1.0000 0.60810  0.29300  0.85730  Biso   1.000  H
  C104     1.0000 0.70142  0.25926  0.88434  Biso   1.000  C
  Cu8      1.0000 0.71121  0.26806  0.03516  Biso   1.000  Cu
  O43      1.0000 0.44497  0.92924  0.82352  Biso   1.000  O
  O44      1.0000 0.44527  0.86355  0.82289  Biso   1.000  O
  O45      1.0000 0.25195  0.81641  0.01232  Biso   1.000  O
  O46      1.0000 0.31663  0.78601  0.95252  Biso   1.000  O
  O47      1.0000 0.67892  0.27125  0.93915  Biso   1.000  O
  O48      1.0000 0.74435  0.24142  0.88106  Biso   1.000  O
  C105     1.0000 0.11844  0.39503  0.89407  Biso   1.000  C
  C106     1.0000 0.13878  0.35815  0.91476  Biso   1.000  C
  H41      1.0000 0.12260  0.33470  0.89950  Biso   1.000  H
  C107     1.0000 0.18225  0.35647  0.95725  Biso   1.000  C
  C108     1.0000 0.20689  0.39108  0.98071  Biso   1.000  C
  H42      1.0000 0.23640  0.38960  0.01030  Biso   1.000  H
  C109     1.0000 0.18696  0.42826  0.95950  Biso   1.000  C
  C110     1.0000 0.14273  0.42993  0.91554  Biso   1.000  C
  H43      1.0000 0.12950  0.45450  0.90060  Biso   1.000  H
  C111     1.0000 0.07217  0.39634  0.84333  Biso   1.000  C
  C112     1.0000 0.20621  0.31704  0.97764  Biso   1.000  C
  C113     1.0000 0.21396  0.46599  0.98027  Biso   1.000  C
  C114     1.0000 0.26847  0.46644  0.98024  Biso   1.000  C
  H44      1.0000 0.28700  0.44370  0.96660  Biso   1.000  H
  C115     1.0000 0.82653  0.76748  0.81435  Biso   1.000  C
  C116     1.0000 0.87542  0.78635  0.81447  Biso   1.000  C
  H45      1.0000 0.89190  0.79300  0.85730  Biso   1.000  H
  C117     1.0000 0.79858  0.75926  0.88434  Biso   1.000  C
  Cu9      1.0000 0.78879  0.76806  0.03516  Biso   1.000  Cu
  O49      1.0000 0.05503  0.42924  0.82352  Biso   1.000  O
  O50      1.0000 0.05473  0.36355  0.82289  Biso   1.000  O
  O51      1.0000 0.24805  0.31641  0.01232  Biso   1.000  O
  O52      1.0000 0.18337  0.28601  0.95252  Biso   1.000  O
  O53      1.0000 0.82108  0.77125  0.93915  Biso   1.000  O
  O54      1.0000 0.75565  0.74142  0.88106  Biso   1.000  O
  C118     1.0000 0.61844  0.89503  0.89407  Biso   1.000  C
  C119     1.0000 0.63878  0.85815  0.91476  Biso   1.000  C
  H46      1.0000 0.62260  0.83470  0.89950  Biso   1.000  H
  C120     1.0000 0.68225  0.85647  0.95725  Biso   1.000  C
  C121     1.0000 0.70689  0.89108  0.98071  Biso   1.000  C
  H47      1.0000 0.73640  0.88960  0.01030  Biso   1.000  H
  C122     1.0000 0.68696  0.92826  0.95950  Biso   1.000  C
  C123     1.0000 0.64273  0.92993  0.91554  Biso   1.000  C
  H48      1.0000 0.62950  0.95450  0.90060  Biso   1.000  H
  C124     1.0000 0.57217  0.89634  0.84333  Biso   1.000  C
  C125     1.0000 0.70621  0.81704  0.97764  Biso   1.000  C
  C126     1.0000 0.71396  0.96599  0.98027  Biso   1.000  C
  C127     1.0000 0.76847  0.96644  0.98024  Biso   1.000  C
  H49      1.0000 0.78700  0.94370  0.96660  Biso   1.000  H
  C128     1.0000 0.32653  0.26748  0.81435  Biso   1.000  C
  C129     1.0000 0.37542  0.28635  0.81447  Biso   1.000  C
  H50      1.0000 0.39190  0.29300  0.85730  Biso   1.000  H
  C130     1.0000 0.29858  0.25926  0.88434  Biso   1.000  C
  Cu10     1.0000 0.28879  0.26806  0.03516  Biso   1.000  Cu
  O55      1.0000 0.55503  0.92924  0.82352  Biso   1.000  O
  O56      1.0000 0.55473  0.86355  0.82289  Biso   1.000  O
  O57      1.0000 0.74805  0.81641  0.01232  Biso   1.000  O
  O58      1.0000 0.68337  0.78601  0.95252  Biso   1.000  O
  O59      1.0000 0.32108  0.27125  0.93915  Biso   1.000  O
  O60      1.0000 0.25565  0.24142  0.88106  Biso   1.000  O
  C131     1.0000 0.88156  0.60497  0.39407  Biso   1.000  C
  C132     1.0000 0.86122  0.64185  0.41476  Biso   1.000  C
  H51      1.0000 0.87740  0.66530  0.39950  Biso   1.000  H
  C133     1.0000 0.81775  0.64353  0.45725  Biso   1.000  C
  C134     1.0000 0.79311  0.60892  0.48071  Biso   1.000  C
  H52      1.0000 0.76360  0.61040  0.51030  Biso   1.000  H
  C135     1.0000 0.81304  0.57174  0.45950  Biso   1.000  C
  C136     1.0000 0.85727  0.57007  0.41554  Biso   1.000  C
  H53      1.0000 0.87050  0.54550  0.40060  Biso   1.000  H
  C137     1.0000 0.92783  0.60366  0.34333  Biso   1.000  C
  C138     1.0000 0.79379  0.68296  0.47764  Biso   1.000  C
  C139     1.0000 0.78604  0.53401  0.48027  Biso   1.000  C
  C140     1.0000 0.73153  0.53356  0.48024  Biso   1.000  C
  H54      1.0000 0.71300  0.55630  0.46660  Biso   1.000  H
  C141     1.0000 0.17347  0.23252  0.31435  Biso   1.000  C
  C142     1.0000 0.12458  0.21365  0.31447  Biso   1.000  C
  H55      1.0000 0.10810  0.20700  0.35730  Biso   1.000  H
  C143     1.0000 0.20142  0.24074  0.38434  Biso   1.000  C
  Cu11     1.0000 0.21121  0.23194  0.53516  Biso   1.000  Cu
  O61      1.0000 0.94497  0.57076  0.32352  Biso   1.000  O
  O62      1.0000 0.94527  0.63645  0.32289  Biso   1.000  O
  O63      1.0000 0.75195  0.68359  0.51232  Biso   1.000  O
  O64      1.0000 0.81663  0.71399  0.45252  Biso   1.000  O
  O65      1.0000 0.17892  0.22875  0.43915  Biso   1.000  O
  O66      1.0000 0.24435  0.25858  0.38106  Biso   1.000  O
  C144     1.0000 0.38156  0.10497  0.39407  Biso   1.000  C
  C145     1.0000 0.36122  0.14185  0.41476  Biso   1.000  C
  H56      1.0000 0.37740  0.16530  0.39950  Biso   1.000  H
  C146     1.0000 0.31775  0.14353  0.45725  Biso   1.000  C
  C147     1.0000 0.29311  0.10892  0.48071  Biso   1.000  C
  H57      1.0000 0.26360  0.11040  0.51030  Biso   1.000  H
  C148     1.0000 0.31304  0.07174  0.45950  Biso   1.000  C
  C149     1.0000 0.35727  0.07007  0.41554  Biso   1.000  C
  H58      1.0000 0.37050  0.04550  0.40060  Biso   1.000  H
  C150     1.0000 0.42783  0.10366  0.34333  Biso   1.000  C
  C151     1.0000 0.29379  0.18296  0.47764  Biso   1.000  C
  C152     1.0000 0.28604  0.03401  0.48027  Biso   1.000  C
  C153     1.0000 0.23153  0.03356  0.48024  Biso   1.000  C
  H59      1.0000 0.21300  0.05630  0.46660  Biso   1.000  H
  C154     1.0000 0.67347  0.73252  0.31435  Biso   1.000  C
  C155     1.0000 0.62458  0.71365  0.31447  Biso   1.000  C
  H60      1.0000 0.60810  0.70700  0.35730  Biso   1.000  H
  C156     1.0000 0.70142  0.74074  0.38434  Biso   1.000  C
  Cu12     1.0000 0.71121  0.73194  0.53516  Biso   1.000  Cu
  O67      1.0000 0.44497  0.07076  0.32352  Biso   1.000  O
  O68      1.0000 0.44527  0.13645  0.32289  Biso   1.000  O
  O69      1.0000 0.25195  0.18359  0.51232  Biso   1.000  O
  O70      1.0000 0.31663  0.21399  0.45252  Biso   1.000  O
  O71      1.0000 0.67892  0.72875  0.43915  Biso   1.000  O
  O72      1.0000 0.74435  0.75858  0.38106  Biso   1.000  O
  C157     1.0000 0.88156  0.39503  0.60593  Biso   1.000  C
  C158     1.0000 0.86122  0.35815  0.58524  Biso   1.000  C
  H61      1.0000 0.87740  0.33470  0.60050  Biso   1.000  H
  C159     1.0000 0.81775  0.35647  0.54275  Biso   1.000  C
  C160     1.0000 0.79311  0.39108  0.51929  Biso   1.000  C
  H62      1.0000 0.76360  0.38960  0.48970  Biso   1.000  H
  C161     1.0000 0.81304  0.42826  0.54050  Biso   1.000  C
  C162     1.0000 0.85727  0.42993  0.58446  Biso   1.000  C
  H63      1.0000 0.87050  0.45450  0.59940  Biso   1.000  H
  C163     1.0000 0.92783  0.39634  0.65667  Biso   1.000  C
  C164     1.0000 0.79379  0.31704  0.52236  Biso   1.000  C
  C165     1.0000 0.78604  0.46599  0.51973  Biso   1.000  C
  C166     1.0000 0.73153  0.46644  0.51976  Biso   1.000  C
  H64      1.0000 0.71300  0.44370  0.53340  Biso   1.000  H
  C167     1.0000 0.17347  0.76748  0.68565  Biso   1.000  C
  C168     1.0000 0.12458  0.78635  0.68553  Biso   1.000  C
  H65      1.0000 0.10810  0.79300  0.64270  Biso   1.000  H
  C169     1.0000 0.20142  0.75926  0.61566  Biso   1.000  C
  Cu13     1.0000 0.21121  0.76806  0.46484  Biso   1.000  Cu
  O73      1.0000 0.94497  0.42924  0.67648  Biso   1.000  O
  O74      1.0000 0.94527  0.36355  0.67711  Biso   1.000  O
  O75      1.0000 0.75195  0.31641  0.48768  Biso   1.000  O
  O76      1.0000 0.81663  0.28601  0.54748  Biso   1.000  O
  O77      1.0000 0.17892  0.77125  0.56085  Biso   1.000  O
  O78      1.0000 0.24435  0.74142  0.61894  Biso   1.000  O
  C170     1.0000 0.38156  0.89503  0.60593  Biso   1.000  C
  C171     1.0000 0.36122  0.85815  0.58524  Biso   1.000  C
  H66      1.0000 0.37740  0.83470  0.60050  Biso   1.000  H
  C172     1.0000 0.31775  0.85647  0.54275  Biso   1.000  C
  C173     1.0000 0.29311  0.89108  0.51929  Biso   1.000  C
  H67      1.0000 0.26360  0.88960  0.48970  Biso   1.000  H
  C174     1.0000 0.31304  0.92826  0.54050  Biso   1.000  C
  C175     1.0000 0.35727  0.92993  0.58446  Biso   1.000  C
  H68      1.0000 0.37050  0.95450  0.59940  Biso   1.000  H
  C176     1.0000 0.42783  0.89634  0.65667  Biso   1.000  C
  C177     1.0000 0.29379  0.81704  0.52236  Biso   1.000  C
  C178     1.0000 0.28604  0.96599  0.51973  Biso   1.000  C
  C179     1.0000 0.23153  0.96644  0.51976  Biso   1.000  C
  H69      1.0000 0.21300  0.94370  0.53340  Biso   1.000  H
  C180     1.0000 0.67347  0.26748  0.68565  Biso   1.000  C
  C181     1.0000 0.62458  0.28635  0.68553  Biso   1.000  C
  H70      1.0000 0.60810  0.29300  0.64270  Biso   1.000  H
  C182     1.0000 0.70142  0.25926  0.61566  Biso   1.000  C
  Cu14     1.0000 0.71121  0.26806  0.46484  Biso   1.000  Cu
  O79      1.0000 0.44497  0.92924  0.67648  Biso   1.000  O
  O80      1.0000 0.44527  0.86355  0.67711  Biso   1.000  O
  O81      1.0000 0.25195  0.81641  0.48768  Biso   1.000  O
  O82      1.0000 0.31663  0.78601  0.54748  Biso   1.000  O
  O83      1.0000 0.67892  0.27125  0.56085  Biso   1.000  O
  O84      1.0000 0.74435  0.24142  0.61894  Biso   1.000  O
  C183     1.0000 0.11844  0.60497  0.10593  Biso   1.000  C
  C184     1.0000 0.13878  0.64185  0.08524  Biso   1.000  C
  H71      1.0000 0.12260  0.66530  0.10050  Biso   1.000  H
  C185     1.0000 0.18225  0.64353  0.04275  Biso   1.000  C
  C186     1.0000 0.20689  0.60892  0.01929  Biso   1.000  C
  H72      1.0000 0.23640  0.61040  0.98970  Biso   1.000  H
  C187     1.0000 0.18696  0.57174  0.04050  Biso   1.000  C
  C188     1.0000 0.14273  0.57007  0.08446  Biso   1.000  C
  H73      1.0000 0.12950  0.54550  0.09940  Biso   1.000  H
  C189     1.0000 0.07217  0.60366  0.15667  Biso   1.000  C
  C190     1.0000 0.20621  0.68296  0.02236  Biso   1.000  C
  C191     1.0000 0.21396  0.53401  0.01973  Biso   1.000  C
  C192     1.0000 0.26847  0.53356  0.01976  Biso   1.000  C
  H74      1.0000 0.28700  0.55630  0.03340  Biso   1.000  H
  C193     1.0000 0.82653  0.23252  0.18565  Biso   1.000  C
  C194     1.0000 0.87542  0.21365  0.18553  Biso   1.000  C
  H75      1.0000 0.89190  0.20700  0.14270  Biso   1.000  H
  C195     1.0000 0.79858  0.24074  0.11566  Biso   1.000  C
  Cu15     1.0000 0.78879  0.23194  0.96484  Biso   1.000  Cu
  O85      1.0000 0.05503  0.57076  0.17648  Biso   1.000  O
  O86      1.0000 0.05473  0.63645  0.17711  Biso   1.000  O
  O87      1.0000 0.24805  0.68359  0.98768  Biso   1.000  O
  O88      1.0000 0.18337  0.71399  0.04748  Biso   1.000  O
  O89      1.0000 0.82108  0.22875  0.06085  Biso   1.000  O
  O90      1.0000 0.75565  0.25858  0.11894  Biso   1.000  O
  C196     1.0000 0.61844  0.10497  0.10593  Biso   1.000  C
  C197     1.0000 0.63878  0.14185  0.08524  Biso   1.000  C
  H76      1.0000 0.62260  0.16530  0.10050  Biso   1.000  H
  C198     1.0000 0.68225  0.14353  0.04275  Biso   1.000  C
  C199     1.0000 0.70689  0.10892  0.01929  Biso   1.000  C
  H77      1.0000 0.73640  0.11040  0.98970  Biso   1.000  H
  C200     1.0000 0.68696  0.07174  0.04050  Biso   1.000  C
  C201     1.0000 0.64273  0.07007  0.08446  Biso   1.000  C
  H78      1.0000 0.62950  0.04550  0.09940  Biso   1.000  H
  C202     1.0000 0.57217  0.10366  0.15667  Biso   1.000  C
  C203     1.0000 0.70621  0.18296  0.02236  Biso   1.000  C
  C204     1.0000 0.71396  0.03401  0.01973  Biso   1.000  C
  C205     1.0000 0.76847  0.03356  0.01976  Biso   1.000  C
  H79      1.0000 0.78700  0.05630  0.03340  Biso   1.000  H
  C206     1.0000 0.32653  0.73252  0.18565  Biso   1.000  C
  C207     1.0000 0.37542  0.71365  0.18553  Biso   1.000  C
  H80      1.0000 0.39190  0.70700  0.14270  Biso   1.000  H
  C208     1.0000 0.29858  0.74074  0.11566  Biso   1.000  C
  Cu16     1.0000 0.28879  0.73194  0.96484  Biso   1.000  Cu
  O91      1.0000 0.55503  0.07076  0.17648  Biso   1.000  O
  O92      1.0000 0.55473  0.13645  0.17711  Biso   1.000  O
  O93      1.0000 0.74805  0.18359  0.98768  Biso   1.000  O
  O94      1.0000 0.68337  0.21399  0.04748  Biso   1.000  O
  O95      1.0000 0.32108  0.72875  0.06085  Biso   1.000  O
  O96      1.0000 0.25565  0.75858  0.11894  Biso   1.000  O
  C209     1.0000 0.81356  0.50000  0.00000  Biso   1.000  C
  H81      1.0000 0.85030  0.50000  0.00000  Biso   1.000  H
  N1       1.0000 0.70437  0.50000  0.00000  Biso   1.000  N
  C210     1.0000 0.31356  0.00000  0.00000  Biso   1.000  C
  H82      1.0000 0.35030  0.00000  0.00000  Biso   1.000  H
  N2       1.0000 0.20437  0.00000  0.00000  Biso   1.000  N
  C211     1.0000 0.18644  0.50000  0.50000  Biso   1.000  C
  H83      1.0000 0.14970  0.50000  0.50000  Biso   1.000  H
  N3       1.0000 0.29563  0.50000  0.50000  Biso   1.000  N
  C212     1.0000 0.68644  0.00000  0.50000  Biso   1.000  C
  H84      1.0000 0.64970  0.00000  0.50000  Biso   1.000  H
  N4       1.0000 0.79563  0.00000  0.50000  Biso   1.000  N
  C213     1.0000 0.18644  0.50000  0.00000  Biso   1.000  C
  H85      1.0000 0.14970  0.50000  0.00000  Biso   1.000  H
  N5       1.0000 0.29563  0.50000  0.00000  Biso   1.000  N
  C214     1.0000 0.68644  0.00000  0.00000  Biso   1.000  C
  H86      1.0000 0.64970  0.00000  0.00000  Biso   1.000  H
  N6       1.0000 0.79563  0.00000  0.00000  Biso   1.000  N
  C215     1.0000 0.81356  0.50000  0.50000  Biso   1.000  C
  H87      1.0000 0.85030  0.50000  0.50000  Biso   1.000  H
  N7       1.0000 0.70437  0.50000  0.50000  Biso   1.000  N
  C216     1.0000 0.31356  0.00000  0.50000  Biso   1.000  C
  H88      1.0000 0.35030  0.00000  0.50000  Biso   1.000  H
  N8       1.0000 0.20437  0.00000  0.50000  Biso   1.000  N
  C217     1.0000 0.19697  0.24233  0.25000  Biso   1.000  C
  H89      1.0000 0.22920  0.25580  0.25000  Biso   1.000  H
  C218     1.0000 0.10098  0.20501  0.25000  Biso   1.000  C
  C219     1.0000 0.04940  0.18164  0.25000  Biso   1.000  C
  C220     1.0000 0.04955  0.14027  0.25000  Biso   1.000  C
  H90      1.0000 0.08150  0.12650  0.25000  Biso   1.000  H
  C221     1.0000 0.69697  0.74233  0.25000  Biso   1.000  C
  H91      1.0000 0.72920  0.75580  0.25000  Biso   1.000  H
  C222     1.0000 0.60098  0.70501  0.25000  Biso   1.000  C
  C223     1.0000 0.54940  0.68164  0.25000  Biso   1.000  C
  C224     1.0000 0.54955  0.64027  0.25000  Biso   1.000  C
  H92      1.0000 0.58150  0.62650  0.25000  Biso   1.000  H
  C225     1.0000 0.80303  0.75767  0.75000  Biso   1.000  C
  H93      1.0000 0.77080  0.74420  0.75000  Biso   1.000  H
  C226     1.0000 0.89902  0.79499  0.75000  Biso   1.000  C
  C227     1.0000 0.95060  0.81836  0.75000  Biso   1.000  C
  C228     1.0000 0.95045  0.85973  0.75000  Biso   1.000  C
  H94      1.0000 0.91850  0.87350  0.75000  Biso   1.000  H
  C229     1.0000 0.30303  0.25767  0.75000  Biso   1.000  C
  H95      1.0000 0.27080  0.24420  0.75000  Biso   1.000  H
  C230     1.0000 0.39902  0.29499  0.75000  Biso   1.000  C
  C231     1.0000 0.45060  0.31836  0.75000  Biso   1.000  C
  C232     1.0000 0.45045  0.35973  0.75000  Biso   1.000  C
  H96      1.0000 0.41850  0.37350  0.75000  Biso   1.000  H
  C233     1.0000 0.80303  0.24233  0.25000  Biso   1.000  C
  H97      1.0000 0.77080  0.25580  0.25000  Biso   1.000  H
  C234     1.0000 0.89902  0.20501  0.25000  Biso   1.000  C
  C235     1.0000 0.95060  0.18164  0.25000  Biso   1.000  C
  C236     1.0000 0.95045  0.14027  0.25000  Biso   1.000  C
  H98      1.0000 0.91850  0.12650  0.25000  Biso   1.000  H
  C237     1.0000 0.30303  0.74233  0.25000  Biso   1.000  C
  H99      1.0000 0.27080  0.75580  0.25000  Biso   1.000  H
  C238     1.0000 0.39902  0.70501  0.25000  Biso   1.000  C
  C239     1.0000 0.45060  0.68164  0.25000  Biso   1.000  C
  C240     1.0000 0.45045  0.64027  0.25000  Biso   1.000  C
  H100     1.0000 0.41850  0.62650  0.25000  Biso   1.000  H
  C241     1.0000 0.19697  0.75767  0.75000  Biso   1.000  C
  H101     1.0000 0.22920  0.74420  0.75000  Biso   1.000  H
  C242     1.0000 0.10098  0.79499  0.75000  Biso   1.000  C
  C243     1.0000 0.04940  0.81836  0.75000  Biso   1.000  C
  C244     1.0000 0.04955  0.85973  0.75000  Biso   1.000  C
  H102     1.0000 0.08150  0.87350  0.75000  Biso   1.000  H
  C245     1.0000 0.69697  0.25767  0.75000  Biso   1.000  C
  H103     1.0000 0.72920  0.24420  0.75000  Biso   1.000  H
  C246     1.0000 0.60098  0.29499  0.75000  Biso   1.000  C
  C247     1.0000 0.54940  0.31836  0.75000  Biso   1.000  C
  C248     1.0000 0.54955  0.35973  0.75000  Biso   1.000  C
  H104     1.0000 0.58150  0.37350  0.75000  Biso   1.000  H
  C249     1.0000 0.00000  0.20116  0.25000  Biso   1.000  C
  H105     1.0000 0.00000  0.22890  0.25000  Biso   1.000  H
  N9       1.0000 0.00000  0.11835  0.25000  Biso   1.000  N
  Cu17     1.0000 0.00000  0.56407  0.25000  Biso   1.000  Cu
  Cu18     1.0000 0.00000  0.64320  0.25000  Biso   1.000  Cu
  C250     1.0000 0.50000  0.70116  0.25000  Biso   1.000  C
  H106     1.0000 0.50000  0.72890  0.25000  Biso   1.000  H
  N10      1.0000 0.50000  0.61835  0.25000  Biso   1.000  N
  Cu19     1.0000 0.50000  0.06407  0.25000  Biso   1.000  Cu
  Cu20     1.0000 0.50000  0.14320  0.25000  Biso   1.000  Cu
  C251     1.0000 0.00000  0.79884  0.75000  Biso   1.000  C
  H107     1.0000 0.00000  0.77110  0.75000  Biso   1.000  H
  N11      1.0000 0.00000  0.88165  0.75000  Biso   1.000  N
  Cu21     1.0000 0.00000  0.43593  0.75000  Biso   1.000  Cu
  Cu22     1.0000 0.00000  0.35680  0.75000  Biso   1.000  Cu
  C252     1.0000 0.50000  0.29884  0.75000  Biso   1.000  C
  H108     1.0000 0.50000  0.27110  0.75000  Biso   1.000  H
  N12      1.0000 0.50000  0.38165  0.75000  Biso   1.000  N
  Cu23     1.0000 0.50000  0.93593  0.75000  Biso   1.000  Cu
  Cu24     1.0000 0.50000  0.85680  0.75000  Biso   1.000  Cu
