data_cg501279y_si_002_freeONLY
_audit_creation_date              2015-08-19
_audit_creation_method            'Materials Studio'
_symmetry_space_group_name_H-M    'P1'
_symmetry_Int_Tables_number       1
_symmetry_cell_setting            triclinic
loop_
_symmetry_equiv_pos_as_xyz
  x,y,z
_cell_length_a                    13.9130
_cell_length_b                    16.7740
_cell_length_c                    16.7740
_cell_angle_alpha                 120.0000
_cell_angle_beta                  90.0000
_cell_angle_gamma                 90.0000
loop_
_atom_site_label
_atom_site_type_symbol
_atom_site_fract_x
_atom_site_fract_y
_atom_site_fract_z
_atom_site_U_iso_or_equiv
_atom_site_adp_type
_atom_site_occupancy
Ni1    Ni    0.39567   0.66667   0.33334   0.01267  Uiso   1.00
Ni2    Ni    0.89567   0.33333   0.66666   0.01267  Uiso   1.00
Ni3    Ni    0.60433   0.33333   0.66666   0.01267  Uiso   1.00
Ni4    Ni    0.10433   0.66667   0.33334   0.01267  Uiso   1.00
H1     H     0.85560   0.57010   0.77100   0.01267  Uiso   1.00
H2     H     0.91080   0.68060   0.68760   0.01267  Uiso   1.00
H3     H     0.91080   0.00700   0.31940   0.01267  Uiso   1.00
H4     H     0.63130   0.14640   0.87360   0.01267  Uiso   1.00
H5     H     0.07850   0.42530   0.63840   0.01267  Uiso   1.00
H6     H     0.58920   0.31240   0.31940   0.01267  Uiso   1.00
H7     H     0.75000   0.58780   0.41220   0.01267  Uiso   1.00
H8     H     0.85560   0.22900   0.79910   0.01267  Uiso   1.00
H9     H     0.98300   0.78440   0.98810   0.01267  Uiso   1.00
H10    H     0.38460   0.57630   0.51240   0.01267  Uiso   1.00
H11    H     0.57850   0.78690   0.36160   0.01267  Uiso   1.00
H12    H     0.14440   0.77100   0.20090   0.01267  Uiso   1.00
H13    H     0.38460   0.48760   0.06390   0.01267  Uiso   1.00
H14    H     0.11540   0.93610   0.51240   0.01267  Uiso   1.00
H15    H     0.41080   0.68760   0.68060   0.01267  Uiso   1.00
H16    H     0.92150   0.57470   0.36160   0.01267  Uiso   1.00
H17    H     0.92150   0.78690   0.42530   0.01267  Uiso   1.00
H18    H     0.41080   0.99300   0.31240   0.01267  Uiso   1.00
H19    H     0.36870   0.85360   0.12640   0.01267  Uiso   1.00
H20    H     0.13130   0.27280   0.12640   0.01267  Uiso   1.00
H21    H     0.11540   0.57630   0.06390   0.01267  Uiso   1.00
H22    H     0.75000   0.82440   0.41220   0.01267  Uiso   1.00
H23    H     0.36870   0.27280   0.14640   0.01267  Uiso   1.00
H24    H     0.07850   0.21310   0.57470   0.01267  Uiso   1.00
H25    H     0.08920   0.99300   0.68060   0.01267  Uiso   1.00
H26    H     0.35560   0.77100   0.57010   0.01267  Uiso   1.00
H27    H     0.98300   0.20370   0.21560   0.01267  Uiso   1.00
H28    H     0.57850   0.63840   0.42530   0.01267  Uiso   1.00
H29    H     0.42150   0.21310   0.63840   0.01267  Uiso   1.00
H30    H     0.88460   0.42370   0.93610   0.01267  Uiso   1.00
H31    H     0.25000   0.17560   0.58780   0.01267  Uiso   1.00
H32    H     0.86870   0.72720   0.87360   0.01267  Uiso   1.00
H33    H     0.91080   0.31240   0.99300   0.01267  Uiso   1.00
H34    H     0.42150   0.42530   0.78690   0.01267  Uiso   1.00
H35    H     0.38460   0.93610   0.42370   0.01267  Uiso   1.00
H36    H     0.51700   0.20370   0.98810   0.01267  Uiso   1.00
H37    H     0.86870   0.14640   0.27280   0.01267  Uiso   1.00
H38    H     0.64440   0.57010   0.79910   0.01267  Uiso   1.00
H39    H     0.41080   0.31940   0.00700   0.01267  Uiso   1.00
H40    H     0.25000   0.41220   0.82440   0.01267  Uiso   1.00
H41    H     0.48300   0.98810   0.78440   0.01267  Uiso   1.00
H42    H     0.92150   0.63840   0.21310   0.01267  Uiso   1.00
H43    H     0.51700   0.01190   0.21560   0.01267  Uiso   1.00
H44    H     0.57850   0.57470   0.21310   0.01267  Uiso   1.00
H45    H     0.42150   0.36160   0.57470   0.01267  Uiso   1.00
H46    H     0.64440   0.22900   0.42990   0.01267  Uiso   1.00
H47    H     0.86870   0.12640   0.85360   0.01267  Uiso   1.00
H48    H     0.08920   0.31940   0.31240   0.01267  Uiso   1.00
H49    H     0.35560   0.42990   0.20090   0.01267  Uiso   1.00
H50    H     0.63130   0.72720   0.85360   0.01267  Uiso   1.00
H51    H     0.08920   0.68760   0.00700   0.01267  Uiso   1.00
H52    H     0.13130   0.87360   0.14640   0.01267  Uiso   1.00
H53    H     0.64440   0.20090   0.77100   0.01267  Uiso   1.00
H54    H     0.14440   0.42990   0.22900   0.01267  Uiso   1.00
H55    H     0.85560   0.20090   0.42990   0.01267  Uiso   1.00
H56    H     0.01700   0.98810   0.20370   0.01267  Uiso   1.00
H57    H     0.61540   0.42370   0.48760   0.01267  Uiso   1.00
H58    H     0.51700   0.78440   0.79630   0.01267  Uiso   1.00
H59    H     0.01700   0.79630   0.78440   0.01267  Uiso   1.00
H60    H     0.48300   0.21560   0.20370   0.01267  Uiso   1.00
H61    H     0.36870   0.87360   0.72720   0.01267  Uiso   1.00
H62    H     0.58920   0.00700   0.68760   0.01267  Uiso   1.00
H63    H     0.13130   0.85360   0.72720   0.01267  Uiso   1.00
H64    H     0.25000   0.41220   0.58780   0.01267  Uiso   1.00
H65    H     0.48300   0.79630   0.01190   0.01267  Uiso   1.00
H66    H     0.61540   0.06390   0.57630   0.01267  Uiso   1.00
H67    H     0.07850   0.36160   0.78690   0.01267  Uiso   1.00
H68    H     0.01700   0.21560   0.01190   0.01267  Uiso   1.00
H69    H     0.88460   0.51240   0.57630   0.01267  Uiso   1.00
H70    H     0.75000   0.58780   0.17560   0.01267  Uiso   1.00
H71    H     0.98300   0.01190   0.79630   0.01267  Uiso   1.00
H72    H     0.58920   0.68060   0.99300   0.01267  Uiso   1.00
H73    H     0.35560   0.79910   0.22900   0.01267  Uiso   1.00
H74    H     0.61540   0.51240   0.93610   0.01267  Uiso   1.00
H75    H     0.88460   0.06390   0.48760   0.01267  Uiso   1.00
H76    H     0.63130   0.12640   0.27280   0.01267  Uiso   1.00
H77    H     0.14440   0.79910   0.57010   0.01267  Uiso   1.00
H78    H     0.11540   0.48760   0.42370   0.01267  Uiso   1.00
C1     C     0.97970   0.72110   0.94820   0.01267  Uiso   1.00
C2     C     0.02030   0.77290   0.72110   0.01267  Uiso   1.00
C3     C     0.59740   0.18340   0.40690   0.01267  Uiso   1.00
C4     C     0.45620   0.04000   0.33560   0.01267  Uiso   1.00
C5     C     0.58960   0.19200   0.87850   0.01267  Uiso   1.00
C6     C     0.25000   0.11160   0.55580   0.01267  Uiso   1.00
C7     C     0.25000   0.81600   0.40800   0.01267  Uiso   1.00
C8     C     0.03580   0.57120   0.89760   0.01267  Uiso   1.00
C9     C     0.09740   0.81660   0.22350   0.01267  Uiso   1.00
C10    C     0.96790   0.53440   0.82520   0.01267  Uiso   1.00
C11    C     0.96420   0.42880   0.10240   0.01267  Uiso   1.00
C12    C     0.46790   0.46560   0.29080   0.01267  Uiso   1.00
C13    C     0.90260   0.59310   0.81660   0.01267  Uiso   1.00
C14    C     0.67110   0.93730   0.49560   0.01267  Uiso   1.00
C15    C     0.58960   0.12150   0.31350   0.01267  Uiso   1.00
C16    C     0.95620   0.96000   0.29560   0.01267  Uiso   1.00
C17    C     0.47970   0.77290   0.05180   0.01267  Uiso   1.00
C18    C     0.04380   0.29560   0.33560   0.01267  Uiso   1.00
C19    C     0.53580   0.67360   0.10240   0.01267  Uiso   1.00
C20    C     0.55350   0.80940   0.42040   0.01267  Uiso   1.00
C21    C     0.41040   0.80800   0.12150   0.01267  Uiso   1.00
C22    C     0.45620   0.29560   0.96000   0.01267  Uiso   1.00
C23    C     0.03210   0.70920   0.53440   0.01267  Uiso   1.00
C24    C     0.75000   0.40800   0.59200   0.01267  Uiso   1.00
C25    C     0.16940   0.96790   0.51080   0.01267  Uiso   1.00
C26    C     0.96420   0.67360   0.57120   0.01267  Uiso   1.00
C27    C     0.91040   0.12150   0.80800   0.01267  Uiso   1.00
C28    C     0.03580   0.32640   0.42880   0.01267  Uiso   1.00
C29    C     0.25000   0.53955   0.46045   0.01267  Uiso   1.00
C30    C     0.09740   0.77650   0.59310   0.01267  Uiso   1.00
C31    C     0.66940   0.45710   0.48920   0.01267  Uiso   1.00
C32    C     0.67110   0.50440   0.44170   0.01267  Uiso   1.00
C33    C     0.59740   0.59310   0.77650   0.01267  Uiso   1.00
C34    C     0.58960   0.68650   0.80800   0.01267  Uiso   1.00
C35    C     0.08960   0.80800   0.68650   0.01267  Uiso   1.00
C36    C     0.55350   0.61100   0.19060   0.01267  Uiso   1.00
C37    C     0.52030   0.22710   0.94820   0.01267  Uiso   1.00
C38    C     0.75000   0.18400   0.59200   0.01267  Uiso   1.00
C39    C     0.66940   0.51080   0.96790   0.01267  Uiso   1.00
C40    C     0.83060   0.51080   0.54290   0.01267  Uiso   1.00
C41    C     0.96790   0.17480   0.70920   0.01267  Uiso   1.00
C42    C     0.16940   0.54290   0.03210   0.01267  Uiso   1.00
C43    C     0.82890   0.55830   0.49560   0.01267  Uiso   1.00
C44    C     0.45620   0.66440   0.70440   0.01267  Uiso   1.00
C45    C     0.25000   0.53955   0.07910   0.01267  Uiso   1.00
C46    C     0.44650   0.19060   0.57960   0.01267  Uiso   1.00
C47    C     0.25000   0.59200   0.18400   0.01267  Uiso   1.00
C48    C     0.75000   0.40800   0.81600   0.01267  Uiso   1.00
C49    C     0.33060   0.96790   0.45710   0.01267  Uiso   1.00
C50    C     0.94650   0.57960   0.19060   0.01267  Uiso   1.00
C51    C     0.90260   0.18340   0.77650   0.01267  Uiso   1.00
C52    C     0.75000   0.46045   0.53955   0.01267  Uiso   1.00
C53    C     0.03580   0.10240   0.67360   0.01267  Uiso   1.00
C54    C     0.54380   0.96000   0.66440   0.01267  Uiso   1.00
C55    C     0.46790   0.82520   0.53440   0.01267  Uiso   1.00
C56    C     0.41040   0.31350   0.19200   0.01267  Uiso   1.00
C57    C     0.33060   0.48920   0.03210   0.01267  Uiso   1.00
C58    C     0.53580   0.89760   0.57120   0.01267  Uiso   1.00
C59    C     0.82890   0.93730   0.44170   0.01267  Uiso   1.00
C60    C     0.83060   0.03210   0.48920   0.01267  Uiso   1.00
C61    C     0.44650   0.38900   0.80940   0.01267  Uiso   1.00
C62    C     0.33060   0.54290   0.51080   0.01267  Uiso   1.00
C63    C     0.55350   0.57960   0.38900   0.01267  Uiso   1.00
C64    C     0.66940   0.03210   0.54290   0.01267  Uiso   1.00
C65    C     0.91040   0.68650   0.87850   0.01267  Uiso   1.00
C66    C     0.97970   0.22710   0.27890   0.01267  Uiso   1.00
C67    C     0.91040   0.19200   0.31350   0.01267  Uiso   1.00
C68    C     0.94650   0.80940   0.38900   0.01267  Uiso   1.00
C69    C     0.25000   0.92090   0.46045   0.01267  Uiso   1.00
C70    C     0.17110   0.06270   0.55830   0.01267  Uiso   1.00
C71    C     0.04380   0.66440   0.96000   0.01267  Uiso   1.00
C72    C     0.54380   0.70440   0.04000   0.01267  Uiso   1.00
C73    C     0.75000   0.55580   0.11160   0.01267  Uiso   1.00
C74    C     0.16940   0.48920   0.45710   0.01267  Uiso   1.00
C75    C     0.83060   0.45710   0.96790   0.01267  Uiso   1.00
C76    C     0.25000   0.44420   0.88840   0.01267  Uiso   1.00
C77    C     0.17110   0.44170   0.50440   0.01267  Uiso   1.00
C78    C     0.05350   0.19060   0.61100   0.01267  Uiso   1.00
C79    C     0.40260   0.40690   0.22350   0.01267  Uiso   1.00
C80    C     0.40260   0.81660   0.59310   0.01267  Uiso   1.00
C81    C     0.82890   0.50440   0.06270   0.01267  Uiso   1.00
C82    C     0.97970   0.05180   0.77290   0.01267  Uiso   1.00
C83    C     0.08960   0.31350   0.12150   0.01267  Uiso   1.00
C84    C     0.53210   0.53440   0.70920   0.01267  Uiso   1.00
C85    C     0.46420   0.10240   0.42880   0.01267  Uiso   1.00
C86    C     0.52030   0.05180   0.27890   0.01267  Uiso   1.00
C87    C     0.46790   0.70920   0.17480   0.01267  Uiso   1.00
C88    C     0.75000   0.55580   0.44420   0.01267  Uiso   1.00
C89    C     0.17110   0.49560   0.93730   0.01267  Uiso   1.00
C90    C     0.40260   0.77650   0.18340   0.01267  Uiso   1.00
C91    C     0.08960   0.87850   0.19200   0.01267  Uiso   1.00
C92    C     0.32890   0.49560   0.55830   0.01267  Uiso   1.00
C93    C     0.47970   0.27890   0.22710   0.01267  Uiso   1.00
C94    C     0.41040   0.87850   0.68650   0.01267  Uiso   1.00
C95    C     0.46420   0.32640   0.89760   0.01267  Uiso   1.00
C96    C     0.95620   0.33560   0.04000   0.01267  Uiso   1.00
C97    C     0.95620   0.70440   0.66440   0.01267  Uiso   1.00
C98    C     0.25000   0.59200   0.40800   0.01267  Uiso   1.00
C99    C     0.03210   0.82520   0.29080   0.01267  Uiso   1.00
C100   C     0.44650   0.42040   0.61100   0.01267  Uiso   1.00
C101   C     0.32890   0.44170   0.93730   0.01267  Uiso   1.00
C102   C     0.02030   0.94820   0.22710   0.01267  Uiso   1.00
C103   C     0.32890   0.06270   0.50440   0.01267  Uiso   1.00
C104   C     0.09740   0.40690   0.18340   0.01267  Uiso   1.00
C105   C     0.54380   0.33560   0.29560   0.01267  Uiso   1.00
C106   C     0.47970   0.94820   0.72110   0.01267  Uiso   1.00
C107   C     0.46420   0.57120   0.67360   0.01267  Uiso   1.00
C108   C     0.90260   0.22350   0.40690   0.01267  Uiso   1.00
C109   C     0.75000   0.46045   0.92090   0.01267  Uiso   1.00
C110   C     0.94650   0.61100   0.42040   0.01267  Uiso   1.00
C111   C     0.05350   0.42040   0.80940   0.01267  Uiso   1.00
C112   C     0.02030   0.27890   0.05180   0.01267  Uiso   1.00
C113   C     0.53210   0.29080   0.82520   0.01267  Uiso   1.00
C114   C     0.59740   0.22350   0.81660   0.01267  Uiso   1.00
C115   C     0.75000   0.07910   0.53955   0.01267  Uiso   1.00
C116   C     0.05350   0.38900   0.57960   0.01267  Uiso   1.00
C117   C     0.96790   0.29080   0.46560   0.01267  Uiso   1.00
C118   C     0.67110   0.55830   0.06270   0.01267  Uiso   1.00
C119   C     0.03210   0.46560   0.17480   0.01267  Uiso   1.00
C120   C     0.52030   0.72110   0.77290   0.01267  Uiso   1.00
C121   C     0.75000   0.88840   0.44420   0.01267  Uiso   1.00
C122   C     0.04380   0.04000   0.70440   0.01267  Uiso   1.00
C123   C     0.96420   0.89760   0.32640   0.01267  Uiso   1.00
C124   C     0.25000   0.44420   0.55580   0.01267  Uiso   1.00
C125   C     0.53210   0.17480   0.46560   0.01267  Uiso   1.00
C126   C     0.53580   0.42880   0.32640   0.01267  Uiso   1.00
N1     N     0.48130   0.56100   0.33160   0.01267  Uiso   1.00
N2     N     0.01870   0.56100   0.22940   0.01267  Uiso   1.00
N3     N     0.01870   0.77060   0.33160   0.01267  Uiso   1.00
N4     N     0.08790   0.38980   0.50400   0.01267  Uiso   1.00
N5     N     0.08790   0.49600   0.88580   0.01267  Uiso   1.00
N6     N     0.48130   0.77060   0.43900   0.01267  Uiso   1.00
N7     N     0.41210   0.49600   0.61020   0.01267  Uiso   1.00
N8     N     0.58790   0.61020   0.11420   0.01267  Uiso   1.00
N9     N     0.48130   0.66840   0.22940   0.01267  Uiso   1.00
N10    N     0.98130   0.22940   0.66840   0.01267  Uiso   1.00
N11    N     0.08790   0.11420   0.61020   0.01267  Uiso   1.00
N12    N     0.91210   0.50400   0.11420   0.01267  Uiso   1.00
N13    N     0.58790   0.88580   0.49600   0.01267  Uiso   1.00
N14    N     0.58790   0.50400   0.38980   0.01267  Uiso   1.00
N15    N     0.41210   0.38980   0.88580   0.01267  Uiso   1.00
N16    N     0.91210   0.88580   0.38980   0.01267  Uiso   1.00
N17    N     0.51870   0.33160   0.77060   0.01267  Uiso   1.00
N18    N     0.01870   0.66840   0.43900   0.01267  Uiso   1.00
N19    N     0.98130   0.43900   0.77060   0.01267  Uiso   1.00
N20    N     0.98130   0.33160   0.56100   0.01267  Uiso   1.00
N21    N     0.51870   0.22940   0.56100   0.01267  Uiso   1.00
N22    N     0.41210   0.11420   0.50400   0.01267  Uiso   1.00
N23    N     0.51870   0.43900   0.66840   0.01267  Uiso   1.00
N24    N     0.91210   0.61020   0.49600   0.01267  Uiso   1.00
O1     O     0.18150   0.57460   0.35330   0.01267  Uiso   1.00
O2     O     0.81850   0.22130   0.57460   0.01267  Uiso   1.00
O3     O     0.31850   0.77870   0.35330   0.01267  Uiso   1.00
O4     O     0.68150   0.42540   0.77870   0.01267  Uiso   1.00
O5     O     0.68150   0.35330   0.57460   0.01267  Uiso   1.00
O6     O     0.81850   0.35330   0.77870   0.01267  Uiso   1.00
O7     O     0.18150   0.64670   0.22130   0.01267  Uiso   1.00
O8     O     0.31850   0.57460   0.22130   0.01267  Uiso   1.00
O9     O     0.81850   0.42540   0.64670   0.01267  Uiso   1.00
O10    O     0.68150   0.22130   0.64670   0.01267  Uiso   1.00
O11    O     0.31850   0.64670   0.42540   0.01267  Uiso   1.00
O12    O     0.18150   0.77870   0.42540   0.01267  Uiso   1.00
