data_cg500033b_si_002_freeONLY
_audit_creation_date              2015-08-19
_audit_creation_method            'Materials Studio'
_symmetry_space_group_name_H-M    'P1'
_symmetry_Int_Tables_number       1
_symmetry_cell_setting            triclinic
loop_
_symmetry_equiv_pos_as_xyz
  x,y,z
_cell_length_a                    12.5460
_cell_length_b                    15.7340
_cell_length_c                    26.6330
_cell_angle_alpha                 90.0000
_cell_angle_beta                  90.0000
_cell_angle_gamma                 97.8690
loop_
_atom_site_label
_atom_site_type_symbol
_atom_site_fract_x
_atom_site_fract_y
_atom_site_fract_z
_atom_site_U_iso_or_equiv
_atom_site_adp_type
_atom_site_occupancy
Zn1    Zn    0.30844   0.81744   0.74802   0.01267  Uiso   1.00
Zn2    Zn    0.85217   0.87769   0.25606   0.01267  Uiso   1.00
Zn3    Zn    0.14783   0.62231   0.75606   0.01267  Uiso   1.00
Zn4    Zn    0.69156   0.68256   0.24802   0.01267  Uiso   1.00
H1     H     0.11750   0.27760   0.28620   0.01267  Uiso   1.00
H2     H     0.92310   0.54760   0.73330   0.01267  Uiso   1.00
H3     H     0.19270   0.87280   0.59570   0.01267  Uiso   1.00
H4     H     0.19110   0.07770   0.23790   0.01267  Uiso   1.00
H5     H     0.49980   0.99710   0.42250   0.01267  Uiso   1.00
H6     H     0.04360   0.32380   0.81270   0.01267  Uiso   1.00
H7     H     0.57810   0.21420   0.78810   0.01267  Uiso   1.00
H8     H     0.64790   0.74200   0.89500   0.01267  Uiso   1.00
H9     H     0.47950   0.74170   0.33600   0.01267  Uiso   1.00
H10    H     0.14500   0.45420   0.80690   0.01267  Uiso   1.00
H11    H     0.19700   0.90910   0.51190   0.01267  Uiso   1.00
H12    H     0.63170   0.97470   0.36540   0.01267  Uiso   1.00
H13    H     0.85500   0.04580   0.30690   0.01267  Uiso   1.00
H14    H     0.94670   0.70090   0.85460   0.01267  Uiso   1.00
H15    H     0.10530   0.93690   0.85230   0.01267  Uiso   1.00
H16    H     0.00210   0.82410   0.08820   0.01267  Uiso   1.00
H17    H     0.89470   0.56310   0.35230   0.01267  Uiso   1.00
H18    H     0.70180   0.91810   0.01950   0.01267  Uiso   1.00
H19    H     0.35210   0.75800   0.39500   0.01267  Uiso   1.00
H20    H     0.80890   0.42230   0.73790   0.01267  Uiso   1.00
H21    H     0.50020   0.50290   0.92250   0.01267  Uiso   1.00
H22    H     0.54160   0.89020   0.73310   0.01267  Uiso   1.00
H23    H     0.71680   0.90770   0.10460   0.01267  Uiso   1.00
H24    H     0.30970   0.98390   0.80220   0.01267  Uiso   1.00
H25    H     0.47900   0.82610   0.49660   0.01267  Uiso   1.00
H26    H     0.01700   0.66830   0.50210   0.01267  Uiso   1.00
H27    H     0.69030   0.51610   0.30220   0.01267  Uiso   1.00
H28    H     0.07690   0.95240   0.23330   0.01267  Uiso   1.00
H29    H     0.48050   0.79500   0.58200   0.01267  Uiso   1.00
H30    H     0.80300   0.59090   0.01190   0.01267  Uiso   1.00
H31    H     0.42190   0.28580   0.28810   0.01267  Uiso   1.00
H32    H     0.51950   0.70500   0.08200   0.01267  Uiso   1.00
H33    H     0.41310   0.11590   0.80890   0.01267  Uiso   1.00
H34    H     0.16350   0.75880   0.41650   0.01267  Uiso   1.00
H35    H     0.83650   0.74120   0.91650   0.01267  Uiso   1.00
H36    H     0.98720   0.97730   0.91150   0.01267  Uiso   1.00
H37    H     0.98300   0.83170   0.00210   0.01267  Uiso   1.00
H38    H     0.36830   0.52530   0.86540   0.01267  Uiso   1.00
H39    H     0.52100   0.67390   0.99660   0.01267  Uiso   1.00
H40    H     0.64840   0.01750   0.73830   0.01267  Uiso   1.00
H41    H     0.29820   0.58190   0.51950   0.01267  Uiso   1.00
H42    H     0.45840   0.60980   0.23310   0.01267  Uiso   1.00
H43    H     0.05330   0.79910   0.35460   0.01267  Uiso   1.00
H44    H     0.58690   0.38410   0.30890   0.01267  Uiso   1.00
H45    H     0.95640   0.17620   0.31270   0.01267  Uiso   1.00
H46    H     0.80730   0.62720   0.09570   0.01267  Uiso   1.00
H47    H     0.01280   0.52270   0.41150   0.01267  Uiso   1.00
H48    H     0.35160   0.48250   0.23830   0.01267  Uiso   1.00
H49    H     0.99790   0.67590   0.58820   0.01267  Uiso   1.00
H50    H     0.52050   0.75830   0.83600   0.01267  Uiso   1.00
H51    H     0.28320   0.59230   0.60460   0.01267  Uiso   1.00
H52    H     0.88250   0.22240   0.78620   0.01267  Uiso   1.00
C1     C     0.40750   0.80220   0.38840   0.01267  Uiso   1.00
C2     C     0.95050   0.60300   0.36410   0.01267  Uiso   1.00
C3     C     0.03650   0.81390   0.84589   0.01267  Uiso   1.00
C4     C     0.59250   0.69780   0.88840   0.01267  Uiso   1.00
C5     C     0.84350   0.87770   0.00336   0.01267  Uiso   1.00
C6     C     0.51610   0.70720   0.85390   0.01267  Uiso   1.00
C7     C     0.14820   0.23010   0.27570   0.01267  Uiso   1.00
C8     C     0.08550   0.14420   0.27490   0.01267  Uiso   1.00
C9     C     0.37850   0.99150   0.78836   0.01267  Uiso   1.00
C10    C     0.39250   0.33300   0.27610   0.01267  Uiso   1.00
C11    C     0.07700   0.44660   0.79232   0.01267  Uiso   1.00
C12    C     0.65050   0.84090   0.30670   0.01267  Uiso   1.00
C13    C     0.42220   0.81750   0.56822   0.01267  Uiso   1.00
C14    C     0.41400   0.88050   0.41410   0.01267  Uiso   1.00
C15    C     0.22850   0.60720   0.58416   0.01267  Uiso   1.00
C16    C     0.44050   0.07090   0.79300   0.01267  Uiso   1.00
C17    C     0.49630   0.94520   0.40550   0.01267  Uiso   1.00
C18    C     0.05910   0.65740   0.57471   0.01267  Uiso   1.00
C19    C     0.94660   0.50120   0.74956   0.01267  Uiso   1.00
C20    C     0.51480   0.93650   0.74779   0.01267  Uiso   1.00
C21    C     0.66210   0.66860   0.09847   0.01267  Uiso   1.00
C22    C     0.57790   0.66350   0.01710   0.01267  Uiso   1.00
C23    C     0.11070   0.78690   0.80748   0.01267  Uiso   1.00
C24    C     0.88930   0.71310   0.30748   0.01267  Uiso   1.00
C25    C     0.13870   0.63570   0.60646   0.01267  Uiso   1.00
C26    C     0.54260   0.08230   0.77385   0.01267  Uiso   1.00
C27    C     0.77150   0.89280   0.08416   0.01267  Uiso   1.00
C28    C     0.57890   0.01210   0.75124   0.01267  Uiso   1.00
C29    C     0.93030   0.84820   0.02311   0.01267  Uiso   1.00
C30    C     0.34950   0.65910   0.80670   0.01267  Uiso   1.00
C31    C     0.74800   0.63550   0.07630   0.01267  Uiso   1.00
C32    C     0.60750   0.16700   0.77610   0.01267  Uiso   1.00
C33    C     0.97950   0.92100   0.90000   0.01267  Uiso   1.00
C34    C     0.12530   0.63780   0.66041   0.01267  Uiso   1.00
C35    C     0.95650   0.75730   0.86590   0.01267  Uiso   1.00
C36    C     0.23770   0.60070   0.53362   0.01267  Uiso   1.00
C37    C     0.04350   0.74270   0.36590   0.01267  Uiso   1.00
C38    C     0.94090   0.84260   0.07471   0.01267  Uiso   1.00
C39    C     0.33790   0.83140   0.59847   0.01267  Uiso   1.00
C40    C     0.04950   0.89700   0.86410   0.01267  Uiso   1.00
C41    C     0.02050   0.57900   0.40000   0.01267  Uiso   1.00
C42    C     0.58600   0.61950   0.91410   0.01267  Uiso   1.00
C43    C     0.74640   0.61490   0.02623   0.01267  Uiso   1.00
C44    C     0.12230   0.07350   0.25150   0.01267  Uiso   1.00
C45    C     0.15650   0.62230   0.50336   0.01267  Uiso   1.00
C46    C     0.98310   0.13160   0.29615   0.01267  Uiso   1.00
C47    C     0.43130   0.64310   0.84448   0.01267  Uiso   1.00
C48    C     0.96350   0.68610   0.34589   0.01267  Uiso   1.00
C49    C     0.57420   0.93180   0.37090   0.01267  Uiso   1.00
C50    C     0.42210   0.83650   0.51710   0.01267  Uiso   1.00
C51    C     0.05340   0.99880   0.24956   0.01267  Uiso   1.00
C52    C     0.48390   0.79280   0.35390   0.01267  Uiso   1.00
C53    C     0.45740   0.41770   0.27385   0.01267  Uiso   1.00
C54    C     0.87770   0.42650   0.75150   0.01267  Uiso   1.00
C55    C     0.92300   0.05340   0.29232   0.01267  Uiso   1.00
C56    C     0.55950   0.42910   0.29300   0.01267  Uiso   1.00
C57    C     0.09890   0.63670   0.41800   0.01267  Uiso   1.00
C58    C     0.86130   0.86430   0.10646   0.01267  Uiso   1.00
C59    C     0.33810   0.87020   0.49802   0.01267  Uiso   1.00
C60    C     0.66190   0.62980   0.99802   0.01267  Uiso   1.00
C61    C     0.48520   0.56350   0.24779   0.01267  Uiso   1.00
C62    C     0.91450   0.35580   0.77490   0.01267  Uiso   1.00
C63    C     0.88950   0.78140   0.90250   0.01267  Uiso   1.00
C64    C     0.25200   0.86450   0.57630   0.01267  Uiso   1.00
C65    C     0.90110   0.86330   0.91800   0.01267  Uiso   1.00
C66    C     0.11050   0.71860   0.40250   0.01267  Uiso   1.00
C67    C     0.62150   0.50850   0.28836   0.01267  Uiso   1.00
C68    C     0.85180   0.26990   0.77570   0.01267  Uiso   1.00
C69    C     0.25360   0.88510   0.52623   0.01267  Uiso   1.00
C70    C     0.42110   0.48790   0.25124   0.01267  Uiso   1.00
C71    C     0.76230   0.89930   0.03362   0.01267  Uiso   1.00
C72    C     0.65900   0.68530   0.15326   0.01267  Uiso   1.00
C73    C     0.50370   0.55480   0.90550   0.01267  Uiso   1.00
C74    C     0.06970   0.65180   0.52311   0.01267  Uiso   1.00
C75    C     0.56870   0.85690   0.34448   0.01267  Uiso   1.00
C76    C     0.57780   0.68250   0.06822   0.01267  Uiso   1.00
C77    C     0.42580   0.56820   0.87090   0.01267  Uiso   1.00
C78    C     0.34100   0.81470   0.65326   0.01267  Uiso   1.00
C79    C     0.87470   0.86220   0.16041   0.01267  Uiso   1.00
C80    C     0.01690   0.36840   0.79615   0.01267  Uiso   1.00
N1     N     0.95520   0.98720   0.26906   0.01267  Uiso   1.00
N2     N     0.29450   0.32500   0.26130   0.01267  Uiso   1.00
N3     N     0.41280   0.92580   0.76504   0.01267  Uiso   1.00
N4     N     0.58720   0.57420   0.26504   0.01267  Uiso   1.00
N5     N     0.70550   0.17500   0.76130   0.01267  Uiso   1.00
N6     N     0.04480   0.51280   0.76906   0.01267  Uiso   1.00
N7     N     0.24560   0.23730   0.26160   0.01267  Uiso   1.00
N8     N     0.75440   0.26270   0.76160   0.01267  Uiso   1.00
O1     O     0.95810   0.84310   0.18011   0.01267  Uiso   1.00
O2     O     0.91430   0.78660   0.28996   0.01267  Uiso   1.00
O3     O     0.58050   0.71010   0.17282   0.01267  Uiso   1.00
O4     O     0.41950   0.78990   0.67282   0.01267  Uiso   1.00
O5     O     0.25910   0.83010   0.67941   0.01267  Uiso   1.00
O6     O     0.73310   0.89470   0.30245   0.01267  Uiso   1.00
O7     O     0.08570   0.71340   0.78996   0.01267  Uiso   1.00
O8     O     0.80900   0.66140   0.29472   0.01267  Uiso   1.00
O9     O     0.79680   0.88130   0.18825   0.01267  Uiso   1.00
O10    O     0.26690   0.60530   0.80245   0.01267  Uiso   1.00
O11    O     0.17370   0.61160   0.45191   0.01267  Uiso   1.00
O12    O     0.82630   0.88840   0.95191   0.01267  Uiso   1.00
O13    O     0.66910   0.60530   0.94730   0.01267  Uiso   1.00
O14    O     0.36890   0.72560   0.78169   0.01267  Uiso   1.00
O15    O     0.20320   0.61870   0.68825   0.01267  Uiso   1.00
O16    O     0.63110   0.77440   0.28169   0.01267  Uiso   1.00
O17    O     0.33090   0.89470   0.44730   0.01267  Uiso   1.00
O18    O     0.74090   0.66990   0.17941   0.01267  Uiso   1.00
O19    O     0.04190   0.65690   0.68011   0.01267  Uiso   1.00
O20    O     0.19100   0.83860   0.79472   0.01267  Uiso   1.00
Zn5    Zn    0.14783   0.12231   0.74394   0.01267  Uiso   1.00
Zn6    Zn    0.30844   0.31744   0.75198   0.01267  Uiso   1.00
Zn7    Zn    0.69156   0.18256   0.25198   0.01267  Uiso   1.00
Zn8    Zn    0.85217   0.37769   0.24394   0.01267  Uiso   1.00
H53    H     0.36830   0.02530   0.63460   0.01267  Uiso   1.00
H54    H     0.88250   0.72240   0.71380   0.01267  Uiso   1.00
H55    H     0.98720   0.47730   0.58850   0.01267  Uiso   1.00
H56    H     0.50020   0.00290   0.57750   0.01267  Uiso   1.00
H57    H     0.45840   0.10980   0.26690   0.01267  Uiso   1.00
H58    H     0.80730   0.12720   0.40430   0.01267  Uiso   1.00
H59    H     0.19700   0.40910   0.98810   0.01267  Uiso   1.00
H60    H     0.01280   0.02270   0.08850   0.01267  Uiso   1.00
H61    H     0.98300   0.33170   0.49790   0.01267  Uiso   1.00
H62    H     0.57810   0.71420   0.71190   0.01267  Uiso   1.00
H63    H     0.28320   0.09230   0.89540   0.01267  Uiso   1.00
H64    H     0.10530   0.43690   0.64770   0.01267  Uiso   1.00
H65    H     0.47900   0.32610   0.00340   0.01267  Uiso   1.00
H66    H     0.52050   0.25830   0.66400   0.01267  Uiso   1.00
H67    H     0.80300   0.09090   0.48810   0.01267  Uiso   1.00
H68    H     0.49980   0.49710   0.07750   0.01267  Uiso   1.00
H69    H     0.52100   0.17390   0.50340   0.01267  Uiso   1.00
H70    H     0.51950   0.20500   0.41800   0.01267  Uiso   1.00
H71    H     0.35160   0.98250   0.26170   0.01267  Uiso   1.00
H72    H     0.83650   0.24120   0.58350   0.01267  Uiso   1.00
H73    H     0.16350   0.25880   0.08350   0.01267  Uiso   1.00
H74    H     0.42190   0.78580   0.21190   0.01267  Uiso   1.00
H75    H     0.48050   0.29500   0.91800   0.01267  Uiso   1.00
H76    H     0.19270   0.37280   0.90430   0.01267  Uiso   1.00
H77    H     0.99790   0.17590   0.91180   0.01267  Uiso   1.00
H78    H     0.58690   0.88410   0.19110   0.01267  Uiso   1.00
H79    H     0.30970   0.48390   0.69780   0.01267  Uiso   1.00
H80    H     0.64790   0.24200   0.60500   0.01267  Uiso   1.00
H81    H     0.92310   0.04760   0.76670   0.01267  Uiso   1.00
H82    H     0.07690   0.45240   0.26670   0.01267  Uiso   1.00
H83    H     0.71680   0.40770   0.39540   0.01267  Uiso   1.00
H84    H     0.70180   0.41810   0.48050   0.01267  Uiso   1.00
H85    H     0.94670   0.20090   0.64540   0.01267  Uiso   1.00
H86    H     0.11750   0.77760   0.21380   0.01267  Uiso   1.00
H87    H     0.95640   0.67620   0.18730   0.01267  Uiso   1.00
H88    H     0.00210   0.32410   0.41180   0.01267  Uiso   1.00
H89    H     0.89470   0.06310   0.14770   0.01267  Uiso   1.00
H90    H     0.05330   0.29910   0.14540   0.01267  Uiso   1.00
H91    H     0.01700   0.16830   0.99790   0.01267  Uiso   1.00
H92    H     0.04360   0.82380   0.68730   0.01267  Uiso   1.00
H93    H     0.80890   0.92230   0.76210   0.01267  Uiso   1.00
H94    H     0.85500   0.54580   0.19310   0.01267  Uiso   1.00
H95    H     0.63170   0.47470   0.13460   0.01267  Uiso   1.00
H96    H     0.69030   0.01610   0.19780   0.01267  Uiso   1.00
H97    H     0.64840   0.51750   0.76170   0.01267  Uiso   1.00
H98    H     0.41310   0.61590   0.69110   0.01267  Uiso   1.00
H99    H     0.54160   0.39020   0.76690   0.01267  Uiso   1.00
H100   H     0.29820   0.08190   0.98050   0.01267  Uiso   1.00
H101   H     0.47950   0.24170   0.16400   0.01267  Uiso   1.00
H102   H     0.14500   0.95420   0.69310   0.01267  Uiso   1.00
H103   H     0.19110   0.57770   0.26210   0.01267  Uiso   1.00
H104   H     0.35210   0.25800   0.10500   0.01267  Uiso   1.00
C81    C     0.11050   0.21860   0.09750   0.01267  Uiso   1.00
C82    C     0.55950   0.92910   0.20700   0.01267  Uiso   1.00
C83    C     0.06970   0.15180   0.97689   0.01267  Uiso   1.00
C84    C     0.57420   0.43180   0.12910   0.01267  Uiso   1.00
C85    C     0.22850   0.10720   0.91584   0.01267  Uiso   1.00
C86    C     0.49630   0.44520   0.09450   0.01267  Uiso   1.00
C87    C     0.74640   0.11490   0.47377   0.01267  Uiso   1.00
C88    C     0.92300   0.55340   0.20768   0.01267  Uiso   1.00
C89    C     0.77150   0.39280   0.41584   0.01267  Uiso   1.00
C90    C     0.90110   0.36330   0.58200   0.01267  Uiso   1.00
C91    C     0.97950   0.42100   0.60000   0.01267  Uiso   1.00
C92    C     0.13870   0.13570   0.89354   0.01267  Uiso   1.00
C93    C     0.11070   0.28690   0.69252   0.01267  Uiso   1.00
C94    C     0.57890   0.51210   0.74876   0.01267  Uiso   1.00
C95    C     0.15650   0.12230   0.99664   0.01267  Uiso   1.00
C96    C     0.02050   0.07900   0.10000   0.01267  Uiso   1.00
C97    C     0.12530   0.13780   0.83959   0.01267  Uiso   1.00
C98    C     0.76230   0.39930   0.46638   0.01267  Uiso   1.00
C99    C     0.62150   0.00850   0.21164   0.01267  Uiso   1.00
C100   C     0.84350   0.37770   0.49664   0.01267  Uiso   1.00
C101   C     0.23770   0.10070   0.96638   0.01267  Uiso   1.00
C102   C     0.07700   0.94660   0.70768   0.01267  Uiso   1.00
C103   C     0.60750   0.66700   0.72390   0.01267  Uiso   1.00
C104   C     0.34950   0.15910   0.69330   0.01267  Uiso   1.00
C105   C     0.98310   0.63160   0.20385   0.01267  Uiso   1.00
C106   C     0.43130   0.14310   0.65552   0.01267  Uiso   1.00
C107   C     0.25360   0.38510   0.97377   0.01267  Uiso   1.00
C108   C     0.87770   0.92650   0.74850   0.01267  Uiso   1.00
C109   C     0.51610   0.20720   0.64610   0.01267  Uiso   1.00
C110   C     0.66210   0.16860   0.40153   0.01267  Uiso   1.00
C111   C     0.05910   0.15740   0.92529   0.01267  Uiso   1.00
C112   C     0.48520   0.06350   0.25221   0.01267  Uiso   1.00
C113   C     0.04350   0.24270   0.13410   0.01267  Uiso   1.00
C114   C     0.96350   0.18610   0.15411   0.01267  Uiso   1.00
C115   C     0.65900   0.18530   0.34674   0.01267  Uiso   1.00
C116   C     0.85180   0.76990   0.72430   0.01267  Uiso   1.00
C117   C     0.87470   0.36220   0.33959   0.01267  Uiso   1.00
C118   C     0.48390   0.29280   0.14610   0.01267  Uiso   1.00
C119   C     0.88950   0.28140   0.59750   0.01267  Uiso   1.00
C120   C     0.08550   0.64420   0.22510   0.01267  Uiso   1.00
C121   C     0.41400   0.38050   0.08590   0.01267  Uiso   1.00
C122   C     0.54260   0.58230   0.72615   0.01267  Uiso   1.00
C123   C     0.59250   0.19780   0.61160   0.01267  Uiso   1.00
C124   C     0.65050   0.34090   0.19330   0.01267  Uiso   1.00
C125   C     0.12230   0.57350   0.24850   0.01267  Uiso   1.00
C126   C     0.94090   0.34260   0.42529   0.01267  Uiso   1.00
C127   C     0.74800   0.13550   0.42370   0.01267  Uiso   1.00
C128   C     0.95050   0.10300   0.13590   0.01267  Uiso   1.00
C129   C     0.57780   0.18250   0.43178   0.01267  Uiso   1.00
C130   C     0.95650   0.25730   0.63410   0.01267  Uiso   1.00
C131   C     0.58600   0.11950   0.58590   0.01267  Uiso   1.00
C132   C     0.44050   0.57090   0.70700   0.01267  Uiso   1.00
C133   C     0.86130   0.36430   0.39354   0.01267  Uiso   1.00
C134   C     0.88930   0.21310   0.19252   0.01267  Uiso   1.00
C135   C     0.94660   0.00120   0.75044   0.01267  Uiso   1.00
C136   C     0.42220   0.31750   0.93178   0.01267  Uiso   1.00
C137   C     0.91450   0.85580   0.72510   0.01267  Uiso   1.00
C138   C     0.14820   0.73010   0.22430   0.01267  Uiso   1.00
C139   C     0.01690   0.86840   0.70385   0.01267  Uiso   1.00
C140   C     0.45740   0.91770   0.22615   0.01267  Uiso   1.00
C141   C     0.03650   0.31390   0.65411   0.01267  Uiso   1.00
C142   C     0.33810   0.37020   0.00198   0.01267  Uiso   1.00
C143   C     0.93030   0.34820   0.47689   0.01267  Uiso   1.00
C144   C     0.42210   0.33650   0.98290   0.01267  Uiso   1.00
C145   C     0.56870   0.35690   0.15552   0.01267  Uiso   1.00
C146   C     0.50370   0.05480   0.59450   0.01267  Uiso   1.00
C147   C     0.40750   0.30220   0.11160   0.01267  Uiso   1.00
C148   C     0.37850   0.49150   0.71164   0.01267  Uiso   1.00
C149   C     0.42110   0.98790   0.24876   0.01267  Uiso   1.00
C150   C     0.04950   0.39700   0.63590   0.01267  Uiso   1.00
C151   C     0.66190   0.12980   0.50198   0.01267  Uiso   1.00
C152   C     0.09890   0.13670   0.08200   0.01267  Uiso   1.00
C153   C     0.51480   0.43650   0.75221   0.01267  Uiso   1.00
C154   C     0.39250   0.83300   0.22390   0.01267  Uiso   1.00
C155   C     0.05340   0.49880   0.25044   0.01267  Uiso   1.00
C156   C     0.57790   0.16350   0.48290   0.01267  Uiso   1.00
C157   C     0.25200   0.36450   0.92370   0.01267  Uiso   1.00
C158   C     0.33790   0.33140   0.90153   0.01267  Uiso   1.00
C159   C     0.42580   0.06820   0.62910   0.01267  Uiso   1.00
C160   C     0.34100   0.31470   0.84674   0.01267  Uiso   1.00
N9     N     0.58720   0.07420   0.23496   0.01267  Uiso   1.00
N10    N     0.75440   0.76270   0.73840   0.01267  Uiso   1.00
N11    N     0.41280   0.42580   0.73496   0.01267  Uiso   1.00
N12    N     0.70550   0.67500   0.73870   0.01267  Uiso   1.00
N13    N     0.24560   0.73730   0.23840   0.01267  Uiso   1.00
N14    N     0.95520   0.48720   0.23094   0.01267  Uiso   1.00
N15    N     0.04480   0.01280   0.73094   0.01267  Uiso   1.00
N16    N     0.29450   0.82500   0.23870   0.01267  Uiso   1.00
O21    O     0.25910   0.33010   0.82059   0.01267  Uiso   1.00
O22    O     0.66910   0.10530   0.55270   0.01267  Uiso   1.00
O23    O     0.79680   0.38130   0.31175   0.01267  Uiso   1.00
O24    O     0.26690   0.10530   0.69755   0.01267  Uiso   1.00
O25    O     0.91430   0.28660   0.21004   0.01267  Uiso   1.00
O26    O     0.19100   0.33860   0.70528   0.01267  Uiso   1.00
O27    O     0.63110   0.27440   0.21831   0.01267  Uiso   1.00
O28    O     0.82630   0.38840   0.54809   0.01267  Uiso   1.00
O29    O     0.36890   0.22560   0.71831   0.01267  Uiso   1.00
O30    O     0.95810   0.34310   0.31989   0.01267  Uiso   1.00
O31    O     0.33090   0.39470   0.05270   0.01267  Uiso   1.00
O32    O     0.80900   0.16140   0.20528   0.01267  Uiso   1.00
O33    O     0.41950   0.28990   0.82718   0.01267  Uiso   1.00
O34    O     0.58050   0.21010   0.32718   0.01267  Uiso   1.00
O35    O     0.04190   0.15690   0.81989   0.01267  Uiso   1.00
O36    O     0.74090   0.16990   0.32059   0.01267  Uiso   1.00
O37    O     0.08570   0.21340   0.71004   0.01267  Uiso   1.00
O38    O     0.20320   0.11870   0.81175   0.01267  Uiso   1.00
O39    O     0.73310   0.39470   0.19755   0.01267  Uiso   1.00
O40    O     0.17370   0.11160   0.04809   0.01267  Uiso   1.00
