data_cg500192d_si_003_freeONLY
_audit_creation_date              2015-08-19
_audit_creation_method            'Materials Studio'
_symmetry_space_group_name_H-M    'P1'
_symmetry_Int_Tables_number       1
_symmetry_cell_setting            triclinic
loop_
_symmetry_equiv_pos_as_xyz
  x,y,z
_cell_length_a                    14.0500
_cell_length_b                    20.1560
_cell_length_c                    20.3780
_cell_angle_alpha                 90.0000
_cell_angle_beta                  101.7170
_cell_angle_gamma                 90.0000
loop_
_atom_site_label
_atom_site_type_symbol
_atom_site_fract_x
_atom_site_fract_y
_atom_site_fract_z
_atom_site_U_iso_or_equiv
_atom_site_adp_type
_atom_site_occupancy
Cd1    Cd    0.10294   0.04019   0.03415   0.01267  Uiso   1.00
Cd2    Cd    0.10294   0.45981   0.53415   0.01267  Uiso   1.00
Cd3    Cd    0.89706   0.54019   0.46585   0.01267  Uiso   1.00
Cd4    Cd    0.89706   0.95981   0.96585   0.01267  Uiso   1.00
H1     H     0.05060   0.20850   0.87870   0.01267  Uiso   1.00
H2     H     0.75530   0.43180   0.57860   0.01267  Uiso   1.00
H3     H     0.54320   0.99580   0.95190   0.01267  Uiso   1.00
H4     H     0.80310   0.39070   0.31020   0.01267  Uiso   1.00
H5     H     0.00060   0.29110   0.79930   0.01267  Uiso   1.00
H6     H     0.45060   0.79750   0.85590   0.01267  Uiso   1.00
H7     H     0.45680   0.49580   0.54810   0.01267  Uiso   1.00
H8     H     0.99940   0.70890   0.20070   0.01267  Uiso   1.00
H9     H     0.45680   0.00420   0.04810   0.01267  Uiso   1.00
H10    H     0.75530   0.06820   0.07860   0.01267  Uiso   1.00
H11    H     0.45060   0.70250   0.35590   0.01267  Uiso   1.00
H12    H     0.05060   0.29150   0.37870   0.01267  Uiso   1.00
H13    H     0.38560   0.17640   0.11440   0.01267  Uiso   1.00
H14    H     0.54940   0.20250   0.14410   0.01267  Uiso   1.00
H15    H     0.24730   0.69050   0.76530   0.01267  Uiso   1.00
H16    H     0.02990   0.82460   0.81270   0.01267  Uiso   1.00
H17    H     0.94940   0.70850   0.62130   0.01267  Uiso   1.00
H18    H     0.80310   0.10930   0.81020   0.01267  Uiso   1.00
H19    H     0.54320   0.50420   0.45190   0.01267  Uiso   1.00
H20    H     0.38480   0.52920   0.41810   0.01267  Uiso   1.00
H21    H     0.61440   0.82360   0.88560   0.01267  Uiso   1.00
H22    H     0.69560   0.20220   0.20840   0.01267  Uiso   1.00
H23    H     0.97010   0.32460   0.68730   0.01267  Uiso   1.00
H24    H     0.61440   0.67640   0.38560   0.01267  Uiso   1.00
H25    H     0.54940   0.29750   0.64410   0.01267  Uiso   1.00
H26    H     0.24470   0.56820   0.42140   0.01267  Uiso   1.00
H27    H     0.97010   0.17540   0.18730   0.01267  Uiso   1.00
H28    H     0.61520   0.47080   0.58190   0.01267  Uiso   1.00
H29    H     0.19690   0.60930   0.68980   0.01267  Uiso   1.00
H30    H     0.94940   0.79150   0.12130   0.01267  Uiso   1.00
H31    H     0.24470   0.93180   0.92140   0.01267  Uiso   1.00
H32    H     0.00060   0.20890   0.29930   0.01267  Uiso   1.00
H33    H     0.75270   0.19050   0.73470   0.01267  Uiso   1.00
H34    H     0.75270   0.30950   0.23470   0.01267  Uiso   1.00
H35    H     0.19690   0.89070   0.18980   0.01267  Uiso   1.00
H36    H     0.61520   0.02920   0.08190   0.01267  Uiso   1.00
H37    H     0.69560   0.29780   0.70840   0.01267  Uiso   1.00
H38    H     0.30440   0.70220   0.29160   0.01267  Uiso   1.00
H39    H     0.02990   0.67540   0.31270   0.01267  Uiso   1.00
H40    H     0.38560   0.32360   0.61440   0.01267  Uiso   1.00
H41    H     0.24730   0.80950   0.26530   0.01267  Uiso   1.00
H42    H     0.38480   0.97080   0.91810   0.01267  Uiso   1.00
H43    H     0.99940   0.79110   0.70070   0.01267  Uiso   1.00
H44    H     0.30440   0.79780   0.79160   0.01267  Uiso   1.00
C1     C     0.43230   0.14500   0.10970   0.01267  Uiso   1.00
C2     C     0.46880   0.66030   0.37220   0.01267  Uiso   1.00
C3     C     0.83750   0.19880   0.20610   0.01267  Uiso   1.00
C4     C     0.70180   0.93490   0.93590   0.01267  Uiso   1.00
C5     C     0.03930   0.75470   0.69850   0.01267  Uiso   1.00
C6     C     0.56990   0.44040   0.59120   0.01267  Uiso   1.00
C7     C     0.81330   0.30580   0.26310   0.01267  Uiso   1.00
C8     C     0.22460   0.89860   0.88990   0.01267  Uiso   1.00
C9     C     0.87090   0.24990   0.75730   0.01267  Uiso   1.00
C10    C     0.52690   0.95640   0.92850   0.01267  Uiso   1.00
C11    C     0.00910   0.79510   0.15080   0.01267  Uiso   1.00
C12    C     0.09570   0.66540   0.32480   0.01267  Uiso   1.00
C13    C     0.53120   0.33970   0.62780   0.01267  Uiso   1.00
C14    C     0.59610   0.91930   0.91610   0.01267  Uiso   1.00
C15    C     0.25980   0.68110   0.31250   0.01267  Uiso   1.00
C16    C     0.60330   0.38520   0.62230   0.01267  Uiso   1.00
C17    C     0.09570   0.83460   0.82480   0.01267  Uiso   1.00
C18    C     0.93320   0.15120   0.85240   0.01267  Uiso   1.00
C19    C     0.99090   0.20490   0.84920   0.01267  Uiso   1.00
C20    C     0.59610   0.58070   0.41610   0.01267  Uiso   1.00
C21    C     0.06680   0.65120   0.64760   0.01267  Uiso   1.00
C22    C     0.29820   0.06510   0.06410   0.01267  Uiso   1.00
C23    C     0.94310   0.41620   0.59040   0.01267  Uiso   1.00
C24    C     0.39670   0.61480   0.37770   0.01267  Uiso   1.00
C25    C     0.12910   0.74990   0.74270   0.01267  Uiso   1.00
C26    C     0.18670   0.80580   0.23690   0.01267  Uiso   1.00
C27    C     0.90430   0.16540   0.17520   0.01267  Uiso   1.00
C28    C     0.47310   0.04360   0.07150   0.01267  Uiso   1.00
C29    C     0.56990   0.05960   0.09120   0.01267  Uiso   1.00
C30    C     0.18670   0.69420   0.73690   0.01267  Uiso   1.00
C31    C     0.12730   0.61760   0.37340   0.01267  Uiso   1.00
C32    C     0.29360   0.63330   0.36090   0.01267  Uiso   1.00
C33    C     0.70640   0.36670   0.63910   0.01267  Uiso   1.00
C34    C     0.60330   0.11480   0.12230   0.01267  Uiso   1.00
C35    C     0.56770   0.85500   0.89030   0.01267  Uiso   1.00
C36    C     0.40390   0.41930   0.58390   0.01267  Uiso   1.00
C37    C     0.29820   0.43490   0.56410   0.01267  Uiso   1.00
C38    C     0.53120   0.16030   0.12780   0.01267  Uiso   1.00
C39    C     0.96330   0.40360   0.40500   0.01267  Uiso   1.00
C40    C     0.96330   0.09640   0.90500   0.01267  Uiso   1.00
C41    C     0.39670   0.88520   0.87770   0.01267  Uiso   1.00
C42    C     0.05690   0.58380   0.40960   0.01267  Uiso   1.00
C43    C     0.43010   0.94040   0.90880   0.01267  Uiso   1.00
C44    C     0.03670   0.90360   0.09500   0.01267  Uiso   1.00
C45    C     0.99090   0.29510   0.34920   0.01267  Uiso   1.00
C46    C     0.16250   0.69880   0.29390   0.01267  Uiso   1.00
C47    C     0.06680   0.84880   0.14760   0.01267  Uiso   1.00
C48    C     0.47310   0.45640   0.57150   0.01267  Uiso   1.00
C49    C     0.87090   0.25010   0.25730   0.01267  Uiso   1.00
C50    C     0.56770   0.64500   0.39030   0.01267  Uiso   1.00
C51    C     0.84260   0.35400   0.30820   0.01267  Uiso   1.00
C52    C     0.52690   0.54360   0.42850   0.01267  Uiso   1.00
C53    C     0.87270   0.38240   0.62660   0.01267  Uiso   1.00
C54    C     0.25980   0.81890   0.81250   0.01267  Uiso   1.00
C55    C     0.15740   0.85400   0.19180   0.01267  Uiso   1.00
C56    C     0.40390   0.08070   0.08390   0.01267  Uiso   1.00
C57    C     0.81330   0.19420   0.76310   0.01267  Uiso   1.00
C58    C     0.15740   0.64600   0.69180   0.01267  Uiso   1.00
C59    C     0.87270   0.11760   0.12660   0.01267  Uiso   1.00
C60    C     0.05690   0.91620   0.90960   0.01267  Uiso   1.00
C61    C     0.43230   0.35500   0.60970   0.01267  Uiso   1.00
C62    C     0.22460   0.60140   0.38990   0.01267  Uiso   1.00
C63    C     0.43010   0.55960   0.40880   0.01267  Uiso   1.00
C64    C     0.74020   0.31890   0.68750   0.01267  Uiso   1.00
C65    C     0.70180   0.56510   0.43590   0.01267  Uiso   1.00
C66    C     0.03670   0.59640   0.59500   0.01267  Uiso   1.00
C67    C     0.46880   0.83970   0.87220   0.01267  Uiso   1.00
C68    C     0.03930   0.74530   0.19850   0.01267  Uiso   1.00
C69    C     0.12910   0.75010   0.24270   0.01267  Uiso   1.00
C70    C     0.96070   0.25470   0.80150   0.01267  Uiso   1.00
C71    C     0.77540   0.39860   0.61010   0.01267  Uiso   1.00
C72    C     0.83750   0.30120   0.70610   0.01267  Uiso   1.00
C73    C     0.00910   0.70490   0.65080   0.01267  Uiso   1.00
C74    C     0.12730   0.88240   0.87340   0.01267  Uiso   1.00
C75    C     0.94310   0.08380   0.09040   0.01267  Uiso   1.00
C76    C     0.74020   0.18110   0.18750   0.01267  Uiso   1.00
C77    C     0.77540   0.10140   0.11010   0.01267  Uiso   1.00
C78    C     0.29360   0.86670   0.86090   0.01267  Uiso   1.00
C79    C     0.16250   0.80120   0.79390   0.01267  Uiso   1.00
C80    C     0.90430   0.33460   0.67520   0.01267  Uiso   1.00
C81    C     0.96070   0.24530   0.30150   0.01267  Uiso   1.00
C82    C     0.84260   0.14600   0.80820   0.01267  Uiso   1.00
C83    C     0.93320   0.34880   0.35240   0.01267  Uiso   1.00
C84    C     0.70640   0.13330   0.13910   0.01267  Uiso   1.00
O1     O     0.72800   0.51950   0.46920   0.01267  Uiso   1.00
O2     O     0.09340   0.54970   0.59750   0.01267  Uiso   1.00
O3     O     0.72800   0.98050   0.96920   0.01267  Uiso   1.00
O4     O     0.04270   0.39450   0.44600   0.01267  Uiso   1.00
O5     O     0.97000   0.89710   0.89740   0.01267  Uiso   1.00
O6     O     0.23840   0.10290   0.07970   0.01267  Uiso   1.00
O7     O     0.91100   0.03960   0.04900   0.01267  Uiso   1.00
O8     O     0.76160   0.60290   0.42030   0.01267  Uiso   1.00
O9     O     0.03000   0.39710   0.60260   0.01267  Uiso   1.00
O10    O     0.23840   0.39710   0.57970   0.01267  Uiso   1.00
O11    O     0.90660   0.45030   0.40250   0.01267  Uiso   1.00
O12    O     0.27200   0.01950   0.03080   0.01267  Uiso   1.00
O13    O     0.03000   0.10290   0.10260   0.01267  Uiso   1.00
O14    O     0.08900   0.53960   0.45100   0.01267  Uiso   1.00
O15    O     0.09340   0.95030   0.09750   0.01267  Uiso   1.00
O16    O     0.27200   0.48050   0.53080   0.01267  Uiso   1.00
O17    O     0.08900   0.96040   0.95100   0.01267  Uiso   1.00
O18    O     0.76160   0.89710   0.92030   0.01267  Uiso   1.00
O19    O     0.90660   0.04970   0.90250   0.01267  Uiso   1.00
O20    O     0.97000   0.60290   0.39740   0.01267  Uiso   1.00
O21    O     0.04270   0.10550   0.94600   0.01267  Uiso   1.00
O22    O     0.95730   0.60550   0.55400   0.01267  Uiso   1.00
O23    O     0.95730   0.89450   0.05400   0.01267  Uiso   1.00
O24    O     0.91100   0.46040   0.54900   0.01267  Uiso   1.00
