data_cg5010616_si_007_freeONLY
_audit_creation_date              2015-08-19
_audit_creation_method            'Materials Studio'
_symmetry_space_group_name_H-M    'P1'
_symmetry_Int_Tables_number       1
_symmetry_cell_setting            triclinic
loop_
_symmetry_equiv_pos_as_xyz
  x,y,z
_cell_length_a                    9.5778
_cell_length_b                    15.6062
_cell_length_c                    15.6062
_cell_angle_alpha                 64.0730
_cell_angle_beta                  78.1956
_cell_angle_gamma                 101.8040
loop_
_atom_site_label
_atom_site_type_symbol
_atom_site_fract_x
_atom_site_fract_y
_atom_site_fract_z
_atom_site_U_iso_or_equiv
_atom_site_adp_type
_atom_site_occupancy
Fe1    Fe    0.00000   0.00000   0.50000   0.01267  Uiso   1.00
Fe2    Fe    0.50000   0.50000   0.50000   0.01267  Uiso   1.00
Fe3    Fe    0.00000   0.50000   0.00000   0.01267  Uiso   1.00
Si1    Si    0.79300   0.29300   0.41400   0.01267  Uiso   1.00
Si2    Si    0.79300   0.58600   0.70700   0.01267  Uiso   1.00
Si3    Si    0.20700   0.70700   0.58600   0.01267  Uiso   1.00
Si4    Si    0.50000   0.29300   0.29300   0.01267  Uiso   1.00
Si5    Si    0.20700   0.41400   0.29300   0.01267  Uiso   1.00
Si6    Si    0.50000   0.70700   0.70700   0.01267  Uiso   1.00
H1     H     0.12190   0.14810   0.27520   0.01267  Uiso   1.00
H2     H     0.82820   0.84860   0.87570   0.01267  Uiso   1.00
H3     H     0.97380   0.57670   0.14810   0.01267  Uiso   1.00
H4     H     0.02620   0.14810   0.57670   0.01267  Uiso   1.00
H5     H     0.97960   0.15140   0.72430   0.01267  Uiso   1.00
H6     H     0.29610   0.27570   0.87570   0.01267  Uiso   1.00
H7     H     0.70390   0.72430   0.12430   0.01267  Uiso   1.00
H8     H     0.17180   0.87570   0.84860   0.01267  Uiso   1.00
H9     H     0.39710   0.27520   0.57670   0.01267  Uiso   1.00
H10    H     0.82820   0.12430   0.15140   0.01267  Uiso   1.00
H11    H     0.60290   0.57670   0.27520   0.01267  Uiso   1.00
H12    H     0.17180   0.15140   0.12430   0.01267  Uiso   1.00
H13    H     0.87810   0.27520   0.14810   0.01267  Uiso   1.00
H14    H     0.29610   0.12430   0.72430   0.01267  Uiso   1.00
H15    H     0.39710   0.42330   0.72480   0.01267  Uiso   1.00
H16    H     0.02620   0.42330   0.85190   0.01267  Uiso   1.00
H17    H     0.70390   0.87570   0.27570   0.01267  Uiso   1.00
H18    H     0.87810   0.85190   0.72480   0.01267  Uiso   1.00
H19    H     0.02040   0.84860   0.27570   0.01267  Uiso   1.00
H20    H     0.60290   0.72480   0.42330   0.01267  Uiso   1.00
H21    H     0.12190   0.72480   0.85190   0.01267  Uiso   1.00
H22    H     0.97380   0.85190   0.42330   0.01267  Uiso   1.00
H23    H     0.97960   0.27570   0.84860   0.01267  Uiso   1.00
H24    H     0.02040   0.72430   0.15140   0.01267  Uiso   1.00
C1     C     0.31130   0.60590   0.82000   0.01267  Uiso   1.00
C2     C     0.29460   0.60590   0.57410   0.01267  Uiso   1.00
C3     C     0.04250   0.91030   0.27410   0.01267  Uiso   1.00
C4     C     0.13130   0.42590   0.18000   0.01267  Uiso   1.00
C5     C     0.37660   0.36260   0.72470   0.01267  Uiso   1.00
C6     C     0.86780   0.18440   0.08970   0.01267  Uiso   1.00
C7     C     0.71380   0.81800   0.18200   0.01267  Uiso   1.00
C8     C     0.70540   0.39410   0.42590   0.01267  Uiso   1.00
C9     C     0.89870   0.27530   0.08730   0.01267  Uiso   1.00
C10    C     0.77580   0.91430   0.08570   0.01267  Uiso   1.00
C11    C     0.68340   0.81560   0.27410   0.01267  Uiso   1.00
C12    C     0.13220   0.81560   0.91030   0.01267  Uiso   1.00
C13    C     0.98600   0.08730   0.63740   0.01267  Uiso   1.00
C14    C     0.31130   0.18000   0.39410   0.01267  Uiso   1.00
C15    C     0.86150   0.08570  -0.00000   0.01267  Uiso   1.00
C16    C     0.01400   0.91270   0.36260   0.01267  Uiso   1.00
C17    C     0.10420   0.81800   0.00000   0.01267  Uiso   1.00
C18    C     0.86870   0.18000   0.42590   0.01267  Uiso   1.00
C19    C     0.31660   0.18440   0.72590   0.01267  Uiso   1.00
C20    C     0.01400   0.63740   0.08730   0.01267  Uiso   1.00
C21    C     0.89580   0.00000   0.81800   0.01267  Uiso   1.00
C22    C     0.13220   0.08970   0.18440   0.01267  Uiso   1.00
C23    C     0.29460   0.42590   0.39410   0.01267  Uiso   1.00
C24    C     0.10130   0.08730   0.27530   0.01267  Uiso   1.00
C25    C     0.70540   0.57410   0.60590   0.01267  Uiso   1.00
C26    C     0.62340   0.72470   0.36260   0.01267  Uiso   1.00
C27    C     0.10130   0.72470   0.91270   0.01267  Uiso   1.00
C28    C     0.68870   0.39410   0.18000   0.01267  Uiso   1.00
C29    C     0.86780   0.91030   0.81560   0.01267  Uiso   1.00
C30    C     0.28620   0.18200   0.81800   0.01267  Uiso   1.00
C31    C     0.31660   0.27410   0.81560   0.01267  Uiso   1.00
C32    C     0.13850   0.00000   0.08570   0.01267  Uiso   1.00
C33    C     0.62340   0.63740   0.27530   0.01267  Uiso   1.00
C34    C     0.95750   0.27410   0.91030   0.01267  Uiso   1.00
C35    C     0.86870   0.57410   0.82000   0.01267  Uiso   1.00
C36    C     0.37660   0.27530   0.63740   0.01267  Uiso   1.00
C37    C     0.13130   0.82000   0.57410   0.01267  Uiso   1.00
C38    C     0.13850   0.91430   0.00000   0.01267  Uiso   1.00
C39    C     0.10420   0.00000   0.18200   0.01267  Uiso   1.00
C40    C     0.04250   0.72590   0.08970   0.01267  Uiso   1.00
C41    C     0.68340   0.72590   0.18440   0.01267  Uiso   1.00
C42    C     0.89580   0.18200  -0.00000   0.01267  Uiso   1.00
C43    C     0.95750   0.08970   0.72590   0.01267  Uiso   1.00
C44    C     0.86150   0.00000   0.91430   0.01267  Uiso   1.00
C45    C     0.98600   0.36260   0.91270   0.01267  Uiso   1.00
C46    C     0.89870   0.91270   0.72470   0.01267  Uiso   1.00
C47    C     0.22420   0.08570   0.91430   0.01267  Uiso   1.00
C48    C     0.68870   0.82000   0.60590   0.01267  Uiso   1.00
N1     N     0.89480   0.08860   0.91140   0.01267  Uiso   1.00
N2     N     0.19380  -0.00000   0.91140   0.01267  Uiso   1.00
N3     N     0.59310   0.63560   0.36440   0.01267  Uiso   1.00
N4     N     0.90870   0.55400   0.88870   0.01267  Uiso   1.00
N5     N     0.64530   0.44270   0.44600   0.01267  Uiso   1.00
N6     N     0.79740   0.88870   0.55730   0.01267  Uiso   1.00
N7     N     0.35470   0.44600   0.44270   0.01267  Uiso   1.00
N8     N     0.09130   0.88870   0.55400   0.01267  Uiso   1.00
N9     N     0.04250   0.63560   0.00000   0.01267  Uiso   1.00
N10    N     0.95750   0.00000   0.63560   0.01267  Uiso   1.00
N11    N     0.90870   0.11130   0.44600   0.01267  Uiso   1.00
N12    N     0.19380   0.08860   0.00000   0.01267  Uiso   1.00
N13    N     0.80620   0.91140   0.00000   0.01267  Uiso   1.00
N14    N     0.79740   0.44270   0.11130   0.01267  Uiso   1.00
N15    N     0.95750   0.36440   0.00000   0.01267  Uiso   1.00
N16    N     0.80620  -0.00000   0.08860   0.01267  Uiso   1.00
N17    N     0.09130   0.44600   0.11130   0.01267  Uiso   1.00
N18    N     0.64530   0.55400   0.55730   0.01267  Uiso   1.00
N19    N     0.35470   0.55730   0.55400   0.01267  Uiso   1.00
N20    N     0.20260   0.11130   0.44270   0.01267  Uiso   1.00
N21    N     0.04250   0.00000   0.36440   0.01267  Uiso   1.00
N22    N     0.10520   0.91140   0.08860   0.01267  Uiso   1.00
N23    N     0.40690   0.36440   0.63560   0.01267  Uiso   1.00
N24    N     0.20260   0.55730   0.88870   0.01267  Uiso   1.00
