data_cg500033b_si_003_freeONLY
_audit_creation_date              2015-08-19
_audit_creation_method            'Materials Studio'
_symmetry_space_group_name_H-M    'P1'
_symmetry_Int_Tables_number       1
_symmetry_cell_setting            triclinic
loop_
_symmetry_equiv_pos_as_xyz
  x,y,z
_cell_length_a                    8.1923
_cell_length_b                    14.0159
_cell_length_c                    23.3025
_cell_angle_alpha                 98.5620
_cell_angle_beta                  90.0000
_cell_angle_gamma                 106.9930
loop_
_atom_site_label
_atom_site_type_symbol
_atom_site_fract_x
_atom_site_fract_y
_atom_site_fract_z
_atom_site_U_iso_or_equiv
_atom_site_adp_type
_atom_site_occupancy
Zn1    Zn    0.66207   0.08088   0.50160   0.01267  Uiso   1.00
Zn2    Zn    0.58119   0.91912   0.99840   0.01267  Uiso   1.00
Zn3    Zn    0.41881   0.08088   0.00160   0.01267  Uiso   1.00
Zn4    Zn    0.33793   0.91912   0.49840   0.01267  Uiso   1.00
H1     H     0.44680   0.28420   0.96920   0.01267  Uiso   1.00
H2     H     0.06760   0.12620   0.74450   0.01267  Uiso   1.00
H3     H     0.69900   0.59860   0.02350   0.01267  Uiso   1.00
H4     H     0.23150   0.68120   0.94820   0.01267  Uiso   1.00
H5     H     0.25990   0.23000   0.57760   0.01267  Uiso   1.00
H6     H     0.78880   0.27960   0.89640   0.01267  Uiso   1.00
H7     H     0.55030   0.31880   0.55180   0.01267  Uiso   1.00
H8     H     0.05860   0.12620   0.24450   0.01267  Uiso   1.00
H9     H     0.09810   0.85240   0.64050   0.01267  Uiso   1.00
H10    H     0.30100   0.40140   0.97650   0.01267  Uiso   1.00
H11    H     0.86410   0.95460   0.34120   0.01267  Uiso   1.00
H12    H     0.49790   0.38460   0.60690   0.01267  Uiso   1.00
H13    H     0.11330   0.61540   0.89310   0.01267  Uiso   1.00
H14    H     0.24570   0.14760   0.85950   0.01267  Uiso   1.00
H15    H     0.50210   0.61540   0.39310   0.01267  Uiso   1.00
H16    H     0.97090   0.93060   0.08560   0.01267  Uiso   1.00
H17    H     0.95970   0.93060   0.58560   0.01267  Uiso   1.00
H18    H     0.16260   0.71580   0.53080   0.01267  Uiso   1.00
H19    H     0.74010   0.77000   0.42240   0.01267  Uiso   1.00
H20    H     0.90190   0.14760   0.35950   0.01267  Uiso   1.00
H21    H     0.65310   0.64720   0.66250   0.01267  Uiso   1.00
H22    H     0.40010   0.74940   0.33240   0.01267  Uiso   1.00
H23    H     0.04030   0.06940   0.41440   0.01267  Uiso   1.00
H24    H     0.00590   0.35280   0.83750   0.01267  Uiso   1.00
H25    H     0.93240   0.87380   0.25550   0.01267  Uiso   1.00
H26    H     0.53560   0.33500   0.75290   0.01267  Uiso   1.00
H27    H     0.89960   0.59860   0.52350   0.01267  Uiso   1.00
H28    H     0.90950   0.04540   0.15880   0.01267  Uiso   1.00
H29    H     0.12890   0.12140   0.06870   0.01267  Uiso   1.00
H30    H     0.19680   0.56140   0.93590   0.01267  Uiso   1.00
H31    H     0.99250   0.12140   0.56870   0.01267  Uiso   1.00
H32    H     0.50920   0.72040   0.60360   0.01267  Uiso   1.00
H33    H     0.20060   0.66500   0.74710   0.01267  Uiso   1.00
H34    H     0.34930   0.74940   0.83240   0.01267  Uiso   1.00
H35    H     0.34690   0.35280   0.33750   0.01267  Uiso   1.00
H36    H     0.88670   0.38460   0.10690   0.01267  Uiso   1.00
H37    H     0.87110   0.87860   0.93130   0.01267  Uiso   1.00
H38    H     0.21120   0.72040   0.10360   0.01267  Uiso   1.00
H39    H     0.55320   0.71580   0.03080   0.01267  Uiso   1.00
H40    H     0.44970   0.68120   0.44820   0.01267  Uiso   1.00
H41    H     0.10040   0.40140   0.47650   0.01267  Uiso   1.00
H42    H     0.76850   0.31880   0.05180   0.01267  Uiso   1.00
H43    H     0.63540   0.43860   0.56410   0.01267  Uiso   1.00
H44    H     0.46440   0.66500   0.24710   0.01267  Uiso   1.00
H45    H     0.00750   0.87860   0.43130   0.01267  Uiso   1.00
H46    H     0.80320   0.43860   0.06410   0.01267  Uiso   1.00
H47    H     0.75430   0.85240   0.14050   0.01267  Uiso   1.00
H48    H     0.02990   0.77000   0.92240   0.01267  Uiso   1.00
H49    H     0.36460   0.56140   0.43590   0.01267  Uiso   1.00
H50    H     0.49080   0.27960   0.39640   0.01267  Uiso   1.00
H51    H     0.02910   0.06940   0.91440   0.01267  Uiso   1.00
H52    H     0.97010   0.23000   0.07760   0.01267  Uiso   1.00
H53    H     0.13590   0.04540   0.65880   0.01267  Uiso   1.00
H54    H     0.65070   0.25060   0.16760   0.01267  Uiso   1.00
H55    H     0.59990   0.25060   0.66760   0.01267  Uiso   1.00
H56    H     0.79940   0.33500   0.25290   0.01267  Uiso   1.00
H57    H     0.83740   0.28420   0.46920   0.01267  Uiso   1.00
H58    H     0.99410   0.64720   0.16250   0.01267  Uiso   1.00
H59    H     0.09050   0.95460   0.84120   0.01267  Uiso   1.00
H60    H     0.94140   0.87380   0.75550   0.01267  Uiso   1.00
C1     C     0.14690   0.61640   0.93360   0.01267  Uiso   1.00
C2     C     0.02340   0.84780   0.77140   0.01267  Uiso   1.00
C3     C     0.37140   0.25060   0.38830   0.01267  Uiso   1.00
C4     C     0.45400   0.27600   0.73350   0.01267  Uiso   1.00
C5     C     0.73820   0.65620   0.00460   0.01267  Uiso   1.00
C6     C     0.91800   0.65620   0.50460   0.01267  Uiso   1.00
C7     C     0.88030   0.74800   0.65970   0.01267  Uiso   1.00
C8     C     0.14870   0.17120   0.86560   0.01267  Uiso   1.00
C9     C     0.37370   0.13560   0.65390   0.01267  Uiso   1.00
C10    C     0.60810   0.60340   0.46930   0.01267  Uiso   1.00
C11    C     0.33700   0.92100   0.90170   0.01267  Uiso   1.00
C12    C     0.10430   0.12760   0.39910   0.01267  Uiso   1.00
C13    C     0.88090   0.16600   0.91230   0.01267  Uiso   1.00
C14    C     0.46950   0.61640   0.43360   0.01267  Uiso   1.00
C15    C     0.28510   0.16600   0.41230   0.01267  Uiso   1.00
C16    C     0.53050   0.38360   0.56640   0.01267  Uiso   1.00
C17    C     0.07350   0.72600   0.50860   0.01267  Uiso   1.00
C18    C     0.97670   0.87240   0.10090   0.01267  Uiso   1.00
C19    C     0.28640   0.29380   0.35280   0.01267  Uiso   1.00
C20    C     0.41600   0.07900   0.59830   0.01267  Uiso   1.00
C21    C     0.70620   0.76000   0.24380   0.01267  Uiso   1.00
C22    C     0.54600   0.72400   0.26650   0.01267  Uiso   1.00
C23    C     0.98410   0.82160   0.45100   0.01267  Uiso   1.00
C24    C     0.26640   0.77480   0.81660   0.01267  Uiso   1.00
C25    C     0.12080   0.74940   0.11170   0.01267  Uiso   1.00
C26    C     0.21850   0.10420   0.67820   0.01267  Uiso   1.00
C27    C     0.02330   0.12760   0.89910   0.01267  Uiso   1.00
C28    C     0.99260   0.70620   0.14720   0.01267  Uiso   1.00
C29    C     0.58400   0.92100   0.40170   0.01267  Uiso   1.00
C30    C     0.23810   0.86440   0.84610   0.01267  Uiso   1.00
C31    C     0.62630   0.86440   0.34610   0.01267  Uiso   1.00
C32    C     0.21720   0.32980   0.52810   0.01267  Uiso   1.00
C33    C     0.66300   0.07900   0.09830   0.01267  Uiso   1.00
C34    C     0.82200   0.27600   0.23350   0.01267  Uiso   1.00
C35    C     0.29380   0.24000   0.75620   0.01267  Uiso   1.00
C36    C     0.50840   0.77480   0.31660   0.01267  Uiso   1.00
C37    C     0.97750   0.82880   0.63440   0.01267  Uiso   1.00
C38    C     0.16250   0.17840   0.04900   0.01267  Uiso   1.00
C39    C     0.02250   0.17120   0.36560   0.01267  Uiso   1.00
C40    C     0.85310   0.38360   0.06640   0.01267  Uiso   1.00
C41    C     0.39190   0.39660   0.53070   0.01267  Uiso   1.00
C42    C     0.00470   0.39660   0.03070   0.01267  Uiso   1.00
C43    C     0.13230   0.25200   0.84030   0.01267  Uiso   1.00
C44    C     0.86770   0.74800   0.15970   0.01267  Uiso   1.00
C45    C     0.26180   0.34380   0.99540   0.01267  Uiso   1.00
C46    C     0.62860   0.74940   0.61170   0.01267  Uiso   1.00
C47    C     0.87920   0.25060   0.88830   0.01267  Uiso   1.00
C48    C     0.08200   0.34380   0.49540   0.01267  Uiso   1.00
C49    C     0.11910   0.83400   0.08770   0.01267  Uiso   1.00
C50    C     0.63290   0.88920   0.55270   0.01267  Uiso   1.00
C51    C     0.65250   0.72600   0.00860   0.01267  Uiso   1.00
C52    C     0.94620   0.24000   0.25620   0.01267  Uiso   1.00
C53    C     0.36710   0.11080   0.44730   0.01267  Uiso   1.00
C54    C     0.25630   0.88920   0.05270   0.01267  Uiso   1.00
C55    C     0.97660   0.15220   0.22860   0.01267  Uiso   1.00
C56    C     0.11430   0.89580   0.82180   0.01267  Uiso   1.00
C57    C     0.85130   0.82880   0.13440   0.01267  Uiso   1.00
C58    C     0.17500   0.24320   0.55490   0.01267  Uiso   1.00
C59    C     0.11260   0.32980   0.02810   0.01267  Uiso   1.00
C60    C     0.93180   0.75680   0.94510   0.01267  Uiso   1.00
C61    C     0.06820   0.24320   0.05490   0.01267  Uiso   1.00
C62    C     0.78280   0.67020   0.47190   0.01267  Uiso   1.00
C63    C     0.82440   0.84780   0.27140   0.01267  Uiso   1.00
C64    C     0.05380   0.76000   0.74380   0.01267  Uiso   1.00
C65    C     0.88570   0.10420   0.17820   0.01267  Uiso   1.00
C66    C     0.71360   0.70620   0.64720   0.01267  Uiso   1.00
C67    C     0.17560   0.15220   0.72860   0.01267  Uiso   1.00
C68    C     0.89570   0.87240   0.60090   0.01267  Uiso   1.00
C69    C     0.82500   0.75680   0.44510   0.01267  Uiso   1.00
C70    C     0.49160   0.22520   0.68340   0.01267  Uiso   1.00
C71    C     0.34750   0.27400   0.99140   0.01267  Uiso   1.00
C72    C     0.83750   0.82160   0.95100   0.01267  Uiso   1.00
C73    C     0.78150   0.89580   0.32180   0.01267  Uiso   1.00
C74    C     0.99530   0.60340   0.96930   0.01267  Uiso   1.00
C75    C     0.01590   0.17840   0.54900   0.01267  Uiso   1.00
C76    C     0.88740   0.67020   0.97190   0.01267  Uiso   1.00
C77    C     0.76190   0.13560   0.15390   0.01267  Uiso   1.00
C78    C     0.73360   0.22520   0.18340   0.01267  Uiso   1.00
C79    C     0.11970   0.25200   0.34030   0.01267  Uiso   1.00
C80    C     0.74370   0.11080   0.94730   0.01267  Uiso   1.00
C81    C     0.71490   0.83400   0.58770   0.01267  Uiso   1.00
C82    C     0.00740   0.29380   0.85280   0.01267  Uiso   1.00
C83    C     0.92650   0.27400   0.49140   0.01267  Uiso   1.00
C84    C     0.17800   0.72400   0.76650   0.01267  Uiso   1.00
N1     N     0.05230   0.46920   0.99990   0.01267  Uiso   1.00
N2     N     0.70150   0.81060   0.98230   0.01267  Uiso   1.00
N3     N     0.89090   0.18940   0.51770   0.01267  Uiso   1.00
N4     N     0.29850   0.18940   0.01770   0.01267  Uiso   1.00
N5     N     0.10910   0.81060   0.48230   0.01267  Uiso   1.00
N6     N     0.58310   0.53080   0.50010   0.01267  Uiso   1.00
N7     N     0.41690   0.46920   0.49990   0.01267  Uiso   1.00
N8     N     0.94770   0.53080   0.00010   0.01267  Uiso   1.00
O1     O     0.74670   0.02880   0.95950   0.01267  Uiso   1.00
O2     O     0.03750   0.29900   0.30630   0.01267  Uiso   1.00
O3     O     0.69140   0.00240   0.42400   0.01267  Uiso   1.00
O4     O     0.96250   0.70100   0.69370   0.01267  Uiso   1.00
O5     O     0.28210   0.02880   0.45950   0.01267  Uiso   1.00
O6     O     0.73850   0.70100   0.19370   0.01267  Uiso   1.00
O7     O     0.30860   0.99760   0.57600   0.01267  Uiso   1.00
O8     O     0.25330   0.97120   0.04050   0.01267  Uiso   1.00
O9     O     0.31100   0.00240   0.92400   0.01267  Uiso   1.00
O10    O     0.62590   0.15260   0.95880   0.01267  Uiso   1.00
O11    O     0.52670   0.15260   0.45880   0.01267  Uiso   1.00
O12    O     0.44410   0.87680   0.42330   0.01267  Uiso   1.00
O13    O     0.37410   0.84740   0.04120   0.01267  Uiso   1.00
O14    O     0.71790   0.97120   0.54050   0.01267  Uiso   1.00
O15    O     0.43270   0.87680   0.92330   0.01267  Uiso   1.00
O16    O     0.47330   0.84740   0.54120   0.01267  Uiso   1.00
O17    O     0.56730   0.12320   0.07670   0.01267  Uiso   1.00
O18    O     0.68900   0.99760   0.07600   0.01267  Uiso   1.00
O19    O     0.26150   0.29900   0.80630   0.01267  Uiso   1.00
O20    O     0.55590   0.12320   0.57670   0.01267  Uiso   1.00
