data_cg8002564_si_006_freeONLY
_audit_creation_date              2015-08-19
_audit_creation_method            'Materials Studio'
_symmetry_space_group_name_H-M    'P1'
_symmetry_Int_Tables_number       1
_symmetry_cell_setting            triclinic
loop_
_symmetry_equiv_pos_as_xyz
  x,y,z
_cell_length_a                    10.9709
_cell_length_b                    10.9709
_cell_length_c                    13.3673
_cell_angle_alpha                 65.7723
_cell_angle_beta                  65.7723
_cell_angle_gamma                 60.0000
loop_
_atom_site_label
_atom_site_type_symbol
_atom_site_fract_x
_atom_site_fract_y
_atom_site_fract_z
_atom_site_U_iso_or_equiv
_atom_site_adp_type
_atom_site_occupancy
Cu1    Cu    0.00000   0.00000   0.00000   0.01267  Uiso   1.00
Cu2    Cu    0.50000   0.50000   0.50000   0.01267  Uiso   1.00
H1     H     0.72210   0.12040   0.91090   0.01267  Uiso   1.00
H2     H     0.53390   0.04280   0.80990   0.01267  Uiso   1.00
H3     H     0.87960   0.75340   0.08910   0.01267  Uiso   1.00
H4     H     0.04280   0.61340   0.80990   0.01267  Uiso   1.00
H5     H     0.24660   0.72210   0.91090   0.01267  Uiso   1.00
H6     H     0.03390   0.11340   0.30990   0.01267  Uiso   1.00
H7     H     0.88660   0.45720   0.69010   0.01267  Uiso   1.00
H8     H     0.45720   0.96610   0.69010   0.01267  Uiso   1.00
H9     H     0.25340   0.37960   0.58910   0.01267  Uiso   1.00
H10    H     0.96610   0.88660   0.69010   0.01267  Uiso   1.00
H11    H     0.11340   0.54280   0.30990   0.01267  Uiso   1.00
H12    H     0.22210   0.74660   0.41090   0.01267  Uiso   1.00
H13    H     0.77790   0.25340   0.58910   0.01267  Uiso   1.00
H14    H     0.61340   0.53390   0.80990   0.01267  Uiso   1.00
H15    H     0.95720   0.38660   0.19010   0.01267  Uiso   1.00
H16    H     0.75340   0.27790   0.08910   0.01267  Uiso   1.00
H17    H     0.54280   0.03390   0.30990   0.01267  Uiso   1.00
H18    H     0.38660   0.46610   0.19010   0.01267  Uiso   1.00
H19    H     0.46610   0.95720   0.19010   0.01267  Uiso   1.00
H20    H     0.27790   0.87960   0.08910   0.01267  Uiso   1.00
H21    H     0.74660   0.62040   0.41090   0.01267  Uiso   1.00
H22    H     0.37960   0.77790   0.58910   0.01267  Uiso   1.00
H23    H     0.62040   0.22210   0.41090   0.01267  Uiso   1.00
H24    H     0.12040   0.24660   0.91090   0.01267  Uiso   1.00
C1     C     0.29954   0.77564   0.37208   0.01267  Uiso   1.00
C2     C     0.55274   0.29954   0.37208   0.01267  Uiso   1.00
C3     C     0.70046   0.22436   0.62792   0.01267  Uiso   1.00
C4     C     0.92407   0.39067   0.75169   0.01267  Uiso   1.00
C5     C     0.94726   0.72436   0.12792   0.01267  Uiso   1.00
C6     C     0.05274   0.27564   0.87208   0.01267  Uiso   1.00
C7     C     0.06643   0.07593   0.24831   0.01267  Uiso   1.00
C8     C     0.60933   0.06643   0.24831   0.01267  Uiso   1.00
C9     C     0.27564   0.79954   0.87208   0.01267  Uiso   1.00
C10    C     0.72436   0.20046   0.12792   0.01267  Uiso   1.00
C11    C     0.56643   0.10933   0.74831   0.01267  Uiso   1.00
C12    C     0.57593   0.56643   0.74831   0.01267  Uiso   1.00
C13    C     0.43357   0.89067   0.25169   0.01267  Uiso   1.00
C14    C     0.42407   0.43357   0.25169   0.01267  Uiso   1.00
C15    C     0.20046   0.94726   0.12792   0.01267  Uiso   1.00
C16    C     0.22436   0.44726   0.62792   0.01267  Uiso   1.00
C17    C     0.77564   0.55274   0.37208   0.01267  Uiso   1.00
C18    C     0.44726   0.70046   0.62792   0.01267  Uiso   1.00
C19    C     0.39067   0.93357   0.75169   0.01267  Uiso   1.00
C20    C     0.79954   0.05274   0.87208   0.01267  Uiso   1.00
C21    C     0.93357   0.92407   0.75169   0.01267  Uiso   1.00
C22    C     0.07593   0.60933   0.24831   0.01267  Uiso   1.00
C23    C     0.10933   0.57593   0.74831   0.01267  Uiso   1.00
C24    C     0.89067   0.42407   0.25169   0.01267  Uiso   1.00
N1     N     0.69746   0.11166   0.72062   0.01267  Uiso   1.00
N2     N     0.07850   0.03440   0.10170   0.01267  Uiso   1.00
N3     N     0.92150   0.96560   0.89830   0.01267  Uiso   1.00
N4     N     0.80254   0.02974   0.77938   0.01267  Uiso   1.00
N5     N     0.78540   0.07850   0.10170   0.01267  Uiso   1.00
N6     N     0.53440   0.57850   0.60170   0.01267  Uiso   1.00
N7     N     0.30254   0.88834   0.27938   0.01267  Uiso   1.00
N8     N     0.71460   0.46560   0.39830   0.01267  Uiso   1.00
N9     N     0.88834   0.52974   0.27938   0.01267  Uiso   1.00
N10    N     0.50810   0.78860   0.32180   0.01267  Uiso   1.00
N11    N     0.78860   0.38150   0.32180   0.01267  Uiso   1.00
N12    N     0.99190   0.11850   0.17820   0.01267  Uiso   1.00
N13    N     0.28540   0.53440   0.60170   0.01267  Uiso   1.00
N14    N     0.96560   0.21460   0.89830   0.01267  Uiso   1.00
N15    N     0.46560   0.42150   0.39830   0.01267  Uiso   1.00
N16    N     0.52974   0.30254   0.27938   0.01267  Uiso   1.00
N17    N     0.57850   0.28540   0.60170   0.01267  Uiso   1.00
N18    N     0.21140   0.61850   0.67820   0.01267  Uiso   1.00
N19    N     0.28860   0.00810   0.82180   0.01267  Uiso   1.00
N20    N     0.00810   0.88150   0.82180   0.01267  Uiso   1.00
N21    N     0.38834   0.80254   0.77938   0.01267  Uiso   1.00
N22    N     0.38150   0.50810   0.32180   0.01267  Uiso   1.00
N23    N     0.21460   0.92150   0.89830   0.01267  Uiso   1.00
N24    N     0.19746   0.97026   0.22062   0.01267  Uiso   1.00
N25    N     0.11850   0.71140   0.17820   0.01267  Uiso   1.00
N26    N     0.47026   0.69746   0.72062   0.01267  Uiso   1.00
N27    N     0.97026   0.61166   0.22062   0.01267  Uiso   1.00
N28    N     0.02974   0.38834   0.77938   0.01267  Uiso   1.00
N29    N     0.71140   0.99190   0.17820   0.01267  Uiso   1.00
N30    N     0.61166   0.19746   0.22062   0.01267  Uiso   1.00
N31    N     0.88150   0.28860   0.82180   0.01267  Uiso   1.00
N32    N     0.42150   0.71460   0.39830   0.01267  Uiso   1.00
N33    N     0.49190   0.21140   0.67820   0.01267  Uiso   1.00
N34    N     0.03440   0.78540   0.10170   0.01267  Uiso   1.00
N35    N     0.11166   0.47026   0.72062   0.01267  Uiso   1.00
N36    N     0.61850   0.49190   0.67820   0.01267  Uiso   1.00
