data_cg8002564_si_008_freeONLY
_audit_creation_date              2015-08-19
_audit_creation_method            'Materials Studio'
_symmetry_space_group_name_H-M    'P1'
_symmetry_Int_Tables_number       1
_symmetry_cell_setting            triclinic
loop_
_symmetry_equiv_pos_as_xyz
  x,y,z
_cell_length_a                    12.6909
_cell_length_b                    12.6909
_cell_length_c                    14.6723
_cell_angle_alpha                 115.6250
_cell_angle_beta                  115.6250
_cell_angle_gamma                 90.0007
loop_
_atom_site_label
_atom_site_type_symbol
_atom_site_fract_x
_atom_site_fract_y
_atom_site_fract_z
_atom_site_U_iso_or_equiv
_atom_site_adp_type
_atom_site_occupancy
Cd1    Cd    0.00000   0.00000   0.00000   0.01267  Uiso   1.00
Cd2    Cd    0.33815   0.33815   0.67630   0.01267  Uiso   1.00
Cd3    Cd    0.66185   0.66185   0.32370   0.01267  Uiso   1.00
H1     H     0.89810   0.08090   0.68180   0.01267  Uiso   1.00
H2     H     0.82500   0.71340   0.19880   0.01267  Uiso   1.00
H3     H     0.78370   0.60090   0.68180   0.01267  Uiso   1.00
H4     H     0.84150   0.49790   0.44180   0.01267  Uiso   1.00
H5     H     0.39910   0.10190   0.31820   0.01267  Uiso   1.00
H6     H     0.53000   0.73640   0.97200   0.01267  Uiso   1.00
H7     H     0.96130   0.82470   0.44640   0.01267  Uiso   1.00
H8     H     0.28660   0.62620   0.80120   0.01267  Uiso   1.00
H9     H     0.91910   0.21630   0.31820   0.01267  Uiso   1.00
H10    H     0.26360   0.55800   0.02800   0.01267  Uiso   1.00
H11    H     0.50210   0.39970   0.55820   0.01267  Uiso   1.00
H12    H     0.75720   0.59830   0.89700   0.01267  Uiso   1.00
H13    H     0.70130   0.24280   0.10300   0.01267  Uiso   1.00
H14    H     0.17530   0.51490   0.55360   0.01267  Uiso   1.00
H15    H     0.20090   0.99600   0.73780   0.01267  Uiso   1.00
H16    H     0.76440   0.47000   0.02800   0.01267  Uiso   1.00
H17    H     0.40170   0.86020   0.10300   0.01267  Uiso   1.00
H18    H     0.81940   0.94270   0.10740   0.01267  Uiso   1.00
H19    H     0.37380   0.48540   0.19880   0.01267  Uiso   1.00
H20    H     0.13980   0.29870   0.89700   0.01267  Uiso   1.00
H21    H     0.44200   0.23560   0.97200   0.01267  Uiso   1.00
H22    H     0.05730   0.71200   0.89260   0.01267  Uiso   1.00
H23    H     0.28800   0.16470   0.10740   0.01267  Uiso   1.00
H24    H     0.60030   0.94390   0.44180   0.01267  Uiso   1.00
H25    H     0.53690   0.74180   0.73780   0.01267  Uiso   1.00
H26    H     0.00400   0.46310   0.26220   0.01267  Uiso   1.00
H27    H     0.37830   0.03870   0.55360   0.01267  Uiso   1.00
H28    H     0.25820   0.79910   0.26220   0.01267  Uiso   1.00
H29    H     0.05610   0.15850   0.55820   0.01267  Uiso   1.00
H30    H     0.48510   0.62170   0.44640   0.01267  Uiso   1.00
H31    H     0.83530   0.18060   0.89260   0.01267  Uiso   1.00
H32    H     0.51460   0.17500   0.80120   0.01267  Uiso   1.00
C1     C     0.14970   0.25390   0.93500   0.01267  Uiso   1.00
C2     C     0.74540   0.71500   0.15840   0.01267  Uiso   1.00
C3     C     0.41300   0.44340   0.15840   0.01267  Uiso   1.00
C4     C     0.28500   0.58700   0.84160   0.01267  Uiso   1.00
C5     C     0.38050   0.07560   0.51160   0.01267  Uiso   1.00
C6     C     0.56400   0.61950   0.48840   0.01267  Uiso   1.00
C7     C     0.88830   0.00980   0.61880   0.01267  Uiso   1.00
C8     C     0.81870   0.87060   0.05080   0.01267  Uiso   1.00
C9     C     0.86410   0.50360   0.39140   0.01267  Uiso   1.00
C10    C     0.13110   0.43600   0.51160   0.01267  Uiso   1.00
C11    C     0.31890   0.85030   0.06500   0.01267  Uiso   1.00
C12    C     0.12940   0.76790   0.94920   0.01267  Uiso   1.00
C13    C     0.96450   0.86790   0.75580   0.01267  Uiso   1.00
C14    C     0.69330   0.41600   0.96500   0.01267  Uiso   1.00
C15    C     0.73050   0.60900   0.61880   0.01267  Uiso   1.00
C16    C     0.81980   0.18130   0.94920   0.01267  Uiso   1.00
C17    C     0.11220   0.13590   0.60860   0.01267  Uiso   1.00
C18    C     0.58400   0.72830   0.03500   0.01267  Uiso   1.00
C19    C     0.27170   0.54900   0.96500   0.01267  Uiso   1.00
C20    C     0.99020   0.26950   0.38120   0.01267  Uiso   1.00
C21    C     0.19140   0.04740   0.70640   0.01267  Uiso   1.00
C22    C     0.51500   0.65900   0.70640   0.01267  Uiso   1.00
C23    C     0.79130   0.88790   0.75580   0.01267  Uiso   1.00
C24    C     0.95260   0.48500   0.29360   0.01267  Uiso   1.00
C25    C     0.52730   0.88780   0.39140   0.01267  Uiso   1.00
C26    C     0.23210   0.18020   0.05080   0.01267  Uiso   1.00
C27    C     0.13210   0.20870   0.24420   0.01267  Uiso   1.00
C28    C     0.34100   0.80860   0.29360   0.01267  Uiso   1.00
C29    C     0.11210   0.03550   0.24420   0.01267  Uiso   1.00
C30    C     0.45100   0.30670   0.03500   0.01267  Uiso   1.00
C31    C     0.39100   0.11170   0.38120   0.01267  Uiso   1.00
C32    C     0.55660   0.25460   0.84160   0.01267  Uiso   1.00
C33    C     0.74610   0.21470   0.06500   0.01267  Uiso   1.00
C34    C     0.92440   0.86890   0.48840   0.01267  Uiso   1.00
C35    C     0.49640   0.47270   0.60860   0.01267  Uiso   1.00
C36    C     0.78530   0.68110   0.93500   0.01267  Uiso   1.00
N1     N     0.11710   0.96160   0.29040   0.01267  Uiso   1.00
N2     N     0.27630   0.12480   0.73120   0.01267  Uiso   1.00
N3     N     0.11870   0.12950   0.98860   0.01267  Uiso   1.00
N4     N     0.30290   0.48030   0.81900   0.01267  Uiso   1.00
N5     N     0.60820   0.60170   0.58160   0.01267  Uiso   1.00
N6     N     0.79480   0.92420   0.55260   0.01267  Uiso   1.00
N7     N     0.81520   0.83510   0.46800   0.01267  Uiso   1.00
N8     N     0.06510   0.17770   0.91540   0.01267  Uiso   1.00
N9     N     0.09850   0.09850   0.19700   0.01267  Uiso   1.00
N10    N     0.66130   0.69710   0.18100   0.01267  Uiso   1.00
N11    N     0.67120   0.88290   0.70960   0.01267  Uiso   1.00
N12    N     0.74140   0.23550   0.98040   0.01267  Uiso   1.00
N13    N     0.95070   0.45800   0.37020   0.01267  Uiso   1.00
N14    N     0.26230   0.93490   0.08460   0.01267  Uiso   1.00
N15    N     0.02010   0.39180   0.41840   0.01267  Uiso   1.00
N16    N     0.22510   0.18330   0.66900   0.01267  Uiso   1.00
N17    N     0.36720   0.33370   0.06940   0.01267  Uiso   1.00
N18    N     0.55670   0.70830   0.10100   0.01267  Uiso   1.00
N19    N     0.90150   0.90150   0.80300   0.01267  Uiso   1.00
N20    N     0.65280   0.63290   0.46800   0.01267  Uiso   1.00
N21    N     0.23900   0.74490   0.98040   0.01267  Uiso   1.00
N22    N     0.60730   0.44330   0.89900   0.01267  Uiso   1.00
N23    N     0.39360   0.72370   0.26880   0.01267  Uiso   1.00
N24    N     0.14090   0.88130   0.01140   0.01267  Uiso   1.00
N25    N     0.70220   0.73570   0.06940   0.01267  Uiso   1.00
N26    N     0.54200   0.58050   0.62980   0.01267  Uiso   1.00
N27    N     0.66630   0.29780   0.93060   0.01267  Uiso   1.00
N28    N     0.51610   0.33870   0.81900   0.01267  Uiso   1.00
N29    N     0.76450   0.76100   0.01960   0.01267  Uiso   1.00
N30    N     0.87520   0.54510   0.26880   0.01267  Uiso   1.00
N31    N     0.16490   0.34720   0.53200   0.01267  Uiso   1.00
N32    N     0.97340   0.97990   0.58160   0.01267  Uiso   1.00
N33    N     0.25510   0.25860   0.01960   0.01267  Uiso   1.00
N34    N     0.08780   0.04930   0.62980   0.01267  Uiso   1.00
N35    N     0.82230   0.14970   0.08460   0.01267  Uiso   1.00
N36    N     0.86990   0.85910   0.98860   0.01267  Uiso   1.00
N37    N     0.29170   0.45570   0.89900   0.01267  Uiso   1.00
N38    N     0.75780   0.62840   0.55260   0.01267  Uiso   1.00
N39    N     0.45490   0.60640   0.73120   0.01267  Uiso   1.00
N40    N     0.87050   0.13010   0.01140   0.01267  Uiso   1.00
N41    N     0.41950   0.91220   0.37020   0.01267  Uiso   1.00
N42    N     0.85030   0.73770   0.91540   0.01267  Uiso   1.00
N43    N     0.17330   0.32880   0.29040   0.01267  Uiso   1.00
N44    N     0.81670   0.55610   0.33100   0.01267  Uiso   1.00
N45    N     0.51430   0.77490   0.33100   0.01267  Uiso   1.00
N46    N     0.39830   0.02660   0.41840   0.01267  Uiso   1.00
N47    N     0.37160   0.20520   0.44740   0.01267  Uiso   1.00
N48    N     0.07580   0.24220   0.44740   0.01267  Uiso   1.00
N49    N     0.26430   0.63280   0.93060   0.01267  Uiso   1.00
N50    N     0.36710   0.18480   0.53200   0.01267  Uiso   1.00
N51    N     0.51970   0.48390   0.18100   0.01267  Uiso   1.00
N52    N     0.44390   0.48570   0.66900   0.01267  Uiso   1.00
N53    N     0.54430   0.39270   0.10100   0.01267  Uiso   1.00
N54    N     0.03840   0.82670   0.70960   0.01267  Uiso   1.00
