data_cg901114e_si_002_freeONLY
_audit_creation_date              2015-08-19
_audit_creation_method            'Materials Studio'
_symmetry_space_group_name_H-M    'P1'
_symmetry_Int_Tables_number       1
_symmetry_cell_setting            triclinic
loop_
_symmetry_equiv_pos_as_xyz
  x,y,z
_cell_length_a                    9.8930
_cell_length_b                    12.1294
_cell_length_c                    16.3197
_cell_angle_alpha                 68.8334
_cell_angle_beta                  72.3562
_cell_angle_gamma                 65.9327
loop_
_atom_site_label
_atom_site_type_symbol
_atom_site_fract_x
_atom_site_fract_y
_atom_site_fract_z
_atom_site_U_iso_or_equiv
_atom_site_adp_type
_atom_site_occupancy
Na1    Na    0.89430   0.25000   0.75000   0.01267  Uiso   1.00
Na2    Na    0.10570   0.75000   0.25000   0.01267  Uiso   1.00
Ce1    Ce    0.05176   0.46482   0.20608   0.01267  Uiso   1.00
Ce2    Ce    0.27734   0.96482   0.70608   0.01267  Uiso   1.00
Ce3    Ce    0.94824   0.53518   0.79392   0.01267  Uiso   1.00
Ce4    Ce    0.72266   0.03518   0.29392   0.01267  Uiso   1.00
H1     H     0.41270   0.52110   0.88090   0.01267  Uiso   1.00
H2     H     0.09200   0.65700   0.84900   0.01267  Uiso   1.00
H3     H     0.82400   0.13100   0.67900   0.01267  Uiso   1.00
H4     H     0.94300   0.70700   0.83900   0.01267  Uiso   1.00
H5     H     0.81810   0.91180   0.55000   0.01267  Uiso   1.00
H6     H     0.93790   0.40040   0.54500   0.01267  Uiso   1.00
H7     H     0.75200   0.61970   0.49930   0.01267  Uiso   1.00
H8     H     0.72010   0.41180   0.05000   0.01267  Uiso   1.00
H9     H     0.27990   0.58820   0.95000   0.01267  Uiso   1.00
H10    H     0.05700   0.29300   0.16100   0.01267  Uiso   1.00
H11    H     0.12900   0.11970   0.99930   0.01267  Uiso   1.00
H12    H     0.45180   0.63150   0.99650   0.01267  Uiso   1.00
H13    H     0.59800   0.84300   0.65100   0.01267  Uiso   1.00
H14    H     0.17210   0.33150   0.45350   0.01267  Uiso   1.00
H15    H     0.18190   0.08820   0.45000   0.01267  Uiso   1.00
H16    H     0.90800   0.34300   0.15100   0.01267  Uiso   1.00
H17    H     0.07980   0.86850   0.50350   0.01267  Uiso   1.00
H18    H     0.17600   0.86900   0.32100   0.01267  Uiso   1.00
H19    H     0.58700   0.26700   0.86700   0.01267  Uiso   1.00
H20    H     0.48900   0.79300   0.66100   0.01267  Uiso   1.00
H21    H     0.88330   0.09960   0.95500   0.01267  Uiso   1.00
H22    H     0.11670   0.90040   0.04500   0.01267  Uiso   1.00
H23    H     0.87100   0.88030   0.00070   0.01267  Uiso   1.00
H24    H     0.81470   0.97890   0.61910   0.01267  Uiso   1.00
H25    H     0.63400   0.36900   0.82100   0.01267  Uiso   1.00
H26    H     0.51100   0.20700   0.33900   0.01267  Uiso   1.00
H27    H     0.18530   0.02110   0.38090   0.01267  Uiso   1.00
H28    H     0.72100   0.23300   0.63300   0.01267  Uiso   1.00
H29    H     0.36600   0.63100   0.17900   0.01267  Uiso   1.00
H30    H     0.82790   0.66850   0.54650   0.01267  Uiso   1.00
H31    H     0.06210   0.59960   0.45500   0.01267  Uiso   1.00
H32    H     0.27900   0.76700   0.36700   0.01267  Uiso   1.00
H33    H     0.24800   0.38030   0.50070   0.01267  Uiso   1.00
H34    H     0.95710   0.16850   0.04650   0.01267  Uiso   1.00
H35    H     0.40200   0.15700   0.34900   0.01267  Uiso   1.00
H36    H     0.54820   0.36850   0.00350   0.01267  Uiso   1.00
H37    H     0.58730   0.47890   0.11910   0.01267  Uiso   1.00
H38    H     0.04290   0.83150   0.95350   0.01267  Uiso   1.00
H39    H     0.41300   0.73300   0.13300   0.01267  Uiso   1.00
H40    H     0.92020   0.13150   0.49650   0.01267  Uiso   1.00
C1     C     0.63990   0.56540   0.90640   0.01267  Uiso   1.00
C2     C     0.90290   0.78430   0.66310   0.01267  Uiso   1.00
C3     C     0.11170   0.93460   0.59360   0.01267  Uiso   1.00
C4     C     0.20820   0.21810   0.57770   0.01267  Uiso   1.00
C5     C     0.87650   0.91030   0.59030   0.01267  Uiso   1.00
C6     C     0.37710   0.58970   0.90970   0.01267  Uiso   1.00
C7     C     0.62290   0.41030   0.09030   0.01267  Uiso   1.00
C8     C     0.97600   0.84380   0.01080   0.01267  Uiso   1.00
C9     C     0.08580   0.03570   0.87670   0.01267  Uiso   1.00
C10    C     0.99820   0.46430   0.62330   0.01267  Uiso   1.00
C11    C     0.91420   0.96430   0.12330   0.01267  Uiso   1.00
C12    C     0.02400   0.15620   0.98920   0.01267  Uiso   1.00
C13    C     0.36010   0.43460   0.09360   0.01267  Uiso   1.00
C14    C     0.00400   0.28190   0.92230   0.01267  Uiso   1.00
C15    C     0.51020   0.43530   0.03510   0.01267  Uiso   1.00
C16    C     0.00180   0.53570   0.37670   0.01267  Uiso   1.00
C17    C     0.01940   0.93530   0.53510   0.01267  Uiso   1.00
C18    C     0.99600   0.71810   0.07770   0.01267  Uiso   1.00
C19    C     0.83060   0.65620   0.48920   0.01267  Uiso   1.00
C20    C     0.48980   0.56470   0.96490   0.01267  Uiso   1.00
C21    C     0.01620   0.43730   0.53730   0.01267  Uiso   1.00
C22    C     0.98380   0.56270   0.46270   0.01267  Uiso   1.00
C23    C     0.88830   0.06540   0.40640   0.01267  Uiso   1.00
C24    C     0.09710   0.21570   0.33690   0.01267  Uiso   1.00
C25    C     0.98060   0.06470   0.46490   0.01267  Uiso   1.00
C26    C     0.64970   0.28430   0.16310   0.01267  Uiso   1.00
C27    C     0.16940   0.34380   0.51080   0.01267  Uiso   1.00
C28    C     0.79180   0.78190   0.42230   0.01267  Uiso   1.00
C29    C     0.35030   0.71570   0.83690   0.01267  Uiso   1.00
C30    C     0.12350   0.08970   0.40970   0.01267  Uiso   1.00
C31    C     0.99080   0.06270   0.96270   0.01267  Uiso   1.00
C32    C     0.00920   0.93730   0.03730   0.01267  Uiso   1.00
O1     O     0.71450   0.62640   0.91220   0.01267  Uiso   1.00
O2     O     0.21090   0.25260   0.29720   0.01267  Uiso   1.00
O3     O     0.78910   0.74740   0.70280   0.01267  Uiso   1.00
O4     O     0.20220   0.79100   0.34340   0.01267  Uiso   1.00
O5     O     0.00760   0.29570   0.84070   0.01267  Uiso   1.00
O6     O     0.87580   0.46380   0.68160   0.01267  Uiso   1.00
O7     O     0.14400   0.20430   0.65930   0.01267  Uiso   1.00
O8     O     0.02810   0.72320   0.68220   0.01267  Uiso   1.00
O9     O     0.25310   0.87360   0.58780   0.01267  Uiso   1.00
O10    O     0.66340   0.29100   0.84340   0.01267  Uiso   1.00
O11    O     0.22450   0.00870   0.86330   0.01267  Uiso   1.00
O12    O     0.99340   0.37550   0.94670   0.01267  Uiso   1.00
O13    O     0.74690   0.12640   0.41220   0.01267  Uiso   1.00
O14    O     0.56650   0.22320   0.18220   0.01267  Uiso   1.00
O15    O     0.68440   0.87550   0.44670   0.01267  Uiso   1.00
O16    O     0.31560   0.12450   0.55330   0.01267  Uiso   1.00
O17    O     0.33660   0.70900   0.15660   0.01267  Uiso   1.00
O18    O     0.43350   0.77680   0.81780   0.01267  Uiso   1.00
O19    O     0.09650   0.49130   0.63670   0.01267  Uiso   1.00
O20    O     0.12420   0.53620   0.31840   0.01267  Uiso   1.00
O21    O     0.99240   0.70430   0.15930   0.01267  Uiso   1.00
O22    O     0.02120   0.03620   0.81840   0.01267  Uiso   1.00
O23    O     0.90350   0.50870   0.36330   0.01267  Uiso   1.00
O24    O     0.00660   0.62450   0.05330   0.01267  Uiso   1.00
O25    O     0.85600   0.79570   0.34070   0.01267  Uiso   1.00
O26    O     0.30350   0.50340   0.14820   0.01267  Uiso   1.00
O27    O     0.04490   0.00340   0.64820   0.01267  Uiso   1.00
O28    O     0.23930   0.75260   0.79720   0.01267  Uiso   1.00
O29    O     0.28550   0.37360   0.08780   0.01267  Uiso   1.00
O30    O     0.46720   0.15600   0.37360   0.01267  Uiso   1.00
O31    O     0.69650   0.49660   0.85180   0.01267  Uiso   1.00
O32    O     0.95510   0.99660   0.35180   0.01267  Uiso   1.00
O33    O     0.97880   0.96380   0.18160   0.01267  Uiso   1.00
O34    O     0.53280   0.84400   0.62640   0.01267  Uiso   1.00
O35    O     0.77550   0.99130   0.13670   0.01267  Uiso   1.00
O36    O     0.97190   0.27680   0.31780   0.01267  Uiso   1.00
O37    O     0.00320   0.65600   0.87360   0.01267  Uiso   1.00
O38    O     0.99680   0.34400   0.12640   0.01267  Uiso   1.00
O39    O     0.79780   0.20900   0.65660   0.01267  Uiso   1.00
O40    O     0.76070   0.24740   0.20280   0.01267  Uiso   1.00
