data_image0
_cell_length_a       10.971
_cell_length_b       10.971
_cell_length_c       35.517
_cell_angle_alpha    90
_cell_angle_beta     90
_cell_angle_gamma    120

_symmetry_space_group_name_H-M    "P 1"
_symmetry_int_tables_number       1

loop_
  _symmetry_equiv_pos_as_xyz
  'x, y, z'

loop_
  _atom_site_label
  _atom_site_occupancy
  _atom_site_fract_x
  _atom_site_fract_y
  _atom_site_fract_z
  _atom_site_thermal_displace_type
  _atom_site_B_iso_or_equiv
  _atom_site_type_symbol
  N1       1.0000 0.18670  0.08410  0.03465  Biso   1.000  N
  N2       1.0000 0.20970  0.17520  0.06453  Biso   1.000  N
  N3       1.0000 0.31370  0.05530  0.07556  Biso   1.000  N
  N4       1.0000 0.37470  0.99180  0.09484  Biso   1.000  N
  N5       1.0000 0.52010  0.92340  0.11170  Biso   1.000  N
  N6       1.0000 0.39760  0.85220  0.13245  Biso   1.000  N
  C1       1.0000 0.24890  0.01320  0.04190  Biso   1.000  C
  C2       1.0000 0.28490  0.15450  0.08870  Biso   1.000  C
  C3       1.0000 0.50320  0.00560  0.08910  Biso   1.000  C
  C4       1.0000 0.31290  0.89540  0.12200  Biso   1.000  C
  H1       1.0000 0.25200  0.94400  0.02600  Biso   1.000  H
  H2       1.0000 0.32000  0.20000  0.11200  Biso   1.000  H
  H3       1.0000 0.57000  0.06400  0.07000  Biso   1.000  H
  H4       1.0000 0.22100  0.86600  0.12800  Biso   1.000  H
  N7       1.0000 0.85337  0.41743  0.36798  Biso   1.000  N
  N8       1.0000 0.87637  0.50853  0.39786  Biso   1.000  N
  N9       1.0000 0.98037  0.38863  0.40889  Biso   1.000  N
  N10      1.0000 0.04137  0.32513  0.42817  Biso   1.000  N
  N11      1.0000 0.18677  0.25673  0.44503  Biso   1.000  N
  N12      1.0000 0.06427  0.18553  0.46578  Biso   1.000  N
  C5       1.0000 0.91557  0.34653  0.37523  Biso   1.000  C
  C6       1.0000 0.95157  0.48783  0.42203  Biso   1.000  C
  C7       1.0000 0.16987  0.33893  0.42243  Biso   1.000  C
  C8       1.0000 0.97957  0.22873  0.45533  Biso   1.000  C
  H5       1.0000 0.91867  0.27733  0.35933  Biso   1.000  H
  H6       1.0000 0.98667  0.53333  0.44533  Biso   1.000  H
  H7       1.0000 0.23667  0.39733  0.40333  Biso   1.000  H
  H8       1.0000 0.88767  0.19933  0.46133  Biso   1.000  H
  N13      1.0000 0.52003  0.75077  0.70132  Biso   1.000  N
  N14      1.0000 0.54303  0.84187  0.73120  Biso   1.000  N
  N15      1.0000 0.64703  0.72197  0.74223  Biso   1.000  N
  N16      1.0000 0.70803  0.65847  0.76151  Biso   1.000  N
  N17      1.0000 0.85343  0.59007  0.77837  Biso   1.000  N
  N18      1.0000 0.73093  0.51887  0.79912  Biso   1.000  N
  C9       1.0000 0.58223  0.67987  0.70857  Biso   1.000  C
  C10      1.0000 0.61823  0.82117  0.75537  Biso   1.000  C
  C11      1.0000 0.83653  0.67227  0.75577  Biso   1.000  C
  C12      1.0000 0.64623  0.56207  0.78867  Biso   1.000  C
  H9       1.0000 0.58533  0.61067  0.69267  Biso   1.000  H
  H10      1.0000 0.65333  0.86667  0.77867  Biso   1.000  H
  H11      1.0000 0.90333  0.73067  0.73667  Biso   1.000  H
  H12      1.0000 0.55433  0.53267  0.79467  Biso   1.000  H
  N19      1.0000 0.91590  0.10260  0.03465  Biso   1.000  N
  N20      1.0000 0.82480  0.03450  0.06453  Biso   1.000  N
  N21      1.0000 0.94470  0.25840  0.07556  Biso   1.000  N
  N22      1.0000 0.00820  0.38290  0.09484  Biso   1.000  N
  N23      1.0000 0.07660  0.59670  0.11170  Biso   1.000  N
  N24      1.0000 0.14780  0.54540  0.13245  Biso   1.000  N
  C13      1.0000 0.98680  0.23570  0.04190  Biso   1.000  C
  C14      1.0000 0.84550  0.13040  0.08870  Biso   1.000  C
  C15      1.0000 0.99440  0.49760  0.08910  Biso   1.000  C
  C16      1.0000 0.10460  0.41750  0.12200  Biso   1.000  C
  H13      1.0000 0.05600  0.30800  0.02600  Biso   1.000  H
  H14      1.0000 0.80000  0.12000  0.11200  Biso   1.000  H
  H15      1.0000 0.93600  0.50600  0.07000  Biso   1.000  H
  H16      1.0000 0.13400  0.35500  0.12800  Biso   1.000  H
  N25      1.0000 0.58257  0.43593  0.36798  Biso   1.000  N
  N26      1.0000 0.49147  0.36783  0.39786  Biso   1.000  N
  N27      1.0000 0.61137  0.59173  0.40889  Biso   1.000  N
  N28      1.0000 0.67487  0.71623  0.42817  Biso   1.000  N
  N29      1.0000 0.74327  0.93003  0.44503  Biso   1.000  N
  N30      1.0000 0.81447  0.87873  0.46578  Biso   1.000  N
  C17      1.0000 0.65347  0.56903  0.37523  Biso   1.000  C
  C18      1.0000 0.51217  0.46373  0.42203  Biso   1.000  C
  C19      1.0000 0.66107  0.83093  0.42243  Biso   1.000  C
  C20      1.0000 0.77127  0.75083  0.45533  Biso   1.000  C
  H17      1.0000 0.72267  0.64133  0.35933  Biso   1.000  H
  H18      1.0000 0.46667  0.45333  0.44533  Biso   1.000  H
  H19      1.0000 0.60267  0.83933  0.40333  Biso   1.000  H
  H20      1.0000 0.80067  0.68833  0.46133  Biso   1.000  H
  N31      1.0000 0.24923  0.76927  0.70132  Biso   1.000  N
  N32      1.0000 0.15813  0.70117  0.73120  Biso   1.000  N
  N33      1.0000 0.27803  0.92507  0.74223  Biso   1.000  N
  N34      1.0000 0.34153  0.04957  0.76151  Biso   1.000  N
  N35      1.0000 0.40993  0.26337  0.77837  Biso   1.000  N
  N36      1.0000 0.48113  0.21207  0.79912  Biso   1.000  N
  C21      1.0000 0.32013  0.90237  0.70857  Biso   1.000  C
  C22      1.0000 0.17883  0.79707  0.75537  Biso   1.000  C
  C23      1.0000 0.32773  0.16427  0.75577  Biso   1.000  C
  C24      1.0000 0.43793  0.08417  0.78867  Biso   1.000  C
  H21      1.0000 0.38933  0.97467  0.69267  Biso   1.000  H
  H22      1.0000 0.13333  0.78667  0.77867  Biso   1.000  H
  H23      1.0000 0.26933  0.17267  0.73667  Biso   1.000  H
  H24      1.0000 0.46733  0.02167  0.79467  Biso   1.000  H
  N37      1.0000 0.89740  0.81330  0.03465  Biso   1.000  N
  N38      1.0000 0.96550  0.79030  0.06453  Biso   1.000  N
  N39      1.0000 0.74160  0.68630  0.07556  Biso   1.000  N
  N40      1.0000 0.61710  0.62530  0.09484  Biso   1.000  N
  N41      1.0000 0.40330  0.47990  0.11170  Biso   1.000  N
  N42      1.0000 0.45460  0.60240  0.13245  Biso   1.000  N
  C25      1.0000 0.76430  0.75110  0.04190  Biso   1.000  C
  C26      1.0000 0.86960  0.71510  0.08870  Biso   1.000  C
  C27      1.0000 0.50240  0.49680  0.08910  Biso   1.000  C
  C28      1.0000 0.58250  0.68710  0.12200  Biso   1.000  C
  H25      1.0000 0.69200  0.74800  0.02600  Biso   1.000  H
  H26      1.0000 0.88000  0.68000  0.11200  Biso   1.000  H
  H27      1.0000 0.49400  0.43000  0.07000  Biso   1.000  H
  H28      1.0000 0.64500  0.77900  0.12800  Biso   1.000  H
  N43      1.0000 0.56407  0.14663  0.36798  Biso   1.000  N
  N44      1.0000 0.63217  0.12363  0.39786  Biso   1.000  N
  N45      1.0000 0.40827  0.01963  0.40889  Biso   1.000  N
  N46      1.0000 0.28377  0.95863  0.42817  Biso   1.000  N
  N47      1.0000 0.06997  0.81323  0.44503  Biso   1.000  N
  N48      1.0000 0.12127  0.93573  0.46578  Biso   1.000  N
  C29      1.0000 0.43097  0.08443  0.37523  Biso   1.000  C
  C30      1.0000 0.53627  0.04843  0.42203  Biso   1.000  C
  C31      1.0000 0.16907  0.83013  0.42243  Biso   1.000  C
  C32      1.0000 0.24917  0.02043  0.45533  Biso   1.000  C
  H29      1.0000 0.35867  0.08133  0.35933  Biso   1.000  H
  H30      1.0000 0.54667  0.01333  0.44533  Biso   1.000  H
  H31      1.0000 0.16067  0.76333  0.40333  Biso   1.000  H
  H32      1.0000 0.31167  0.11233  0.46133  Biso   1.000  H
  N49      1.0000 0.23073  0.47997  0.70132  Biso   1.000  N
  N50      1.0000 0.29883  0.45697  0.73120  Biso   1.000  N
  N51      1.0000 0.07493  0.35297  0.74223  Biso   1.000  N
  N52      1.0000 0.95043  0.29197  0.76151  Biso   1.000  N
  N53      1.0000 0.73663  0.14657  0.77837  Biso   1.000  N
  N54      1.0000 0.78793  0.26907  0.79912  Biso   1.000  N
  C33      1.0000 0.09763  0.41777  0.70857  Biso   1.000  C
  C34      1.0000 0.20293  0.38177  0.75537  Biso   1.000  C
  C35      1.0000 0.83573  0.16347  0.75577  Biso   1.000  C
  C36      1.0000 0.91583  0.35377  0.78867  Biso   1.000  C
  H33      1.0000 0.02533  0.41467  0.69267  Biso   1.000  H
  H34      1.0000 0.21333  0.34667  0.77867  Biso   1.000  H
  H35      1.0000 0.82733  0.09667  0.73667  Biso   1.000  H
  H36      1.0000 0.97833  0.44567  0.79467  Biso   1.000  H
  N55      1.0000 0.81330  0.91590  0.96535  Biso   1.000  N
  N56      1.0000 0.79030  0.82480  0.93547  Biso   1.000  N
  N57      1.0000 0.68630  0.94470  0.92444  Biso   1.000  N
  N58      1.0000 0.62530  0.00820  0.90516  Biso   1.000  N
  N59      1.0000 0.47990  0.07660  0.88830  Biso   1.000  N
  N60      1.0000 0.60240  0.14780  0.86755  Biso   1.000  N
  C37      1.0000 0.75110  0.98680  0.95810  Biso   1.000  C
  C38      1.0000 0.71510  0.84550  0.91130  Biso   1.000  C
  C39      1.0000 0.49680  0.99440  0.91090  Biso   1.000  C
  C40      1.0000 0.68710  0.10460  0.87800  Biso   1.000  C
  H37      1.0000 0.74800  0.05600  0.97400  Biso   1.000  H
  H38      1.0000 0.68000  0.80000  0.88800  Biso   1.000  H
  H39      1.0000 0.43000  0.93600  0.93000  Biso   1.000  H
  H40      1.0000 0.77900  0.13400  0.87200  Biso   1.000  H
  N61      1.0000 0.47997  0.24923  0.29868  Biso   1.000  N
  N62      1.0000 0.45697  0.15813  0.26880  Biso   1.000  N
  N63      1.0000 0.35297  0.27803  0.25777  Biso   1.000  N
  N64      1.0000 0.29197  0.34153  0.23849  Biso   1.000  N
  N65      1.0000 0.14657  0.40993  0.22163  Biso   1.000  N
  N66      1.0000 0.26907  0.48113  0.20088  Biso   1.000  N
  C41      1.0000 0.41777  0.32013  0.29143  Biso   1.000  C
  C42      1.0000 0.38177  0.17883  0.24463  Biso   1.000  C
  C43      1.0000 0.16347  0.32773  0.24423  Biso   1.000  C
  C44      1.0000 0.35377  0.43793  0.21133  Biso   1.000  C
  H41      1.0000 0.41467  0.38933  0.30733  Biso   1.000  H
  H42      1.0000 0.34667  0.13333  0.22133  Biso   1.000  H
  H43      1.0000 0.09667  0.26933  0.26333  Biso   1.000  H
  H44      1.0000 0.44567  0.46733  0.20533  Biso   1.000  H
  N67      1.0000 0.14663  0.58257  0.63202  Biso   1.000  N
  N68      1.0000 0.12363  0.49147  0.60214  Biso   1.000  N
  N69      1.0000 0.01963  0.61137  0.59111  Biso   1.000  N
  N70      1.0000 0.95863  0.67487  0.57183  Biso   1.000  N
  N71      1.0000 0.81323  0.74327  0.55497  Biso   1.000  N
  N72      1.0000 0.93573  0.81447  0.53422  Biso   1.000  N
  C45      1.0000 0.08443  0.65347  0.62477  Biso   1.000  C
  C46      1.0000 0.04843  0.51217  0.57797  Biso   1.000  C
  C47      1.0000 0.83013  0.66107  0.57757  Biso   1.000  C
  C48      1.0000 0.02043  0.77127  0.54467  Biso   1.000  C
  H45      1.0000 0.08133  0.72267  0.64067  Biso   1.000  H
  H46      1.0000 0.01333  0.46667  0.55467  Biso   1.000  H
  H47      1.0000 0.76333  0.60267  0.59667  Biso   1.000  H
  H48      1.0000 0.11233  0.80067  0.53867  Biso   1.000  H
  N73      1.0000 0.08410  0.89740  0.96535  Biso   1.000  N
  N74      1.0000 0.17520  0.96550  0.93547  Biso   1.000  N
  N75      1.0000 0.05530  0.74160  0.92444  Biso   1.000  N
  N76      1.0000 0.99180  0.61710  0.90516  Biso   1.000  N
  N77      1.0000 0.92340  0.40330  0.88830  Biso   1.000  N
  N78      1.0000 0.85220  0.45460  0.86755  Biso   1.000  N
  C49      1.0000 0.01320  0.76430  0.95810  Biso   1.000  C
  C50      1.0000 0.15450  0.86960  0.91130  Biso   1.000  C
  C51      1.0000 0.00560  0.50240  0.91090  Biso   1.000  C
  C52      1.0000 0.89540  0.58250  0.87800  Biso   1.000  C
  H49      1.0000 0.94400  0.69200  0.97400  Biso   1.000  H
  H50      1.0000 0.20000  0.88000  0.88800  Biso   1.000  H
  H51      1.0000 0.06400  0.49400  0.93000  Biso   1.000  H
  H52      1.0000 0.86600  0.64500  0.87200  Biso   1.000  H
  N79      1.0000 0.75077  0.23073  0.29868  Biso   1.000  N
  N80      1.0000 0.84187  0.29883  0.26880  Biso   1.000  N
  N81      1.0000 0.72197  0.07493  0.25777  Biso   1.000  N
  N82      1.0000 0.65847  0.95043  0.23849  Biso   1.000  N
  N83      1.0000 0.59007  0.73663  0.22163  Biso   1.000  N
  N84      1.0000 0.51887  0.78793  0.20088  Biso   1.000  N
  C53      1.0000 0.67987  0.09763  0.29143  Biso   1.000  C
  C54      1.0000 0.82117  0.20293  0.24463  Biso   1.000  C
  C55      1.0000 0.67227  0.83573  0.24423  Biso   1.000  C
  C56      1.0000 0.56207  0.91583  0.21133  Biso   1.000  C
  H53      1.0000 0.61067  0.02533  0.30733  Biso   1.000  H
  H54      1.0000 0.86667  0.21333  0.22133  Biso   1.000  H
  H55      1.0000 0.73067  0.82733  0.26333  Biso   1.000  H
  H56      1.0000 0.53267  0.97833  0.20533  Biso   1.000  H
  N85      1.0000 0.41743  0.56407  0.63202  Biso   1.000  N
  N86      1.0000 0.50853  0.63217  0.60214  Biso   1.000  N
  N87      1.0000 0.38863  0.40827  0.59111  Biso   1.000  N
  N88      1.0000 0.32513  0.28377  0.57183  Biso   1.000  N
  N89      1.0000 0.25673  0.06997  0.55497  Biso   1.000  N
  N90      1.0000 0.18553  0.12127  0.53422  Biso   1.000  N
  C57      1.0000 0.34653  0.43097  0.62477  Biso   1.000  C
  C58      1.0000 0.48783  0.53627  0.57797  Biso   1.000  C
  C59      1.0000 0.33893  0.16907  0.57757  Biso   1.000  C
  C60      1.0000 0.22873  0.24917  0.54467  Biso   1.000  C
  H57      1.0000 0.27733  0.35867  0.64067  Biso   1.000  H
  H58      1.0000 0.53333  0.54667  0.55467  Biso   1.000  H
  H59      1.0000 0.39733  0.16067  0.59667  Biso   1.000  H
  H60      1.0000 0.19933  0.31167  0.53867  Biso   1.000  H
  N91      1.0000 0.10260  0.18670  0.96535  Biso   1.000  N
  N92      1.0000 0.03450  0.20970  0.93547  Biso   1.000  N
  N93      1.0000 0.25840  0.31370  0.92444  Biso   1.000  N
  N94      1.0000 0.38290  0.37470  0.90516  Biso   1.000  N
  N95      1.0000 0.59670  0.52010  0.88830  Biso   1.000  N
  N96      1.0000 0.54540  0.39760  0.86755  Biso   1.000  N
  C61      1.0000 0.23570  0.24890  0.95810  Biso   1.000  C
  C62      1.0000 0.13040  0.28490  0.91130  Biso   1.000  C
  C63      1.0000 0.49760  0.50320  0.91090  Biso   1.000  C
  C64      1.0000 0.41750  0.31290  0.87800  Biso   1.000  C
  H61      1.0000 0.30800  0.25200  0.97400  Biso   1.000  H
  H62      1.0000 0.12000  0.32000  0.88800  Biso   1.000  H
  H63      1.0000 0.50600  0.57000  0.93000  Biso   1.000  H
  H64      1.0000 0.35500  0.22100  0.87200  Biso   1.000  H
  N97      1.0000 0.76927  0.52003  0.29868  Biso   1.000  N
  N98      1.0000 0.70117  0.54303  0.26880  Biso   1.000  N
  N99      1.0000 0.92507  0.64703  0.25777  Biso   1.000  N
  N100     1.0000 0.04957  0.70803  0.23849  Biso   1.000  N
  N101     1.0000 0.26337  0.85343  0.22163  Biso   1.000  N
  N102     1.0000 0.21207  0.73093  0.20088  Biso   1.000  N
  C65      1.0000 0.90237  0.58223  0.29143  Biso   1.000  C
  C66      1.0000 0.79707  0.61823  0.24463  Biso   1.000  C
  C67      1.0000 0.16427  0.83653  0.24423  Biso   1.000  C
  C68      1.0000 0.08417  0.64623  0.21133  Biso   1.000  C
  H65      1.0000 0.97467  0.58533  0.30733  Biso   1.000  H
  H66      1.0000 0.78667  0.65333  0.22133  Biso   1.000  H
  H67      1.0000 0.17267  0.90333  0.26333  Biso   1.000  H
  H68      1.0000 0.02167  0.55433  0.20533  Biso   1.000  H
  N103     1.0000 0.43593  0.85337  0.63202  Biso   1.000  N
  N104     1.0000 0.36783  0.87637  0.60214  Biso   1.000  N
  N105     1.0000 0.59173  0.98037  0.59111  Biso   1.000  N
  N106     1.0000 0.71623  0.04137  0.57183  Biso   1.000  N
  N107     1.0000 0.93003  0.18677  0.55497  Biso   1.000  N
  N108     1.0000 0.87873  0.06427  0.53422  Biso   1.000  N
  C69      1.0000 0.56903  0.91557  0.62477  Biso   1.000  C
  C70      1.0000 0.46373  0.95157  0.57797  Biso   1.000  C
  C71      1.0000 0.83093  0.16987  0.57757  Biso   1.000  C
  C72      1.0000 0.75083  0.97957  0.54467  Biso   1.000  C
  H69      1.0000 0.64133  0.91867  0.64067  Biso   1.000  H
  H70      1.0000 0.45333  0.98667  0.55467  Biso   1.000  H
  H71      1.0000 0.83933  0.23667  0.59667  Biso   1.000  H
  H72      1.0000 0.68833  0.88767  0.53867  Biso   1.000  H
  Fe1      1.0000 0.00000  0.00000  0.00000  Biso   1.000  Fe
  Fe2      1.0000 0.66667  0.33333  0.33333  Biso   1.000  Fe
  Fe3      1.0000 0.33333  0.66667  0.66667  Biso   1.000  Fe
  Fe4      1.0000 0.66667  0.33333  0.83333  Biso   1.000  Fe
  Fe5      1.0000 0.33333  0.66667  0.16667  Biso   1.000  Fe
  Fe6      1.0000 0.00000  0.00000  0.50000  Biso   1.000  Fe
