data_image0
_cell_length_a       10.938
_cell_length_b       10.938
_cell_length_c       34.555
_cell_angle_alpha    90
_cell_angle_beta     90
_cell_angle_gamma    120

_symmetry_space_group_name_H-M    "P 1"
_symmetry_int_tables_number       1

loop_
  _symmetry_equiv_pos_as_xyz
  'x, y, z'

loop_
  _atom_site_label
  _atom_site_occupancy
  _atom_site_fract_x
  _atom_site_fract_y
  _atom_site_fract_z
  _atom_site_thermal_displace_type
  _atom_site_B_iso_or_equiv
  _atom_site_type_symbol
  N1       1.0000 0.18620  0.08390  0.03549  Biso   1.000  N
  N2       1.0000 0.21020  0.17570  0.06640  Biso   1.000  N
  N3       1.0000 0.31420  0.05440  0.07730  Biso   1.000  N
  N4       1.0000 0.37350  0.98830  0.09713  Biso   1.000  N
  N5       1.0000 0.51490  0.91180  0.11350  Biso   1.000  N
  N6       1.0000 0.38800  0.83740  0.13368  Biso   1.000  N
  C1       1.0000 0.24930  0.01240  0.04260  Biso   1.000  C
  C2       1.0000 0.28660  0.15430  0.09110  Biso   1.000  C
  C3       1.0000 0.50190  0.00060  0.09140  Biso   1.000  C
  C4       1.0000 0.30650  0.88610  0.12380  Biso   1.000  C
  H1       1.0000 0.25500  0.94300  0.02800  Biso   1.000  H
  H2       1.0000 0.32600  0.20200  0.11500  Biso   1.000  H
  H3       1.0000 0.56600  0.06700  0.07600  Biso   1.000  H
  H4       1.0000 0.21200  0.85900  0.13200  Biso   1.000  H
  N7       1.0000 0.85287  0.41723  0.36882  Biso   1.000  N
  N8       1.0000 0.87687  0.50903  0.39973  Biso   1.000  N
  N9       1.0000 0.98087  0.38773  0.41063  Biso   1.000  N
  N10      1.0000 0.04017  0.32163  0.43046  Biso   1.000  N
  N11      1.0000 0.18157  0.24513  0.44683  Biso   1.000  N
  N12      1.0000 0.05467  0.17073  0.46701  Biso   1.000  N
  C5       1.0000 0.91597  0.34573  0.37593  Biso   1.000  C
  C6       1.0000 0.95327  0.48763  0.42443  Biso   1.000  C
  C7       1.0000 0.16857  0.33393  0.42473  Biso   1.000  C
  C8       1.0000 0.97317  0.21943  0.45713  Biso   1.000  C
  H5       1.0000 0.92167  0.27633  0.36133  Biso   1.000  H
  H6       1.0000 0.99267  0.53533  0.44833  Biso   1.000  H
  H7       1.0000 0.23267  0.40033  0.40933  Biso   1.000  H
  H8       1.0000 0.87867  0.19233  0.46533  Biso   1.000  H
  N13      1.0000 0.51953  0.75057  0.70216  Biso   1.000  N
  N14      1.0000 0.54353  0.84237  0.73307  Biso   1.000  N
  N15      1.0000 0.64753  0.72107  0.74397  Biso   1.000  N
  N16      1.0000 0.70683  0.65497  0.76380  Biso   1.000  N
  N17      1.0000 0.84823  0.57847  0.78017  Biso   1.000  N
  N18      1.0000 0.72133  0.50407  0.80035  Biso   1.000  N
  C9       1.0000 0.58263  0.67907  0.70927  Biso   1.000  C
  C10      1.0000 0.61993  0.82097  0.75777  Biso   1.000  C
  C11      1.0000 0.83523  0.66727  0.75807  Biso   1.000  C
  C12      1.0000 0.63983  0.55277  0.79047  Biso   1.000  C
  H9       1.0000 0.58833  0.60967  0.69467  Biso   1.000  H
  H10      1.0000 0.65933  0.86867  0.78167  Biso   1.000  H
  H11      1.0000 0.89933  0.73367  0.74267  Biso   1.000  H
  H12      1.0000 0.54533  0.52567  0.79867  Biso   1.000  H
  N19      1.0000 0.91610  0.10230  0.03549  Biso   1.000  N
  N20      1.0000 0.82430  0.03450  0.06640  Biso   1.000  N
  N21      1.0000 0.94560  0.25980  0.07730  Biso   1.000  N
  N22      1.0000 0.01170  0.38520  0.09713  Biso   1.000  N
  N23      1.0000 0.08820  0.60310  0.11350  Biso   1.000  N
  N24      1.0000 0.16260  0.55060  0.13368  Biso   1.000  N
  C13      1.0000 0.98760  0.23690  0.04260  Biso   1.000  C
  C14      1.0000 0.84570  0.13230  0.09110  Biso   1.000  C
  C15      1.0000 0.99940  0.50130  0.09140  Biso   1.000  C
  C16      1.0000 0.11390  0.42040  0.12380  Biso   1.000  C
  H13      1.0000 0.05700  0.31200  0.02800  Biso   1.000  H
  H14      1.0000 0.79800  0.12400  0.11500  Biso   1.000  H
  H15      1.0000 0.93300  0.49900  0.07600  Biso   1.000  H
  H16      1.0000 0.14100  0.35300  0.13200  Biso   1.000  H
  N25      1.0000 0.58277  0.43563  0.36882  Biso   1.000  N
  N26      1.0000 0.49097  0.36783  0.39973  Biso   1.000  N
  N27      1.0000 0.61227  0.59313  0.41063  Biso   1.000  N
  N28      1.0000 0.67837  0.71853  0.43046  Biso   1.000  N
  N29      1.0000 0.75487  0.93643  0.44683  Biso   1.000  N
  N30      1.0000 0.82927  0.88393  0.46701  Biso   1.000  N
  C17      1.0000 0.65427  0.57023  0.37593  Biso   1.000  C
  C18      1.0000 0.51237  0.46563  0.42443  Biso   1.000  C
  C19      1.0000 0.66607  0.83463  0.42473  Biso   1.000  C
  C20      1.0000 0.78057  0.75373  0.45713  Biso   1.000  C
  H17      1.0000 0.72367  0.64533  0.36133  Biso   1.000  H
  H18      1.0000 0.46467  0.45733  0.44833  Biso   1.000  H
  H19      1.0000 0.59967  0.83233  0.40933  Biso   1.000  H
  H20      1.0000 0.80767  0.68633  0.46533  Biso   1.000  H
  N31      1.0000 0.24943  0.76897  0.70216  Biso   1.000  N
  N32      1.0000 0.15763  0.70117  0.73307  Biso   1.000  N
  N33      1.0000 0.27893  0.92647  0.74397  Biso   1.000  N
  N34      1.0000 0.34503  0.05187  0.76380  Biso   1.000  N
  N35      1.0000 0.42153  0.26977  0.78017  Biso   1.000  N
  N36      1.0000 0.49593  0.21727  0.80035  Biso   1.000  N
  C21      1.0000 0.32093  0.90357  0.70927  Biso   1.000  C
  C22      1.0000 0.17903  0.79897  0.75777  Biso   1.000  C
  C23      1.0000 0.33273  0.16797  0.75807  Biso   1.000  C
  C24      1.0000 0.44723  0.08707  0.79047  Biso   1.000  C
  H21      1.0000 0.39033  0.97867  0.69467  Biso   1.000  H
  H22      1.0000 0.13133  0.79067  0.78167  Biso   1.000  H
  H23      1.0000 0.26633  0.16567  0.74267  Biso   1.000  H
  H24      1.0000 0.47433  0.01967  0.79867  Biso   1.000  H
  N37      1.0000 0.89770  0.81380  0.03549  Biso   1.000  N
  N38      1.0000 0.96550  0.78980  0.06640  Biso   1.000  N
  N39      1.0000 0.74020  0.68580  0.07730  Biso   1.000  N
  N40      1.0000 0.61480  0.62650  0.09713  Biso   1.000  N
  N41      1.0000 0.39690  0.48510  0.11350  Biso   1.000  N
  N42      1.0000 0.44940  0.61200  0.13368  Biso   1.000  N
  C25      1.0000 0.76310  0.75070  0.04260  Biso   1.000  C
  C26      1.0000 0.86770  0.71340  0.09110  Biso   1.000  C
  C27      1.0000 0.49870  0.49810  0.09140  Biso   1.000  C
  C28      1.0000 0.57960  0.69350  0.12380  Biso   1.000  C
  H25      1.0000 0.68800  0.74500  0.02800  Biso   1.000  H
  H26      1.0000 0.87600  0.67400  0.11500  Biso   1.000  H
  H27      1.0000 0.50100  0.43400  0.07600  Biso   1.000  H
  H28      1.0000 0.64700  0.78800  0.13200  Biso   1.000  H
  N43      1.0000 0.56437  0.14713  0.36882  Biso   1.000  N
  N44      1.0000 0.63217  0.12313  0.39973  Biso   1.000  N
  N45      1.0000 0.40687  0.01913  0.41063  Biso   1.000  N
  N46      1.0000 0.28147  0.95983  0.43046  Biso   1.000  N
  N47      1.0000 0.06357  0.81843  0.44683  Biso   1.000  N
  N48      1.0000 0.11607  0.94533  0.46701  Biso   1.000  N
  C29      1.0000 0.42977  0.08403  0.37593  Biso   1.000  C
  C30      1.0000 0.53437  0.04673  0.42443  Biso   1.000  C
  C31      1.0000 0.16537  0.83143  0.42473  Biso   1.000  C
  C32      1.0000 0.24627  0.02683  0.45713  Biso   1.000  C
  H29      1.0000 0.35467  0.07833  0.36133  Biso   1.000  H
  H30      1.0000 0.54267  0.00733  0.44833  Biso   1.000  H
  H31      1.0000 0.16767  0.76733  0.40933  Biso   1.000  H
  H32      1.0000 0.31367  0.12133  0.46533  Biso   1.000  H
  N49      1.0000 0.23103  0.48047  0.70216  Biso   1.000  N
  N50      1.0000 0.29883  0.45647  0.73307  Biso   1.000  N
  N51      1.0000 0.07353  0.35247  0.74397  Biso   1.000  N
  N52      1.0000 0.94813  0.29317  0.76380  Biso   1.000  N
  N53      1.0000 0.73023  0.15177  0.78017  Biso   1.000  N
  N54      1.0000 0.78273  0.27867  0.80035  Biso   1.000  N
  C33      1.0000 0.09643  0.41737  0.70927  Biso   1.000  C
  C34      1.0000 0.20103  0.38007  0.75777  Biso   1.000  C
  C35      1.0000 0.83203  0.16477  0.75807  Biso   1.000  C
  C36      1.0000 0.91293  0.36017  0.79047  Biso   1.000  C
  H33      1.0000 0.02133  0.41167  0.69467  Biso   1.000  H
  H34      1.0000 0.20933  0.34067  0.78167  Biso   1.000  H
  H35      1.0000 0.83433  0.10067  0.74267  Biso   1.000  H
  H36      1.0000 0.98033  0.45467  0.79867  Biso   1.000  H
  N55      1.0000 0.81380  0.91610  0.96451  Biso   1.000  N
  N56      1.0000 0.78980  0.82430  0.93360  Biso   1.000  N
  N57      1.0000 0.68580  0.94560  0.92270  Biso   1.000  N
  N58      1.0000 0.62650  0.01170  0.90287  Biso   1.000  N
  N59      1.0000 0.48510  0.08820  0.88650  Biso   1.000  N
  N60      1.0000 0.61200  0.16260  0.86632  Biso   1.000  N
  C37      1.0000 0.75070  0.98760  0.95740  Biso   1.000  C
  C38      1.0000 0.71340  0.84570  0.90890  Biso   1.000  C
  C39      1.0000 0.49810  0.99940  0.90860  Biso   1.000  C
  C40      1.0000 0.69350  0.11390  0.87620  Biso   1.000  C
  H37      1.0000 0.74500  0.05700  0.97200  Biso   1.000  H
  H38      1.0000 0.67400  0.79800  0.88500  Biso   1.000  H
  H39      1.0000 0.43400  0.93300  0.92400  Biso   1.000  H
  H40      1.0000 0.78800  0.14100  0.86800  Biso   1.000  H
  N61      1.0000 0.48047  0.24943  0.29784  Biso   1.000  N
  N62      1.0000 0.45647  0.15763  0.26693  Biso   1.000  N
  N63      1.0000 0.35247  0.27893  0.25603  Biso   1.000  N
  N64      1.0000 0.29317  0.34503  0.23620  Biso   1.000  N
  N65      1.0000 0.15177  0.42153  0.21983  Biso   1.000  N
  N66      1.0000 0.27867  0.49593  0.19965  Biso   1.000  N
  C41      1.0000 0.41737  0.32093  0.29073  Biso   1.000  C
  C42      1.0000 0.38007  0.17903  0.24223  Biso   1.000  C
  C43      1.0000 0.16477  0.33273  0.24193  Biso   1.000  C
  C44      1.0000 0.36017  0.44723  0.20953  Biso   1.000  C
  H41      1.0000 0.41167  0.39033  0.30533  Biso   1.000  H
  H42      1.0000 0.34067  0.13133  0.21833  Biso   1.000  H
  H43      1.0000 0.10067  0.26633  0.25733  Biso   1.000  H
  H44      1.0000 0.45467  0.47433  0.20133  Biso   1.000  H
  N67      1.0000 0.14713  0.58277  0.63118  Biso   1.000  N
  N68      1.0000 0.12313  0.49097  0.60027  Biso   1.000  N
  N69      1.0000 0.01913  0.61227  0.58937  Biso   1.000  N
  N70      1.0000 0.95983  0.67837  0.56954  Biso   1.000  N
  N71      1.0000 0.81843  0.75487  0.55317  Biso   1.000  N
  N72      1.0000 0.94533  0.82927  0.53299  Biso   1.000  N
  C45      1.0000 0.08403  0.65427  0.62407  Biso   1.000  C
  C46      1.0000 0.04673  0.51237  0.57557  Biso   1.000  C
  C47      1.0000 0.83143  0.66607  0.57527  Biso   1.000  C
  C48      1.0000 0.02683  0.78057  0.54287  Biso   1.000  C
  H45      1.0000 0.07833  0.72367  0.63867  Biso   1.000  H
  H46      1.0000 0.00733  0.46467  0.55167  Biso   1.000  H
  H47      1.0000 0.76733  0.59967  0.59067  Biso   1.000  H
  H48      1.0000 0.12133  0.80767  0.53467  Biso   1.000  H
  N73      1.0000 0.08390  0.89770  0.96451  Biso   1.000  N
  N74      1.0000 0.17570  0.96550  0.93360  Biso   1.000  N
  N75      1.0000 0.05440  0.74020  0.92270  Biso   1.000  N
  N76      1.0000 0.98830  0.61480  0.90287  Biso   1.000  N
  N77      1.0000 0.91180  0.39690  0.88650  Biso   1.000  N
  N78      1.0000 0.83740  0.44940  0.86632  Biso   1.000  N
  C49      1.0000 0.01240  0.76310  0.95740  Biso   1.000  C
  C50      1.0000 0.15430  0.86770  0.90890  Biso   1.000  C
  C51      1.0000 0.00060  0.49870  0.90860  Biso   1.000  C
  C52      1.0000 0.88610  0.57960  0.87620  Biso   1.000  C
  H49      1.0000 0.94300  0.68800  0.97200  Biso   1.000  H
  H50      1.0000 0.20200  0.87600  0.88500  Biso   1.000  H
  H51      1.0000 0.06700  0.50100  0.92400  Biso   1.000  H
  H52      1.0000 0.85900  0.64700  0.86800  Biso   1.000  H
  N79      1.0000 0.75057  0.23103  0.29784  Biso   1.000  N
  N80      1.0000 0.84237  0.29883  0.26693  Biso   1.000  N
  N81      1.0000 0.72107  0.07353  0.25603  Biso   1.000  N
  N82      1.0000 0.65497  0.94813  0.23620  Biso   1.000  N
  N83      1.0000 0.57847  0.73023  0.21983  Biso   1.000  N
  N84      1.0000 0.50407  0.78273  0.19965  Biso   1.000  N
  C53      1.0000 0.67907  0.09643  0.29073  Biso   1.000  C
  C54      1.0000 0.82097  0.20103  0.24223  Biso   1.000  C
  C55      1.0000 0.66727  0.83203  0.24193  Biso   1.000  C
  C56      1.0000 0.55277  0.91293  0.20953  Biso   1.000  C
  H53      1.0000 0.60967  0.02133  0.30533  Biso   1.000  H
  H54      1.0000 0.86867  0.20933  0.21833  Biso   1.000  H
  H55      1.0000 0.73367  0.83433  0.25733  Biso   1.000  H
  H56      1.0000 0.52567  0.98033  0.20133  Biso   1.000  H
  N85      1.0000 0.41723  0.56437  0.63118  Biso   1.000  N
  N86      1.0000 0.50903  0.63217  0.60027  Biso   1.000  N
  N87      1.0000 0.38773  0.40687  0.58937  Biso   1.000  N
  N88      1.0000 0.32163  0.28147  0.56954  Biso   1.000  N
  N89      1.0000 0.24513  0.06357  0.55317  Biso   1.000  N
  N90      1.0000 0.17073  0.11607  0.53299  Biso   1.000  N
  C57      1.0000 0.34573  0.42977  0.62407  Biso   1.000  C
  C58      1.0000 0.48763  0.53437  0.57557  Biso   1.000  C
  C59      1.0000 0.33393  0.16537  0.57527  Biso   1.000  C
  C60      1.0000 0.21943  0.24627  0.54287  Biso   1.000  C
  H57      1.0000 0.27633  0.35467  0.63867  Biso   1.000  H
  H58      1.0000 0.53533  0.54267  0.55167  Biso   1.000  H
  H59      1.0000 0.40033  0.16767  0.59067  Biso   1.000  H
  H60      1.0000 0.19233  0.31367  0.53467  Biso   1.000  H
  N91      1.0000 0.10230  0.18620  0.96451  Biso   1.000  N
  N92      1.0000 0.03450  0.21020  0.93360  Biso   1.000  N
  N93      1.0000 0.25980  0.31420  0.92270  Biso   1.000  N
  N94      1.0000 0.38520  0.37350  0.90287  Biso   1.000  N
  N95      1.0000 0.60310  0.51490  0.88650  Biso   1.000  N
  N96      1.0000 0.55060  0.38800  0.86632  Biso   1.000  N
  C61      1.0000 0.23690  0.24930  0.95740  Biso   1.000  C
  C62      1.0000 0.13230  0.28660  0.90890  Biso   1.000  C
  C63      1.0000 0.50130  0.50190  0.90860  Biso   1.000  C
  C64      1.0000 0.42040  0.30650  0.87620  Biso   1.000  C
  H61      1.0000 0.31200  0.25500  0.97200  Biso   1.000  H
  H62      1.0000 0.12400  0.32600  0.88500  Biso   1.000  H
  H63      1.0000 0.49900  0.56600  0.92400  Biso   1.000  H
  H64      1.0000 0.35300  0.21200  0.86800  Biso   1.000  H
  N97      1.0000 0.76897  0.51953  0.29784  Biso   1.000  N
  N98      1.0000 0.70117  0.54353  0.26693  Biso   1.000  N
  N99      1.0000 0.92647  0.64753  0.25603  Biso   1.000  N
  N100     1.0000 0.05187  0.70683  0.23620  Biso   1.000  N
  N101     1.0000 0.26977  0.84823  0.21983  Biso   1.000  N
  N102     1.0000 0.21727  0.72133  0.19965  Biso   1.000  N
  C65      1.0000 0.90357  0.58263  0.29073  Biso   1.000  C
  C66      1.0000 0.79897  0.61993  0.24223  Biso   1.000  C
  C67      1.0000 0.16797  0.83523  0.24193  Biso   1.000  C
  C68      1.0000 0.08707  0.63983  0.20953  Biso   1.000  C
  H65      1.0000 0.97867  0.58833  0.30533  Biso   1.000  H
  H66      1.0000 0.79067  0.65933  0.21833  Biso   1.000  H
  H67      1.0000 0.16567  0.89933  0.25733  Biso   1.000  H
  H68      1.0000 0.01967  0.54533  0.20133  Biso   1.000  H
  N103     1.0000 0.43563  0.85287  0.63118  Biso   1.000  N
  N104     1.0000 0.36783  0.87687  0.60027  Biso   1.000  N
  N105     1.0000 0.59313  0.98087  0.58937  Biso   1.000  N
  N106     1.0000 0.71853  0.04017  0.56954  Biso   1.000  N
  N107     1.0000 0.93643  0.18157  0.55317  Biso   1.000  N
  N108     1.0000 0.88393  0.05467  0.53299  Biso   1.000  N
  C69      1.0000 0.57023  0.91597  0.62407  Biso   1.000  C
  C70      1.0000 0.46563  0.95327  0.57557  Biso   1.000  C
  C71      1.0000 0.83463  0.16857  0.57527  Biso   1.000  C
  C72      1.0000 0.75373  0.97317  0.54287  Biso   1.000  C
  H69      1.0000 0.64533  0.92167  0.63867  Biso   1.000  H
  H70      1.0000 0.45733  0.99267  0.55167  Biso   1.000  H
  H71      1.0000 0.83233  0.23267  0.59067  Biso   1.000  H
  H72      1.0000 0.68633  0.87867  0.53467  Biso   1.000  H
  Fe1      1.0000 0.00000  0.00000  0.00000  Biso   1.000  Fe
  Fe2      1.0000 0.66667  0.33333  0.33333  Biso   1.000  Fe
  Fe3      1.0000 0.33333  0.66667  0.66667  Biso   1.000  Fe
  Fe4      1.0000 0.66667  0.33333  0.83333  Biso   1.000  Fe
  Fe5      1.0000 0.33333  0.66667  0.16667  Biso   1.000  Fe
  Fe6      1.0000 0.00000  0.00000  0.50000  Biso   1.000  Fe
