data_image0
_cell_length_a       11.03
_cell_length_b       11.03
_cell_length_c       33.008
_cell_angle_alpha    90
_cell_angle_beta     90
_cell_angle_gamma    120

_symmetry_space_group_name_H-M    "P 1"
_symmetry_int_tables_number       1

loop_
  _symmetry_equiv_pos_as_xyz
  'x, y, z'

loop_
  _atom_site_label
  _atom_site_occupancy
  _atom_site_fract_x
  _atom_site_fract_y
  _atom_site_fract_z
  _atom_site_thermal_displace_type
  _atom_site_B_iso_or_equiv
  _atom_site_type_symbol
  N1       1.0000 0.16920  0.05540  0.03400  Biso   1.000  N
  N2       1.0000 0.24340  0.18080  0.05540  Biso   1.000  N
  N3       1.0000 0.32030  0.04070  0.07150  Biso   1.000  N
  N4       1.0000 0.38410  0.98020  0.09190  Biso   1.000  N
  N5       1.0000 0.50300  0.87480  0.10220  Biso   1.000  N
  N6       1.0000 0.40050  0.83530  0.13180  Biso   1.000  N
  C1       1.0000 0.21750  0.97550  0.04380  Biso   1.000  C
  C2       1.0000 0.33250  0.16840  0.07790  Biso   1.000  C
  C3       1.0000 0.48810  0.95950  0.07840  Biso   1.000  C
  C4       1.0000 0.33170  0.89990  0.12540  Biso   1.000  C
  H1       1.0000 0.19200  0.88600  0.03000  Biso   1.000  H
  H2       1.0000 0.39800  0.23800  0.09400  Biso   1.000  H
  H3       1.0000 0.53100  0.99500  0.05800  Biso   1.000  H
  H4       1.0000 0.26000  0.90200  0.13900  Biso   1.000  H
  N7       1.0000 0.83587  0.38873  0.36733  Biso   1.000  N
  N8       1.0000 0.91007  0.51413  0.38873  Biso   1.000  N
  N9       1.0000 0.98697  0.37403  0.40483  Biso   1.000  N
  N10      1.0000 0.05077  0.31353  0.42523  Biso   1.000  N
  N11      1.0000 0.16967  0.20813  0.43553  Biso   1.000  N
  N12      1.0000 0.06717  0.16863  0.46513  Biso   1.000  N
  C5       1.0000 0.88417  0.30883  0.37713  Biso   1.000  C
  C6       1.0000 0.99917  0.50173  0.41123  Biso   1.000  C
  C7       1.0000 0.15477  0.29283  0.41173  Biso   1.000  C
  C8       1.0000 0.99837  0.23323  0.45873  Biso   1.000  C
  H5       1.0000 0.85867  0.21933  0.36333  Biso   1.000  H
  H6       1.0000 0.06467  0.57133  0.42733  Biso   1.000  H
  H7       1.0000 0.19767  0.32833  0.39133  Biso   1.000  H
  H8       1.0000 0.92667  0.23533  0.47233  Biso   1.000  H
  N13      1.0000 0.50253  0.72207  0.70067  Biso   1.000  N
  N14      1.0000 0.57673  0.84747  0.72207  Biso   1.000  N
  N15      1.0000 0.65363  0.70737  0.73817  Biso   1.000  N
  N16      1.0000 0.71743  0.64687  0.75857  Biso   1.000  N
  N17      1.0000 0.83633  0.54147  0.76887  Biso   1.000  N
  N18      1.0000 0.73383  0.50197  0.79847  Biso   1.000  N
  C9       1.0000 0.55083  0.64217  0.71047  Biso   1.000  C
  C10      1.0000 0.66583  0.83507  0.74457  Biso   1.000  C
  C11      1.0000 0.82143  0.62617  0.74507  Biso   1.000  C
  C12      1.0000 0.66503  0.56657  0.79207  Biso   1.000  C
  H9       1.0000 0.52533  0.55267  0.69667  Biso   1.000  H
  H10      1.0000 0.73133  0.90467  0.76067  Biso   1.000  H
  H11      1.0000 0.86433  0.66167  0.72467  Biso   1.000  H
  H12      1.0000 0.59333  0.56867  0.80567  Biso   1.000  H
  N19      1.0000 0.94460  0.11380  0.03400  Biso   1.000  N
  N20      1.0000 0.81920  0.06260  0.05540  Biso   1.000  N
  N21      1.0000 0.95930  0.27960  0.07150  Biso   1.000  N
  N22      1.0000 0.01980  0.40390  0.09190  Biso   1.000  N
  N23      1.0000 0.12520  0.62820  0.10220  Biso   1.000  N
  N24      1.0000 0.16470  0.56520  0.13180  Biso   1.000  N
  C13      1.0000 0.02450  0.24200  0.04380  Biso   1.000  C
  C14      1.0000 0.83160  0.16410  0.07790  Biso   1.000  C
  C15      1.0000 0.04050  0.52860  0.07840  Biso   1.000  C
  C16      1.0000 0.10010  0.43180  0.12540  Biso   1.000  C
  H13      1.0000 0.11400  0.30600  0.03000  Biso   1.000  H
  H14      1.0000 0.76200  0.16000  0.09400  Biso   1.000  H
  H15      1.0000 0.00500  0.53600  0.05800  Biso   1.000  H
  H16      1.0000 0.09800  0.35800  0.13900  Biso   1.000  H
  N25      1.0000 0.61127  0.44713  0.36733  Biso   1.000  N
  N26      1.0000 0.48587  0.39593  0.38873  Biso   1.000  N
  N27      1.0000 0.62597  0.61293  0.40483  Biso   1.000  N
  N28      1.0000 0.68647  0.73723  0.42523  Biso   1.000  N
  N29      1.0000 0.79187  0.96153  0.43553  Biso   1.000  N
  N30      1.0000 0.83137  0.89853  0.46513  Biso   1.000  N
  C17      1.0000 0.69117  0.57533  0.37713  Biso   1.000  C
  C18      1.0000 0.49827  0.49743  0.41123  Biso   1.000  C
  C19      1.0000 0.70717  0.86193  0.41173  Biso   1.000  C
  C20      1.0000 0.76677  0.76513  0.45873  Biso   1.000  C
  H17      1.0000 0.78067  0.63933  0.36333  Biso   1.000  H
  H18      1.0000 0.42867  0.49333  0.42733  Biso   1.000  H
  H19      1.0000 0.67167  0.86933  0.39133  Biso   1.000  H
  H20      1.0000 0.76467  0.69133  0.47233  Biso   1.000  H
  N31      1.0000 0.27793  0.78047  0.70067  Biso   1.000  N
  N32      1.0000 0.15253  0.72927  0.72207  Biso   1.000  N
  N33      1.0000 0.29263  0.94627  0.73817  Biso   1.000  N
  N34      1.0000 0.35313  0.07057  0.75857  Biso   1.000  N
  N35      1.0000 0.45853  0.29487  0.76887  Biso   1.000  N
  N36      1.0000 0.49803  0.23187  0.79847  Biso   1.000  N
  C21      1.0000 0.35783  0.90867  0.71047  Biso   1.000  C
  C22      1.0000 0.16493  0.83077  0.74457  Biso   1.000  C
  C23      1.0000 0.37383  0.19527  0.74507  Biso   1.000  C
  C24      1.0000 0.43343  0.09847  0.79207  Biso   1.000  C
  H21      1.0000 0.44733  0.97267  0.69667  Biso   1.000  H
  H22      1.0000 0.09533  0.82667  0.76067  Biso   1.000  H
  H23      1.0000 0.33833  0.20267  0.72467  Biso   1.000  H
  H24      1.0000 0.43133  0.02467  0.80567  Biso   1.000  H
  N37      1.0000 0.88620  0.83080  0.03400  Biso   1.000  N
  N38      1.0000 0.93740  0.75660  0.05540  Biso   1.000  N
  N39      1.0000 0.72040  0.67970  0.07150  Biso   1.000  N
  N40      1.0000 0.59610  0.61590  0.09190  Biso   1.000  N
  N41      1.0000 0.37180  0.49700  0.10220  Biso   1.000  N
  N42      1.0000 0.43480  0.59950  0.13180  Biso   1.000  N
  C25      1.0000 0.75800  0.78250  0.04380  Biso   1.000  C
  C26      1.0000 0.83590  0.66750  0.07790  Biso   1.000  C
  C27      1.0000 0.47140  0.51190  0.07840  Biso   1.000  C
  C28      1.0000 0.56820  0.66830  0.12540  Biso   1.000  C
  H25      1.0000 0.69400  0.80800  0.03000  Biso   1.000  H
  H26      1.0000 0.84000  0.60200  0.09400  Biso   1.000  H
  H27      1.0000 0.46400  0.46900  0.05800  Biso   1.000  H
  H28      1.0000 0.64200  0.74000  0.13900  Biso   1.000  H
  N43      1.0000 0.55287  0.16413  0.36733  Biso   1.000  N
  N44      1.0000 0.60407  0.08993  0.38873  Biso   1.000  N
  N45      1.0000 0.38707  0.01303  0.40483  Biso   1.000  N
  N46      1.0000 0.26277  0.94923  0.42523  Biso   1.000  N
  N47      1.0000 0.03847  0.83033  0.43553  Biso   1.000  N
  N48      1.0000 0.10147  0.93283  0.46513  Biso   1.000  N
  C29      1.0000 0.42467  0.11583  0.37713  Biso   1.000  C
  C30      1.0000 0.50257  0.00083  0.41123  Biso   1.000  C
  C31      1.0000 0.13807  0.84523  0.41173  Biso   1.000  C
  C32      1.0000 0.23487  0.00163  0.45873  Biso   1.000  C
  H29      1.0000 0.36067  0.14133  0.36333  Biso   1.000  H
  H30      1.0000 0.50667  0.93533  0.42733  Biso   1.000  H
  H31      1.0000 0.13067  0.80233  0.39133  Biso   1.000  H
  H32      1.0000 0.30867  0.07333  0.47233  Biso   1.000  H
  N49      1.0000 0.21953  0.49747  0.70067  Biso   1.000  N
  N50      1.0000 0.27073  0.42327  0.72207  Biso   1.000  N
  N51      1.0000 0.05373  0.34637  0.73817  Biso   1.000  N
  N52      1.0000 0.92943  0.28257  0.75857  Biso   1.000  N
  N53      1.0000 0.70513  0.16367  0.76887  Biso   1.000  N
  N54      1.0000 0.76813  0.26617  0.79847  Biso   1.000  N
  C33      1.0000 0.09133  0.44917  0.71047  Biso   1.000  C
  C34      1.0000 0.16923  0.33417  0.74457  Biso   1.000  C
  C35      1.0000 0.80473  0.17857  0.74507  Biso   1.000  C
  C36      1.0000 0.90153  0.33497  0.79207  Biso   1.000  C
  H33      1.0000 0.02733  0.47467  0.69667  Biso   1.000  H
  H34      1.0000 0.17333  0.26867  0.76067  Biso   1.000  H
  H35      1.0000 0.79733  0.13567  0.72467  Biso   1.000  H
  H36      1.0000 0.97533  0.40667  0.80567  Biso   1.000  H
  N55      1.0000 0.83080  0.94460  0.96600  Biso   1.000  N
  N56      1.0000 0.75660  0.81920  0.94460  Biso   1.000  N
  N57      1.0000 0.67970  0.95930  0.92850  Biso   1.000  N
  N58      1.0000 0.61590  0.01980  0.90810  Biso   1.000  N
  N59      1.0000 0.49700  0.12520  0.89780  Biso   1.000  N
  N60      1.0000 0.59950  0.16470  0.86820  Biso   1.000  N
  C37      1.0000 0.78250  0.02450  0.95620  Biso   1.000  C
  C38      1.0000 0.66750  0.83160  0.92210  Biso   1.000  C
  C39      1.0000 0.51190  0.04050  0.92160  Biso   1.000  C
  C40      1.0000 0.66830  0.10010  0.87460  Biso   1.000  C
  H37      1.0000 0.80800  0.11400  0.97000  Biso   1.000  H
  H38      1.0000 0.60200  0.76200  0.90600  Biso   1.000  H
  H39      1.0000 0.46900  0.00500  0.94200  Biso   1.000  H
  H40      1.0000 0.74000  0.09800  0.86100  Biso   1.000  H
  N61      1.0000 0.49747  0.27793  0.29933  Biso   1.000  N
  N62      1.0000 0.42327  0.15253  0.27793  Biso   1.000  N
  N63      1.0000 0.34637  0.29263  0.26183  Biso   1.000  N
  N64      1.0000 0.28257  0.35313  0.24143  Biso   1.000  N
  N65      1.0000 0.16367  0.45853  0.23113  Biso   1.000  N
  N66      1.0000 0.26617  0.49803  0.20153  Biso   1.000  N
  C41      1.0000 0.44917  0.35783  0.28953  Biso   1.000  C
  C42      1.0000 0.33417  0.16493  0.25543  Biso   1.000  C
  C43      1.0000 0.17857  0.37383  0.25493  Biso   1.000  C
  C44      1.0000 0.33497  0.43343  0.20793  Biso   1.000  C
  H41      1.0000 0.47467  0.44733  0.30333  Biso   1.000  H
  H42      1.0000 0.26867  0.09533  0.23933  Biso   1.000  H
  H43      1.0000 0.13567  0.33833  0.27533  Biso   1.000  H
  H44      1.0000 0.40667  0.43133  0.19433  Biso   1.000  H
  N67      1.0000 0.16413  0.61127  0.63267  Biso   1.000  N
  N68      1.0000 0.08993  0.48587  0.61127  Biso   1.000  N
  N69      1.0000 0.01303  0.62597  0.59517  Biso   1.000  N
  N70      1.0000 0.94923  0.68647  0.57477  Biso   1.000  N
  N71      1.0000 0.83033  0.79187  0.56447  Biso   1.000  N
  N72      1.0000 0.93283  0.83137  0.53487  Biso   1.000  N
  C45      1.0000 0.11583  0.69117  0.62287  Biso   1.000  C
  C46      1.0000 0.00083  0.49827  0.58877  Biso   1.000  C
  C47      1.0000 0.84523  0.70717  0.58827  Biso   1.000  C
  C48      1.0000 0.00163  0.76677  0.54127  Biso   1.000  C
  H45      1.0000 0.14133  0.78067  0.63667  Biso   1.000  H
  H46      1.0000 0.93533  0.42867  0.57267  Biso   1.000  H
  H47      1.0000 0.80233  0.67167  0.60867  Biso   1.000  H
  H48      1.0000 0.07333  0.76467  0.52767  Biso   1.000  H
  N73      1.0000 0.05540  0.88620  0.96600  Biso   1.000  N
  N74      1.0000 0.18080  0.93740  0.94460  Biso   1.000  N
  N75      1.0000 0.04070  0.72040  0.92850  Biso   1.000  N
  N76      1.0000 0.98020  0.59610  0.90810  Biso   1.000  N
  N77      1.0000 0.87480  0.37180  0.89780  Biso   1.000  N
  N78      1.0000 0.83530  0.43480  0.86820  Biso   1.000  N
  C49      1.0000 0.97550  0.75800  0.95620  Biso   1.000  C
  C50      1.0000 0.16840  0.83590  0.92210  Biso   1.000  C
  C51      1.0000 0.95950  0.47140  0.92160  Biso   1.000  C
  C52      1.0000 0.89990  0.56820  0.87460  Biso   1.000  C
  H49      1.0000 0.88600  0.69400  0.97000  Biso   1.000  H
  H50      1.0000 0.23800  0.84000  0.90600  Biso   1.000  H
  H51      1.0000 0.99500  0.46400  0.94200  Biso   1.000  H
  H52      1.0000 0.90200  0.64200  0.86100  Biso   1.000  H
  N79      1.0000 0.72207  0.21953  0.29933  Biso   1.000  N
  N80      1.0000 0.84747  0.27073  0.27793  Biso   1.000  N
  N81      1.0000 0.70737  0.05373  0.26183  Biso   1.000  N
  N82      1.0000 0.64687  0.92943  0.24143  Biso   1.000  N
  N83      1.0000 0.54147  0.70513  0.23113  Biso   1.000  N
  N84      1.0000 0.50197  0.76813  0.20153  Biso   1.000  N
  C53      1.0000 0.64217  0.09133  0.28953  Biso   1.000  C
  C54      1.0000 0.83507  0.16923  0.25543  Biso   1.000  C
  C55      1.0000 0.62617  0.80473  0.25493  Biso   1.000  C
  C56      1.0000 0.56657  0.90153  0.20793  Biso   1.000  C
  H53      1.0000 0.55267  0.02733  0.30333  Biso   1.000  H
  H54      1.0000 0.90467  0.17333  0.23933  Biso   1.000  H
  H55      1.0000 0.66167  0.79733  0.27533  Biso   1.000  H
  H56      1.0000 0.56867  0.97533  0.19433  Biso   1.000  H
  N85      1.0000 0.38873  0.55287  0.63267  Biso   1.000  N
  N86      1.0000 0.51413  0.60407  0.61127  Biso   1.000  N
  N87      1.0000 0.37403  0.38707  0.59517  Biso   1.000  N
  N88      1.0000 0.31353  0.26277  0.57477  Biso   1.000  N
  N89      1.0000 0.20813  0.03847  0.56447  Biso   1.000  N
  N90      1.0000 0.16863  0.10147  0.53487  Biso   1.000  N
  C57      1.0000 0.30883  0.42467  0.62287  Biso   1.000  C
  C58      1.0000 0.50173  0.50257  0.58877  Biso   1.000  C
  C59      1.0000 0.29283  0.13807  0.58827  Biso   1.000  C
  C60      1.0000 0.23323  0.23487  0.54127  Biso   1.000  C
  H57      1.0000 0.21933  0.36067  0.63667  Biso   1.000  H
  H58      1.0000 0.57133  0.50667  0.57267  Biso   1.000  H
  H59      1.0000 0.32833  0.13067  0.60867  Biso   1.000  H
  H60      1.0000 0.23533  0.30867  0.52767  Biso   1.000  H
  N91      1.0000 0.11380  0.16920  0.96600  Biso   1.000  N
  N92      1.0000 0.06260  0.24340  0.94460  Biso   1.000  N
  N93      1.0000 0.27960  0.32030  0.92850  Biso   1.000  N
  N94      1.0000 0.40390  0.38410  0.90810  Biso   1.000  N
  N95      1.0000 0.62820  0.50300  0.89780  Biso   1.000  N
  N96      1.0000 0.56520  0.40050  0.86820  Biso   1.000  N
  C61      1.0000 0.24200  0.21750  0.95620  Biso   1.000  C
  C62      1.0000 0.16410  0.33250  0.92210  Biso   1.000  C
  C63      1.0000 0.52860  0.48810  0.92160  Biso   1.000  C
  C64      1.0000 0.43180  0.33170  0.87460  Biso   1.000  C
  H61      1.0000 0.30600  0.19200  0.97000  Biso   1.000  H
  H62      1.0000 0.16000  0.39800  0.90600  Biso   1.000  H
  H63      1.0000 0.53600  0.53100  0.94200  Biso   1.000  H
  H64      1.0000 0.35800  0.26000  0.86100  Biso   1.000  H
  N97      1.0000 0.78047  0.50253  0.29933  Biso   1.000  N
  N98      1.0000 0.72927  0.57673  0.27793  Biso   1.000  N
  N99      1.0000 0.94627  0.65363  0.26183  Biso   1.000  N
  N100     1.0000 0.07057  0.71743  0.24143  Biso   1.000  N
  N101     1.0000 0.29487  0.83633  0.23113  Biso   1.000  N
  N102     1.0000 0.23187  0.73383  0.20153  Biso   1.000  N
  C65      1.0000 0.90867  0.55083  0.28953  Biso   1.000  C
  C66      1.0000 0.83077  0.66583  0.25543  Biso   1.000  C
  C67      1.0000 0.19527  0.82143  0.25493  Biso   1.000  C
  C68      1.0000 0.09847  0.66503  0.20793  Biso   1.000  C
  H65      1.0000 0.97267  0.52533  0.30333  Biso   1.000  H
  H66      1.0000 0.82667  0.73133  0.23933  Biso   1.000  H
  H67      1.0000 0.20267  0.86433  0.27533  Biso   1.000  H
  H68      1.0000 0.02467  0.59333  0.19433  Biso   1.000  H
  N103     1.0000 0.44713  0.83587  0.63267  Biso   1.000  N
  N104     1.0000 0.39593  0.91007  0.61127  Biso   1.000  N
  N105     1.0000 0.61293  0.98697  0.59517  Biso   1.000  N
  N106     1.0000 0.73723  0.05077  0.57477  Biso   1.000  N
  N107     1.0000 0.96153  0.16967  0.56447  Biso   1.000  N
  N108     1.0000 0.89853  0.06717  0.53487  Biso   1.000  N
  C69      1.0000 0.57533  0.88417  0.62287  Biso   1.000  C
  C70      1.0000 0.49743  0.99917  0.58877  Biso   1.000  C
  C71      1.0000 0.86193  0.15477  0.58827  Biso   1.000  C
  C72      1.0000 0.76513  0.99837  0.54127  Biso   1.000  C
  H69      1.0000 0.63933  0.85867  0.63667  Biso   1.000  H
  H70      1.0000 0.49333  0.06467  0.57267  Biso   1.000  H
  H71      1.0000 0.86933  0.19767  0.60867  Biso   1.000  H
  H72      1.0000 0.69133  0.92667  0.52767  Biso   1.000  H
  Fe1      1.0000 0.00000  0.00000  0.00000  Biso   1.000  Fe
  Fe2      1.0000 0.66667  0.33333  0.33333  Biso   1.000  Fe
  Fe3      1.0000 0.33333  0.66667  0.66667  Biso   1.000  Fe
  Fe4      1.0000 0.66667  0.33333  0.83333  Biso   1.000  Fe
  Fe5      1.0000 0.33333  0.66667  0.16667  Biso   1.000  Fe
  Fe6      1.0000 0.00000  0.00000  0.50000  Biso   1.000  Fe
