data_image0
_cell_length_a       13.8721
_cell_length_b       15.8991
_cell_length_c       17.6743
_cell_angle_alpha    63.2704
_cell_angle_beta     78.8942
_cell_angle_gamma    64.6431

_symmetry_space_group_name_H-M    P 1
_symmetry_int_tables_number       1

loop_
  _symmetry_equiv_pos_as_xyz
  'x, y, z'

loop_
  _atom_site_label
  _atom_site_occupancy
  _atom_site_fract_x
  _atom_site_fract_y
  _atom_site_fract_z
  _atom_site_thermal_displace_type
  _atom_site_B_iso_or_equiv
  _atom_site_type_symbol
  Cu1      1.0000 0.75670  0.48423  0.00000  Biso   1.000  Cu
  Cu2      1.0000 0.24330  0.51577  0.00000  Biso   1.000  Cu
  Cu3      1.0000 0.50000  0.50000  0.00000  Biso   1.000  Cu
  Cu4      1.0000 0.00000  0.50000  0.00000  Biso   1.000  Cu
  C1       1.0000 0.68460  0.26185  0.19990  Biso   1.000  C
  C2       1.0000 0.70800  0.17479  0.28402  Biso   1.000  C
  C3       1.0000 0.67220  0.09822  0.30716  Biso   1.000  C
  C4       1.0000 0.69510  0.01639  0.38582  Biso   1.000  C
  C5       1.0000 0.75250  0.01251  0.44458  Biso   1.000  C
  C6       1.0000 0.78690  0.08390  0.42080  Biso   1.000  C
  C7       1.0000 0.76450  0.16800  0.34420  Biso   1.000  C
  C8       1.0000 0.81910  0.70799  0.79282  Biso   1.000  C
  C9       1.0000 0.80220  0.78145  0.70510  Biso   1.000  C
  C10      1.0000 0.70170  0.84067  0.66706  Biso   1.000  C
  C11      1.0000 0.68630  0.90821  0.58498  Biso   1.000  C
  C12      1.0000 0.76970  0.92926  0.53228  Biso   1.000  C
  C13      1.0000 0.86870  0.87130  0.56880  Biso   1.000  C
  C14      1.0000 0.88470  0.80082  0.65176  Biso   1.000  C
  C15      1.0000 0.31540  0.53825  0.19990  Biso   1.000  C
  C16      1.0000 0.29200  0.54119  0.28402  Biso   1.000  C
  C17      1.0000 0.32780  0.59462  0.30716  Biso   1.000  C
  C18      1.0000 0.30490  0.59779  0.38582  Biso   1.000  C
  C19      1.0000 0.24750  0.54291  0.44458  Biso   1.000  C
  C20      1.0000 0.21310  0.49530  0.42080  Biso   1.000  C
  C21      1.0000 0.23550  0.48780  0.34420  Biso   1.000  C
  C22      1.0000 0.18090  0.49919  0.79282  Biso   1.000  C
  C23      1.0000 0.19780  0.51345  0.70510  Biso   1.000  C
  C24      1.0000 0.29830  0.49227  0.66706  Biso   1.000  C
  C25      1.0000 0.31370  0.50681  0.58498  Biso   1.000  C
  C26      1.0000 0.23030  0.53846  0.53228  Biso   1.000  C
  C27      1.0000 0.13130  0.55990  0.56880  Biso   1.000  C
  C28      1.0000 0.11530  0.54742  0.65176  Biso   1.000  C
  C29      1.0000 0.31540  0.73815  0.80010  Biso   1.000  C
  C30      1.0000 0.29200  0.82521  0.71598  Biso   1.000  C
  C31      1.0000 0.32780  0.90178  0.69284  Biso   1.000  C
  C32      1.0000 0.30490  0.98361  0.61418  Biso   1.000  C
  C33      1.0000 0.24750  0.98749  0.55542  Biso   1.000  C
  C34      1.0000 0.21310  0.91610  0.57920  Biso   1.000  C
  C35      1.0000 0.23550  0.83200  0.65580  Biso   1.000  C
  C36      1.0000 0.18090  0.29201  0.20718  Biso   1.000  C
  C37      1.0000 0.19780  0.21855  0.29490  Biso   1.000  C
  C38      1.0000 0.29830  0.15933  0.33294  Biso   1.000  C
  C39      1.0000 0.31370  0.09179  0.41502  Biso   1.000  C
  C40      1.0000 0.23030  0.07074  0.46772  Biso   1.000  C
  C41      1.0000 0.13130  0.12870  0.43120  Biso   1.000  C
  C42      1.0000 0.11530  0.19918  0.34824  Biso   1.000  C
  C43      1.0000 0.68460  0.46175  0.80010  Biso   1.000  C
  C44      1.0000 0.70800  0.45881  0.71598  Biso   1.000  C
  C45      1.0000 0.67220  0.40538  0.69284  Biso   1.000  C
  C46      1.0000 0.69510  0.40221  0.61418  Biso   1.000  C
  C47      1.0000 0.75250  0.45709  0.55542  Biso   1.000  C
  C48      1.0000 0.78690  0.50470  0.57920  Biso   1.000  C
  C49      1.0000 0.76450  0.51220  0.65580  Biso   1.000  C
  C50      1.0000 0.81910  0.50081  0.20718  Biso   1.000  C
  C51      1.0000 0.80220  0.48655  0.29490  Biso   1.000  C
  C52      1.0000 0.70170  0.50773  0.33294  Biso   1.000  C
  C53      1.0000 0.68630  0.49319  0.41502  Biso   1.000  C
  C54      1.0000 0.76970  0.46154  0.46772  Biso   1.000  C
  C55      1.0000 0.86870  0.44010  0.43120  Biso   1.000  C
  C56      1.0000 0.88470  0.45258  0.34824  Biso   1.000  C
  N1       1.0000 0.60650  0.38641  0.09138  Biso   1.000  N
  N2       1.0000 0.70550  0.37930  0.08880  Biso   1.000  N
  N3       1.0000 0.75740  0.30282  0.15616  Biso   1.000  N
  N4       1.0000 0.59110  0.31300  0.16040  Biso   1.000  N
  N5       1.0000 0.80100  0.59257  0.90866  Biso   1.000  N
  N6       1.0000 0.88990  0.60260  0.90920  Biso   1.000  N
  N7       1.0000 0.90460  0.67365  0.83850  Biso   1.000  N
  N8       1.0000 0.75300  0.66001  0.83518  Biso   1.000  N
  N9       1.0000 0.39350  0.52221  0.09138  Biso   1.000  N
  N10      1.0000 0.29450  0.53190  0.08880  Biso   1.000  N
  N11      1.0000 0.24260  0.54102  0.15616  Biso   1.000  N
  N12      1.0000 0.40890  0.52660  0.16040  Biso   1.000  N
  N13      1.0000 0.19900  0.49877  0.90866  Biso   1.000  N
  N14      1.0000 0.11010  0.48820  0.90920  Biso   1.000  N
  N15      1.0000 0.09540  0.48785  0.83850  Biso   1.000  N
  N16      1.0000 0.24700  0.50481  0.83518  Biso   1.000  N
  N17      1.0000 0.39350  0.61359  0.90862  Biso   1.000  N
  N18      1.0000 0.29450  0.62070  0.91120  Biso   1.000  N
  N19      1.0000 0.24260  0.69718  0.84384  Biso   1.000  N
  N20      1.0000 0.40890  0.68700  0.83960  Biso   1.000  N
  N21      1.0000 0.19900  0.40743  0.09134  Biso   1.000  N
  N22      1.0000 0.11010  0.39740  0.09080  Biso   1.000  N
  N23      1.0000 0.09540  0.32635  0.16150  Biso   1.000  N
  N24      1.0000 0.24700  0.33999  0.16482  Biso   1.000  N
  N25      1.0000 0.60650  0.47779  0.90862  Biso   1.000  N
  N26      1.0000 0.70550  0.46810  0.91120  Biso   1.000  N
  N27      1.0000 0.75740  0.45898  0.84384  Biso   1.000  N
  N28      1.0000 0.59110  0.47340  0.83960  Biso   1.000  N
  N29      1.0000 0.80100  0.50123  0.09134  Biso   1.000  N
  N30      1.0000 0.88990  0.51180  0.09080  Biso   1.000  N
  N31      1.0000 0.90460  0.51215  0.16150  Biso   1.000  N
  N32      1.0000 0.75300  0.49519  0.16482  Biso   1.000  N
  F1       1.0000 0.62030  0.09705  0.25230  Biso   1.000  F
  F2       1.0000 0.66090  0.94212  0.40396  Biso   1.000  F
  F3       1.0000 0.83850  0.08971  0.47858  Biso   1.000  F
  F4       1.0000 0.80120  0.24068  0.32524  Biso   1.000  F
  F5       1.0000 0.61530  0.82785  0.71390  Biso   1.000  F
  F6       1.0000 0.58490  0.96412  0.55576  Biso   1.000  F
  F7       1.0000 0.95150  0.88564  0.52192  Biso   1.000  F
  F8       1.0000 0.98250  0.75417  0.68246  Biso   1.000  F
  F9       1.0000 0.37970  0.65065  0.25230  Biso   1.000  F
  F10      1.0000 0.33910  0.65392  0.40396  Biso   1.000  F
  F11      1.0000 0.16150  0.43171  0.47858  Biso   1.000  F
  F12      1.0000 0.19880  0.43408  0.32524  Biso   1.000  F
  F13      1.0000 0.38470  0.45825  0.71390  Biso   1.000  F
  F14      1.0000 0.41510  0.48012  0.55576  Biso   1.000  F
  F15      1.0000 0.04850  0.59244  0.52192  Biso   1.000  F
  F16      1.0000 0.01750  0.56337  0.68246  Biso   1.000  F
  F17      1.0000 0.37970  0.90295  0.74770  Biso   1.000  F
  F18      1.0000 0.33910  0.05788  0.59604  Biso   1.000  F
  F19      1.0000 0.16150  0.91029  0.52142  Biso   1.000  F
  F20      1.0000 0.19880  0.75932  0.67476  Biso   1.000  F
  F21      1.0000 0.38470  0.17215  0.28610  Biso   1.000  F
  F22      1.0000 0.41510  0.03588  0.44424  Biso   1.000  F
  F23      1.0000 0.04850  0.11436  0.47808  Biso   1.000  F
  F24      1.0000 0.01750  0.24583  0.31754  Biso   1.000  F
  F25      1.0000 0.62030  0.34935  0.74770  Biso   1.000  F
  F26      1.0000 0.66090  0.34608  0.59604  Biso   1.000  F
  F27      1.0000 0.83850  0.56829  0.52142  Biso   1.000  F
  F28      1.0000 0.80120  0.56592  0.67476  Biso   1.000  F
  F29      1.0000 0.61530  0.54175  0.28610  Biso   1.000  F
  F30      1.0000 0.58490  0.51988  0.44424  Biso   1.000  F
  F31      1.0000 0.95150  0.40756  0.47808  Biso   1.000  F
  F32      1.0000 0.98250  0.43663  0.31754  Biso   1.000  F
