data_image0
_cell_length_a       10.7237
_cell_length_b       13.4481
_cell_length_c       13.4481
_cell_angle_alpha    90
_cell_angle_beta     90
_cell_angle_gamma    90

_symmetry_space_group_name_H-M    P 1
_symmetry_int_tables_number       1

loop_
  _symmetry_equiv_pos_as_xyz
  'x, y, z'

loop_
  _atom_site_label
  _atom_site_occupancy
  _atom_site_fract_x
  _atom_site_fract_y
  _atom_site_fract_z
  _atom_site_thermal_displace_type
  _atom_site_B_iso_or_equiv
  _atom_site_type_symbol
  Cu1      1.0000 0.75711  0.34711  0.72878  Biso   1.000  Cu
  Cu2      1.0000 0.75711  0.15289  0.77122  Biso   1.000  Cu
  Cu3      1.0000 0.25711  0.27122  0.84711  Biso   1.000  Cu
  Cu4      1.0000 0.25711  0.22878  0.65289  Biso   1.000  Cu
  Cu5      1.0000 0.24289  0.65289  0.27122  Biso   1.000  Cu
  Cu6      1.0000 0.24289  0.84711  0.22878  Biso   1.000  Cu
  Cu7      1.0000 0.74289  0.72878  0.15289  Biso   1.000  Cu
  Cu8      1.0000 0.74289  0.77122  0.34711  Biso   1.000  Cu
  H1       1.0000 0.53060  0.48360  0.76940  Biso   1.000  H
  H2       1.0000 0.50520  0.67430  0.54400  Biso   1.000  H
  H3       1.0000 0.67490  0.59460  0.47330  Biso   1.000  H
  H4       1.0000 0.77410  0.47000  0.55600  Biso   1.000  H
  H5       1.0000 0.38440  0.75070  0.63970  Biso   1.000  H
  H6       1.0000 0.27870  0.67210  0.61930  Biso   1.000  H
  H7       1.0000 0.53060  0.01640  0.73060  Biso   1.000  H
  H8       1.0000 0.50520  0.82570  0.95600  Biso   1.000  H
  H9       1.0000 0.67490  0.90540  0.02670  Biso   1.000  H
  H10      1.0000 0.77410  0.03000  0.94400  Biso   1.000  H
  H11      1.0000 0.38440  0.74930  0.86030  Biso   1.000  H
  H12      1.0000 0.27870  0.82790  0.88070  Biso   1.000  H
  H13      1.0000 0.03060  0.23060  0.98360  Biso   1.000  H
  H14      1.0000 0.00520  0.45600  0.17430  Biso   1.000  H
  H15      1.0000 0.17490  0.52670  0.09460  Biso   1.000  H
  H16      1.0000 0.27410  0.44400  0.97000  Biso   1.000  H
  H17      1.0000 0.88440  0.36030  0.25070  Biso   1.000  H
  H18      1.0000 0.77870  0.38070  0.17210  Biso   1.000  H
  H19      1.0000 0.03060  0.26940  0.51640  Biso   1.000  H
  H20      1.0000 0.00520  0.04400  0.32570  Biso   1.000  H
  H21      1.0000 0.17490  0.97330  0.40540  Biso   1.000  H
  H22      1.0000 0.27410  0.05600  0.53000  Biso   1.000  H
  H23      1.0000 0.88440  0.13970  0.24930  Biso   1.000  H
  H24      1.0000 0.77870  0.11930  0.32790  Biso   1.000  H
  H25      1.0000 0.46940  0.51640  0.23060  Biso   1.000  H
  H26      1.0000 0.49480  0.32570  0.45600  Biso   1.000  H
  H27      1.0000 0.32510  0.40540  0.52670  Biso   1.000  H
  H28      1.0000 0.22590  0.53000  0.44400  Biso   1.000  H
  H29      1.0000 0.61560  0.24930  0.36030  Biso   1.000  H
  H30      1.0000 0.72130  0.32790  0.38070  Biso   1.000  H
  H31      1.0000 0.46940  0.98360  0.26940  Biso   1.000  H
  H32      1.0000 0.49480  0.17430  0.04400  Biso   1.000  H
  H33      1.0000 0.32510  0.09460  0.97330  Biso   1.000  H
  H34      1.0000 0.22590  0.97000  0.05600  Biso   1.000  H
  H35      1.0000 0.61560  0.25070  0.13970  Biso   1.000  H
  H36      1.0000 0.72130  0.17210  0.11930  Biso   1.000  H
  H37      1.0000 0.96940  0.76940  0.01640  Biso   1.000  H
  H38      1.0000 0.99480  0.54400  0.82570  Biso   1.000  H
  H39      1.0000 0.82510  0.47330  0.90540  Biso   1.000  H
  H40      1.0000 0.72590  0.55600  0.03000  Biso   1.000  H
  H41      1.0000 0.11560  0.63970  0.74930  Biso   1.000  H
  H42      1.0000 0.22130  0.61930  0.82790  Biso   1.000  H
  H43      1.0000 0.96940  0.73060  0.48360  Biso   1.000  H
  H44      1.0000 0.99480  0.95600  0.67430  Biso   1.000  H
  H45      1.0000 0.82510  0.02670  0.59460  Biso   1.000  H
  H46      1.0000 0.72590  0.94400  0.47000  Biso   1.000  H
  H47      1.0000 0.11560  0.86030  0.75070  Biso   1.000  H
  H48      1.0000 0.22130  0.88070  0.67210  Biso   1.000  H
  C1       1.0000 0.54210  0.28830  0.87540  Biso   1.000  C
  C2       1.0000 0.56180  0.50810  0.70970  Biso   1.000  C
  C3       1.0000 0.50190  0.58790  0.66620  Biso   1.000  C
  C4       1.0000 0.54390  0.62150  0.57630  Biso   1.000  C
  C5       1.0000 0.64540  0.57440  0.53520  Biso   1.000  C
  C6       1.0000 0.70340  0.49860  0.58410  Biso   1.000  C
  C7       1.0000 0.33080  0.70150  0.67050  Biso   1.000  C
  C8       1.0000 0.54210  0.21170  0.62460  Biso   1.000  C
  C9       1.0000 0.56180  0.99190  0.79030  Biso   1.000  C
  C10      1.0000 0.50190  0.91210  0.83380  Biso   1.000  C
  C11      1.0000 0.54390  0.87850  0.92370  Biso   1.000  C
  C12      1.0000 0.64540  0.92560  0.96480  Biso   1.000  C
  C13      1.0000 0.70340  0.00140  0.91590  Biso   1.000  C
  C14      1.0000 0.33080  0.79850  0.82950  Biso   1.000  C
  C15      1.0000 0.04210  0.12460  0.78830  Biso   1.000  C
  C16      1.0000 0.06180  0.29030  0.00810  Biso   1.000  C
  C17      1.0000 0.00190  0.33380  0.08790  Biso   1.000  C
  C18      1.0000 0.04390  0.42370  0.12150  Biso   1.000  C
  C19      1.0000 0.14540  0.46480  0.07440  Biso   1.000  C
  C20      1.0000 0.20340  0.41590  0.99860  Biso   1.000  C
  C21      1.0000 0.83080  0.32950  0.20150  Biso   1.000  C
  C22      1.0000 0.04210  0.37540  0.71170  Biso   1.000  C
  C23      1.0000 0.06180  0.20970  0.49190  Biso   1.000  C
  C24      1.0000 0.00190  0.16620  0.41210  Biso   1.000  C
  C25      1.0000 0.04390  0.07630  0.37850  Biso   1.000  C
  C26      1.0000 0.14540  0.03520  0.42560  Biso   1.000  C
  C27      1.0000 0.20340  0.08410  0.50140  Biso   1.000  C
  C28      1.0000 0.83080  0.17050  0.29850  Biso   1.000  C
  C29      1.0000 0.45790  0.71170  0.12460  Biso   1.000  C
  C30      1.0000 0.43820  0.49190  0.29030  Biso   1.000  C
  C31      1.0000 0.49810  0.41210  0.33380  Biso   1.000  C
  C32      1.0000 0.45610  0.37850  0.42370  Biso   1.000  C
  C33      1.0000 0.35460  0.42560  0.46480  Biso   1.000  C
  C34      1.0000 0.29660  0.50140  0.41590  Biso   1.000  C
  C35      1.0000 0.66920  0.29850  0.32950  Biso   1.000  C
  C36      1.0000 0.45790  0.78830  0.37540  Biso   1.000  C
  C37      1.0000 0.43820  0.00810  0.20970  Biso   1.000  C
  C38      1.0000 0.49810  0.08790  0.16620  Biso   1.000  C
  C39      1.0000 0.45610  0.12150  0.07630  Biso   1.000  C
  C40      1.0000 0.35460  0.07440  0.03520  Biso   1.000  C
  C41      1.0000 0.29660  0.99860  0.08410  Biso   1.000  C
  C42      1.0000 0.66920  0.20150  0.17050  Biso   1.000  C
  C43      1.0000 0.95790  0.87540  0.21170  Biso   1.000  C
  C44      1.0000 0.93820  0.70970  0.99190  Biso   1.000  C
  C45      1.0000 0.99810  0.66620  0.91210  Biso   1.000  C
  C46      1.0000 0.95610  0.57630  0.87850  Biso   1.000  C
  C47      1.0000 0.85460  0.53520  0.92560  Biso   1.000  C
  C48      1.0000 0.79660  0.58410  0.00140  Biso   1.000  C
  C49      1.0000 0.16920  0.67050  0.79850  Biso   1.000  C
  C50      1.0000 0.95790  0.62460  0.28830  Biso   1.000  C
  C51      1.0000 0.93820  0.79030  0.50810  Biso   1.000  C
  C52      1.0000 0.99810  0.83380  0.58790  Biso   1.000  C
  C53      1.0000 0.95610  0.92370  0.62150  Biso   1.000  C
  C54      1.0000 0.85460  0.96480  0.57440  Biso   1.000  C
  C55      1.0000 0.79660  0.91590  0.49860  Biso   1.000  C
  C56      1.0000 0.16920  0.82950  0.70150  Biso   1.000  C
  C57      1.0000 0.25000  0.75000  0.75000  Biso   1.000  C
  C58      1.0000 0.75000  0.25000  0.25000  Biso   1.000  C
  S1       1.0000 0.69656  0.29168  0.88706  Biso   1.000  S
  S2       1.0000 0.69656  0.20832  0.61294  Biso   1.000  S
  S3       1.0000 0.19656  0.11294  0.79168  Biso   1.000  S
  S4       1.0000 0.19656  0.38706  0.70832  Biso   1.000  S
  S5       1.0000 0.30344  0.70832  0.11294  Biso   1.000  S
  S6       1.0000 0.30344  0.79168  0.38706  Biso   1.000  S
  S7       1.0000 0.80344  0.88706  0.20832  Biso   1.000  S
  S8       1.0000 0.80344  0.61294  0.29168  Biso   1.000  S
  N1       1.0000 0.43560  0.28510  0.86930  Biso   1.000  N
  N2       1.0000 0.66180  0.46450  0.67060  Biso   1.000  N
  N3       1.0000 0.43560  0.21490  0.63070  Biso   1.000  N
  N4       1.0000 0.66180  0.03550  0.82940  Biso   1.000  N
  N5       1.0000 0.93560  0.13070  0.78510  Biso   1.000  N
  N6       1.0000 0.16180  0.32940  0.96450  Biso   1.000  N
  N7       1.0000 0.93560  0.36930  0.71490  Biso   1.000  N
  N8       1.0000 0.16180  0.17060  0.53550  Biso   1.000  N
  N9       1.0000 0.56440  0.71490  0.13070  Biso   1.000  N
  N10      1.0000 0.33820  0.53550  0.32940  Biso   1.000  N
  N11      1.0000 0.56440  0.78510  0.36930  Biso   1.000  N
  N12      1.0000 0.33820  0.96450  0.17060  Biso   1.000  N
  N13      1.0000 0.06440  0.86930  0.21490  Biso   1.000  N
  N14      1.0000 0.83820  0.67060  0.03550  Biso   1.000  N
  N15      1.0000 0.06440  0.63070  0.28510  Biso   1.000  N
  N16      1.0000 0.83820  0.82940  0.46450  Biso   1.000  N
  O1       1.0000 0.40430  0.62640  0.71750  Biso   1.000  O
  O2       1.0000 0.40430  0.87360  0.78250  Biso   1.000  O
  O3       1.0000 0.90430  0.28250  0.12640  Biso   1.000  O
  O4       1.0000 0.90430  0.21750  0.37360  Biso   1.000  O
  O5       1.0000 0.59570  0.37360  0.28250  Biso   1.000  O
  O6       1.0000 0.59570  0.12640  0.21750  Biso   1.000  O
  O7       1.0000 0.09570  0.71750  0.87360  Biso   1.000  O
  O8       1.0000 0.09570  0.78250  0.62640  Biso   1.000  O
