data_image0
_cell_length_a       8.4149
_cell_length_b       9.813
_cell_length_c       21.028
_cell_angle_alpha    90
_cell_angle_beta     90
_cell_angle_gamma    90

_symmetry_space_group_name_H-M    P 1
_symmetry_int_tables_number       1

loop_
  _symmetry_equiv_pos_as_xyz
  'x, y, z'

loop_
  _atom_site_label
  _atom_site_occupancy
  _atom_site_fract_x
  _atom_site_fract_y
  _atom_site_fract_z
  _atom_site_thermal_displace_type
  _atom_site_B_iso_or_equiv
  _atom_site_type_symbol
  Cd1      1.0000 0.49599  0.10771  0.78302  Biso   1.000  Cd
  Cd2      1.0000 0.30572  0.66271  0.97726  Biso   1.000  Cd
  Cd3      1.0000 0.00401  0.89229  0.28302  Biso   1.000  Cd
  Cd4      1.0000 0.19428  0.33729  0.47726  Biso   1.000  Cd
  Cd5      1.0000 0.50401  0.60771  0.71698  Biso   1.000  Cd
  Cd6      1.0000 0.69428  0.16271  0.52274  Biso   1.000  Cd
  Cd7      1.0000 0.99599  0.39229  0.21698  Biso   1.000  Cd
  Cd8      1.0000 0.80572  0.83729  0.02274  Biso   1.000  Cd
  H1       1.0000 0.78290  0.50360  0.84610  Biso   1.000  H
  H2       1.0000 0.66370  0.41530  0.93750  Biso   1.000  H
  H3       1.0000 0.01800  0.55900  0.94300  Biso   1.000  H
  H4       1.0000 0.10900  0.46200  0.91250  Biso   1.000  H
  H5       1.0000 0.45900  0.92300  0.87920  Biso   1.000  H
  H6       1.0000 0.73900  0.02910  0.71870  Biso   1.000  H
  H7       1.0000 0.23200  0.81000  0.86400  Biso   1.000  H
  H8       1.0000 0.43600  0.40630  0.91700  Biso   1.000  H
  H9       1.0000 0.69000  0.67400  0.81010  Biso   1.000  H
  H10      1.0000 0.34000  0.70200  0.86400  Biso   1.000  H
  H11      1.0000 0.81600  0.12500  0.75500  Biso   1.000  H
  H12      1.0000 0.60840  0.97900  0.88340  Biso   1.000  H
  H13      1.0000 0.39100  0.56500  0.09030  Biso   1.000  H
  H14      1.0000 0.34300  0.45000  0.05800  Biso   1.000  H
  H15      1.0000 0.71710  0.49640  0.34610  Biso   1.000  H
  H16      1.0000 0.83630  0.58470  0.43750  Biso   1.000  H
  H17      1.0000 0.48200  0.44100  0.44300  Biso   1.000  H
  H18      1.0000 0.39100  0.53800  0.41250  Biso   1.000  H
  H19      1.0000 0.04100  0.07700  0.37920  Biso   1.000  H
  H20      1.0000 0.76100  0.97090  0.21870  Biso   1.000  H
  H21      1.0000 0.26800  0.19000  0.36400  Biso   1.000  H
  H22      1.0000 0.06400  0.59370  0.41700  Biso   1.000  H
  H23      1.0000 0.81000  0.32600  0.31010  Biso   1.000  H
  H24      1.0000 0.16000  0.29800  0.36400  Biso   1.000  H
  H25      1.0000 0.68400  0.87500  0.25500  Biso   1.000  H
  H26      1.0000 0.89160  0.02100  0.38340  Biso   1.000  H
  H27      1.0000 0.10900  0.43500  0.59030  Biso   1.000  H
  H28      1.0000 0.15700  0.55000  0.55800  Biso   1.000  H
  H29      1.0000 0.21710  0.00360  0.65390  Biso   1.000  H
  H30      1.0000 0.33630  0.91530  0.56250  Biso   1.000  H
  H31      1.0000 0.98200  0.05900  0.55700  Biso   1.000  H
  H32      1.0000 0.89100  0.96200  0.58750  Biso   1.000  H
  H33      1.0000 0.54100  0.42300  0.62080  Biso   1.000  H
  H34      1.0000 0.26100  0.52910  0.78130  Biso   1.000  H
  H35      1.0000 0.76800  0.31000  0.63600  Biso   1.000  H
  H36      1.0000 0.56400  0.90630  0.58300  Biso   1.000  H
  H37      1.0000 0.31000  0.17400  0.68990  Biso   1.000  H
  H38      1.0000 0.66000  0.20200  0.63600  Biso   1.000  H
  H39      1.0000 0.18400  0.62500  0.74500  Biso   1.000  H
  H40      1.0000 0.39160  0.47900  0.61660  Biso   1.000  H
  H41      1.0000 0.60900  0.06500  0.40970  Biso   1.000  H
  H42      1.0000 0.65700  0.95000  0.44200  Biso   1.000  H
  H43      1.0000 0.28290  0.99640  0.15390  Biso   1.000  H
  H44      1.0000 0.16370  0.08470  0.06250  Biso   1.000  H
  H45      1.0000 0.51800  0.94100  0.05700  Biso   1.000  H
  H46      1.0000 0.60900  0.03800  0.08750  Biso   1.000  H
  H47      1.0000 0.95900  0.57700  0.12080  Biso   1.000  H
  H48      1.0000 0.23900  0.47090  0.28130  Biso   1.000  H
  H49      1.0000 0.73200  0.69000  0.13600  Biso   1.000  H
  H50      1.0000 0.93600  0.09370  0.08300  Biso   1.000  H
  H51      1.0000 0.19000  0.82600  0.18990  Biso   1.000  H
  H52      1.0000 0.84000  0.79800  0.13600  Biso   1.000  H
  H53      1.0000 0.31600  0.37500  0.24500  Biso   1.000  H
  H54      1.0000 0.10840  0.52100  0.11660  Biso   1.000  H
  H55      1.0000 0.89100  0.93500  0.90970  Biso   1.000  H
  H56      1.0000 0.84300  0.05000  0.94200  Biso   1.000  H
  C1       1.0000 0.59890  0.38310  0.81294  Biso   1.000  C
  C2       1.0000 0.66670  0.50640  0.84857  Biso   1.000  C
  C3       1.0000 0.61630  0.49720  0.91872  Biso   1.000  C
  C4       1.0000 0.67390  0.62150  0.95548  Biso   1.000  C
  C5       1.0000 0.90110  0.61690  0.31294  Biso   1.000  C
  C6       1.0000 0.83330  0.49360  0.34857  Biso   1.000  C
  C7       1.0000 0.88370  0.50280  0.41872  Biso   1.000  C
  C8       1.0000 0.82610  0.37850  0.45548  Biso   1.000  C
  C9       1.0000 0.40110  0.88310  0.68706  Biso   1.000  C
  C10      1.0000 0.33330  0.00640  0.65143  Biso   1.000  C
  C11      1.0000 0.38370  0.99720  0.58128  Biso   1.000  C
  C12      1.0000 0.32610  0.12150  0.54452  Biso   1.000  C
  C13      1.0000 0.09890  0.11690  0.18706  Biso   1.000  C
  C14      1.0000 0.16670  0.99360  0.15143  Biso   1.000  C
  C15      1.0000 0.11630  0.00280  0.08128  Biso   1.000  C
  C16      1.0000 0.17390  0.87850  0.04452  Biso   1.000  C
  S1       1.0000 0.13167  0.26024  0.79282  Biso   1.000  S
  S2       1.0000 0.36833  0.73976  0.29282  Biso   1.000  S
  S3       1.0000 0.86833  0.76024  0.70718  Biso   1.000  S
  S4       1.0000 0.63167  0.23976  0.20718  Biso   1.000  S
  O1       1.0000 0.60240  0.27247  0.84228  Biso   1.000  O
  O2       1.0000 0.54570  0.39690  0.75779  Biso   1.000  O
  O3       1.0000 0.61270  0.63070  0.82191  Biso   1.000  O
  O4       1.0000 0.44850  0.48793  0.92358  Biso   1.000  O
  O5       1.0000 0.57810  0.69855  0.98307  Biso   1.000  O
  O6       1.0000 0.82130  0.64310  0.95663  Biso   1.000  O
  O7       1.0000 0.23580  0.14640  0.81239  Biso   1.000  O
  O8       1.0000 0.51090  0.99720  0.88055  Biso   1.000  O
  O9       1.0000 0.73560  0.11210  0.73140  Biso   1.000  O
  O10      1.0000 0.17390  0.38370  0.82771  Biso   1.000  O
  O11      1.0000 0.96760  0.22350  0.80740  Biso   1.000  O
  O12      1.0000 0.15320  0.28320  0.72390  Biso   1.000  O
  O13      1.0000 0.31070  0.77520  0.88219  Biso   1.000  O
  O14      1.0000 0.10940  0.52210  0.94189  Biso   1.000  O
  O15      1.0000 0.31510  0.53270  0.06744  Biso   1.000  O
  O16      1.0000 0.89760  0.72753  0.34228  Biso   1.000  O
  O17      1.0000 0.95430  0.60310  0.25779  Biso   1.000  O
  O18      1.0000 0.88730  0.36930  0.32191  Biso   1.000  O
  O19      1.0000 0.05150  0.51207  0.42358  Biso   1.000  O
  O20      1.0000 0.92190  0.30145  0.48307  Biso   1.000  O
  O21      1.0000 0.67870  0.35690  0.45663  Biso   1.000  O
  O22      1.0000 0.26420  0.85360  0.31239  Biso   1.000  O
  O23      1.0000 0.98910  0.00280  0.38055  Biso   1.000  O
  O24      1.0000 0.76440  0.88790  0.23140  Biso   1.000  O
  O25      1.0000 0.32610  0.61630  0.32771  Biso   1.000  O
  O26      1.0000 0.53240  0.77650  0.30740  Biso   1.000  O
  O27      1.0000 0.34680  0.71680  0.22390  Biso   1.000  O
  O28      1.0000 0.18930  0.22480  0.38219  Biso   1.000  O
  O29      1.0000 0.39060  0.47790  0.44189  Biso   1.000  O
  O30      1.0000 0.18490  0.46730  0.56744  Biso   1.000  O
  O31      1.0000 0.39760  0.77247  0.65772  Biso   1.000  O
  O32      1.0000 0.45430  0.89690  0.74221  Biso   1.000  O
  O33      1.0000 0.38730  0.13070  0.67809  Biso   1.000  O
  O34      1.0000 0.55150  0.98793  0.57642  Biso   1.000  O
  O35      1.0000 0.42190  0.19855  0.51693  Biso   1.000  O
  O36      1.0000 0.17870  0.14310  0.54337  Biso   1.000  O
  O37      1.0000 0.76420  0.64640  0.68761  Biso   1.000  O
  O38      1.0000 0.48910  0.49720  0.61945  Biso   1.000  O
  O39      1.0000 0.26440  0.61210  0.76860  Biso   1.000  O
  O40      1.0000 0.82610  0.88370  0.67229  Biso   1.000  O
  O41      1.0000 0.03240  0.72350  0.69260  Biso   1.000  O
  O42      1.0000 0.84680  0.78320  0.77610  Biso   1.000  O
  O43      1.0000 0.68930  0.27520  0.61781  Biso   1.000  O
  O44      1.0000 0.89060  0.02210  0.55811  Biso   1.000  O
  O45      1.0000 0.68490  0.03270  0.43256  Biso   1.000  O
  O46      1.0000 0.10240  0.22753  0.15772  Biso   1.000  O
  O47      1.0000 0.04570  0.10310  0.24221  Biso   1.000  O
  O48      1.0000 0.11270  0.86930  0.17809  Biso   1.000  O
  O49      1.0000 0.94850  0.01207  0.07642  Biso   1.000  O
  O50      1.0000 0.07810  0.80145  0.01693  Biso   1.000  O
  O51      1.0000 0.32130  0.85690  0.04337  Biso   1.000  O
  O52      1.0000 0.73580  0.35360  0.18761  Biso   1.000  O
  O53      1.0000 0.01090  0.50280  0.11945  Biso   1.000  O
  O54      1.0000 0.23560  0.38790  0.26860  Biso   1.000  O
  O55      1.0000 0.67390  0.11630  0.17229  Biso   1.000  O
  O56      1.0000 0.46760  0.27650  0.19260  Biso   1.000  O
  O57      1.0000 0.65320  0.21680  0.27610  Biso   1.000  O
  O58      1.0000 0.81070  0.72480  0.11781  Biso   1.000  O
  O59      1.0000 0.60940  0.97790  0.05811  Biso   1.000  O
  O60      1.0000 0.81510  0.96730  0.93256  Biso   1.000  O
