data_image0
_cell_length_a       8.365
_cell_length_b       9.795
_cell_length_c       20.946
_cell_angle_alpha    90
_cell_angle_beta     90
_cell_angle_gamma    90

_symmetry_space_group_name_H-M    P 1
_symmetry_int_tables_number       1

loop_
  _symmetry_equiv_pos_as_xyz
  'x, y, z'

loop_
  _atom_site_label
  _atom_site_occupancy
  _atom_site_fract_x
  _atom_site_fract_y
  _atom_site_fract_z
  _atom_site_thermal_displace_type
  _atom_site_B_iso_or_equiv
  _atom_site_type_symbol
  Cd1      1.0000 0.50768  0.60338  0.71677  Biso   1.000  Cd
  Cd2      1.0000 0.30831  0.65942  0.97866  Biso   1.000  Cd
  Cd3      1.0000 0.99232  0.39662  0.21677  Biso   1.000  Cd
  Cd4      1.0000 0.19169  0.34058  0.47866  Biso   1.000  Cd
  Cd5      1.0000 0.49232  0.10338  0.78323  Biso   1.000  Cd
  Cd6      1.0000 0.69169  0.15942  0.52134  Biso   1.000  Cd
  Cd7      1.0000 0.00768  0.89662  0.28323  Biso   1.000  Cd
  Cd8      1.0000 0.80831  0.84058  0.02134  Biso   1.000  Cd
  H1       1.0000 0.53530  0.41690  0.61510  Biso   1.000  H
  H2       1.0000 0.40140  0.49190  0.60260  Biso   1.000  H
  H3       1.0000 0.33190  0.46650  0.04530  Biso   1.000  H
  H4       1.0000 0.39900  0.57630  0.07650  Biso   1.000  H
  H5       1.0000 0.24320  0.53790  0.78770  Biso   1.000  H
  H6       1.0000 0.18920  0.64200  0.74890  Biso   1.000  H
  H7       1.0000 0.13470  0.47180  0.91090  Biso   1.000  H
  H8       1.0000 0.01930  0.54500  0.94260  Biso   1.000  H
  H9       1.0000 0.23440  0.81460  0.86920  Biso   1.000  H
  H10      1.0000 0.33870  0.71140  0.85490  Biso   1.000  H
  H11      1.0000 0.42480  0.40010  0.92410  Biso   1.000  H
  H12      1.0000 0.69430  0.67810  0.81560  Biso   1.000  H
  H13      1.0000 0.67210  0.41000  0.93970  Biso   1.000  H
  H14      1.0000 0.78880  0.49750  0.84600  Biso   1.000  H
  H15      1.0000 0.96470  0.58310  0.11510  Biso   1.000  H
  H16      1.0000 0.09860  0.50810  0.10260  Biso   1.000  H
  H17      1.0000 0.16810  0.53350  0.54530  Biso   1.000  H
  H18      1.0000 0.10100  0.42370  0.57650  Biso   1.000  H
  H19      1.0000 0.25680  0.46210  0.28770  Biso   1.000  H
  H20      1.0000 0.31080  0.35800  0.24890  Biso   1.000  H
  H21      1.0000 0.36530  0.52820  0.41090  Biso   1.000  H
  H22      1.0000 0.48070  0.45500  0.44260  Biso   1.000  H
  H23      1.0000 0.26560  0.18540  0.36920  Biso   1.000  H
  H24      1.0000 0.16130  0.28860  0.35490  Biso   1.000  H
  H25      1.0000 0.07520  0.59990  0.42410  Biso   1.000  H
  H26      1.0000 0.80570  0.32190  0.31560  Biso   1.000  H
  H27      1.0000 0.82790  0.59000  0.43970  Biso   1.000  H
  H28      1.0000 0.71120  0.50250  0.34600  Biso   1.000  H
  H29      1.0000 0.46470  0.91690  0.88490  Biso   1.000  H
  H30      1.0000 0.59860  0.99190  0.89740  Biso   1.000  H
  H31      1.0000 0.66810  0.96650  0.45470  Biso   1.000  H
  H32      1.0000 0.60100  0.07630  0.42350  Biso   1.000  H
  H33      1.0000 0.75680  0.03790  0.71230  Biso   1.000  H
  H34      1.0000 0.81080  0.14200  0.75110  Biso   1.000  H
  H35      1.0000 0.86530  0.97180  0.58910  Biso   1.000  H
  H36      1.0000 0.98070  0.04500  0.55740  Biso   1.000  H
  H37      1.0000 0.76560  0.31460  0.63080  Biso   1.000  H
  H38      1.0000 0.66130  0.21140  0.64510  Biso   1.000  H
  H39      1.0000 0.57520  0.90010  0.57590  Biso   1.000  H
  H40      1.0000 0.30570  0.17810  0.68440  Biso   1.000  H
  H41      1.0000 0.32790  0.91000  0.56030  Biso   1.000  H
  H42      1.0000 0.21120  0.99750  0.65400  Biso   1.000  H
  H43      1.0000 0.03530  0.08310  0.38490  Biso   1.000  H
  H44      1.0000 0.90140  0.00810  0.39740  Biso   1.000  H
  H45      1.0000 0.83190  0.03350  0.95470  Biso   1.000  H
  H46      1.0000 0.89900  0.92370  0.92350  Biso   1.000  H
  H47      1.0000 0.74320  0.96210  0.21230  Biso   1.000  H
  H48      1.0000 0.68920  0.85800  0.25110  Biso   1.000  H
  H49      1.0000 0.63470  0.02820  0.08910  Biso   1.000  H
  H50      1.0000 0.51930  0.95500  0.05740  Biso   1.000  H
  H51      1.0000 0.73440  0.68540  0.13080  Biso   1.000  H
  H52      1.0000 0.83870  0.78860  0.14510  Biso   1.000  H
  H53      1.0000 0.92480  0.09990  0.07590  Biso   1.000  H
  H54      1.0000 0.19430  0.82190  0.18440  Biso   1.000  H
  H55      1.0000 0.17210  0.09000  0.06030  Biso   1.000  H
  H56      1.0000 0.28880  0.00250  0.15400  Biso   1.000  H
  C1       1.0000 0.67840  0.62030  0.95551  Biso   1.000  C
  C2       1.0000 0.62140  0.49240  0.92017  Biso   1.000  C
  C3       1.0000 0.66970  0.50150  0.84919  Biso   1.000  C
  C4       1.0000 0.59890  0.37900  0.81404  Biso   1.000  C
  C5       1.0000 0.82160  0.37970  0.45551  Biso   1.000  C
  C6       1.0000 0.87860  0.50760  0.42017  Biso   1.000  C
  C7       1.0000 0.83030  0.49850  0.34919  Biso   1.000  C
  C8       1.0000 0.90110  0.62100  0.31404  Biso   1.000  C
  C9       1.0000 0.32160  0.12030  0.54449  Biso   1.000  C
  C10      1.0000 0.37860  0.99240  0.57983  Biso   1.000  C
  C11      1.0000 0.33030  0.00150  0.65081  Biso   1.000  C
  C12      1.0000 0.40110  0.87900  0.68596  Biso   1.000  C
  C13      1.0000 0.17840  0.87970  0.04449  Biso   1.000  C
  C14      1.0000 0.12140  0.00760  0.07983  Biso   1.000  C
  C15      1.0000 0.16970  0.99850  0.15081  Biso   1.000  C
  C16      1.0000 0.09890  0.12100  0.18596  Biso   1.000  C
  S1       1.0000 0.87117  0.76009  0.70725  Biso   1.000  S
  S2       1.0000 0.62883  0.23991  0.20725  Biso   1.000  S
  S3       1.0000 0.12883  0.26009  0.79275  Biso   1.000  S
  S4       1.0000 0.37117  0.73991  0.29275  Biso   1.000  S
  O1       1.0000 0.77050  0.64150  0.68794  Biso   1.000  O
  O2       1.0000 0.82010  0.88240  0.67178  Biso   1.000  O
  O3       1.0000 0.84980  0.78270  0.77663  Biso   1.000  O
  O4       1.0000 0.03950  0.72980  0.69253  Biso   1.000  O
  O5       1.0000 0.49360  0.49460  0.61838  Biso   1.000  O
  O6       1.0000 0.31500  0.53070  0.07107  Biso   1.000  O
  O7       1.0000 0.26770  0.61110  0.76923  Biso   1.000  O
  O8       1.0000 0.11310  0.51470  0.94456  Biso   1.000  O
  O9       1.0000 0.31280  0.76940  0.88259  Biso   1.000  O
  O10      1.0000 0.58140  0.69760  0.98354  Biso   1.000  O
  O11      1.0000 0.82790  0.64360  0.95545  Biso   1.000  O
  O12      1.0000 0.45230  0.48240  0.92609  Biso   1.000  O
  O13      1.0000 0.61570  0.62670  0.82219  Biso   1.000  O
  O14      1.0000 0.59970  0.26670  0.84402  Biso   1.000  O
  O15      1.0000 0.54490  0.39080  0.75792  Biso   1.000  O
  O16      1.0000 0.72950  0.35850  0.18794  Biso   1.000  O
  O17      1.0000 0.67990  0.11760  0.17178  Biso   1.000  O
  O18      1.0000 0.65020  0.21730  0.27663  Biso   1.000  O
  O19      1.0000 0.46050  0.27020  0.19253  Biso   1.000  O
  O20      1.0000 0.00640  0.50540  0.11838  Biso   1.000  O
  O21      1.0000 0.18500  0.46930  0.57107  Biso   1.000  O
  O22      1.0000 0.23230  0.38890  0.26923  Biso   1.000  O
  O23      1.0000 0.38690  0.48530  0.44456  Biso   1.000  O
  O24      1.0000 0.18720  0.23060  0.38259  Biso   1.000  O
  O25      1.0000 0.91860  0.30240  0.48354  Biso   1.000  O
  O26      1.0000 0.67210  0.35640  0.45545  Biso   1.000  O
  O27      1.0000 0.04770  0.51760  0.42609  Biso   1.000  O
  O28      1.0000 0.88430  0.37330  0.32219  Biso   1.000  O
  O29      1.0000 0.90030  0.73330  0.34402  Biso   1.000  O
  O30      1.0000 0.95510  0.60920  0.25792  Biso   1.000  O
  O31      1.0000 0.22950  0.14150  0.81206  Biso   1.000  O
  O32      1.0000 0.17990  0.38240  0.82822  Biso   1.000  O
  O33      1.0000 0.15020  0.28270  0.72337  Biso   1.000  O
  O34      1.0000 0.96050  0.22980  0.80747  Biso   1.000  O
  O35      1.0000 0.50640  0.99460  0.88162  Biso   1.000  O
  O36      1.0000 0.68500  0.03070  0.42893  Biso   1.000  O
  O37      1.0000 0.73230  0.11110  0.73077  Biso   1.000  O
  O38      1.0000 0.88690  0.01470  0.55544  Biso   1.000  O
  O39      1.0000 0.68720  0.26940  0.61741  Biso   1.000  O
  O40      1.0000 0.41860  0.19760  0.51646  Biso   1.000  O
  O41      1.0000 0.17210  0.14360  0.54455  Biso   1.000  O
  O42      1.0000 0.54770  0.98240  0.57391  Biso   1.000  O
  O43      1.0000 0.38430  0.12670  0.67781  Biso   1.000  O
  O44      1.0000 0.40030  0.76670  0.65598  Biso   1.000  O
  O45      1.0000 0.45510  0.89080  0.74208  Biso   1.000  O
  O46      1.0000 0.27050  0.85850  0.31206  Biso   1.000  O
  O47      1.0000 0.32010  0.61760  0.32822  Biso   1.000  O
  O48      1.0000 0.34980  0.71730  0.22337  Biso   1.000  O
  O49      1.0000 0.53950  0.77020  0.30747  Biso   1.000  O
  O50      1.0000 0.99360  0.00540  0.38162  Biso   1.000  O
  O51      1.0000 0.81500  0.96930  0.92893  Biso   1.000  O
  O52      1.0000 0.76770  0.88890  0.23077  Biso   1.000  O
  O53      1.0000 0.61310  0.98530  0.05544  Biso   1.000  O
  O54      1.0000 0.81280  0.73060  0.11741  Biso   1.000  O
  O55      1.0000 0.08140  0.80240  0.01646  Biso   1.000  O
  O56      1.0000 0.32790  0.85640  0.04455  Biso   1.000  O
  O57      1.0000 0.95230  0.01760  0.07391  Biso   1.000  O
  O58      1.0000 0.11570  0.87330  0.17781  Biso   1.000  O
  O59      1.0000 0.09970  0.23330  0.15598  Biso   1.000  O
  O60      1.0000 0.04490  0.10920  0.24208  Biso   1.000  O
