data_image0
_cell_length_a       9.2761
_cell_length_b       11.5506
_cell_length_c       17.2671
_cell_angle_alpha    104.827
_cell_angle_beta     90
_cell_angle_gamma    113.675

_symmetry_space_group_name_H-M    P 1
_symmetry_int_tables_number       1

loop_
  _symmetry_equiv_pos_as_xyz
  'x, y, z'

loop_
  _atom_site_label
  _atom_site_occupancy
  _atom_site_fract_x
  _atom_site_fract_y
  _atom_site_fract_z
  _atom_site_thermal_displace_type
  _atom_site_B_iso_or_equiv
  _atom_site_type_symbol
  Nd1      1.0000 0.67054  0.97294  0.92694  Biso   1.000  Nd
  Nd2      1.0000 0.69760  0.02706  0.57306  Biso   1.000  Nd
  Nd3      1.0000 0.32946  0.02706  0.07306  Biso   1.000  Nd
  Nd4      1.0000 0.30240  0.97294  0.42694  Biso   1.000  Nd
  Cu1      1.0000 0.09411  0.32844  0.13452  Biso   1.000  Cu
  Cu2      1.0000 0.76567  0.67156  0.36548  Biso   1.000  Cu
  Cu3      1.0000 0.90589  0.67156  0.86548  Biso   1.000  Cu
  Cu4      1.0000 0.23433  0.32844  0.63452  Biso   1.000  Cu
  H1       1.0000 0.56210  0.19680  0.77930  Biso   1.000  H
  H2       1.0000 0.50320  0.29740  0.69260  Biso   1.000  H
  H3       1.0000 0.08890  0.22720  0.76560  Biso   1.000  H
  H4       1.0000 0.13910  0.13160  0.85740  Biso   1.000  H
  H5       1.0000 0.18250  0.71860  0.05460  Biso   1.000  H
  H6       1.0000 0.08140  0.56300  0.12310  Biso   1.000  H
  H7       1.0000 0.27950  0.35220  0.99630  Biso   1.000  H
  H8       1.0000 0.38990  0.50460  0.92560  Biso   1.000  H
  H9       1.0000 0.36530  0.80320  0.72070  Biso   1.000  H
  H10      1.0000 0.20580  0.70260  0.80740  Biso   1.000  H
  H11      1.0000 0.86170  0.77280  0.73440  Biso   1.000  H
  H12      1.0000 0.00750  0.86840  0.64260  Biso   1.000  H
  H13      1.0000 0.46390  0.28140  0.44540  Biso   1.000  H
  H14      1.0000 0.51840  0.43700  0.37690  Biso   1.000  H
  H15      1.0000 0.92730  0.64780  0.50370  Biso   1.000  H
  H16      1.0000 0.88530  0.49540  0.57440  Biso   1.000  H
  H17      1.0000 0.43790  0.80320  0.22070  Biso   1.000  H
  H18      1.0000 0.49680  0.70260  0.30740  Biso   1.000  H
  H19      1.0000 0.91110  0.77280  0.23440  Biso   1.000  H
  H20      1.0000 0.86090  0.86840  0.14260  Biso   1.000  H
  H21      1.0000 0.81750  0.28140  0.94540  Biso   1.000  H
  H22      1.0000 0.91860  0.43700  0.87690  Biso   1.000  H
  H23      1.0000 0.72050  0.64780  0.00370  Biso   1.000  H
  H24      1.0000 0.61010  0.49540  0.07440  Biso   1.000  H
  H25      1.0000 0.63470  0.19680  0.27930  Biso   1.000  H
  H26      1.0000 0.79420  0.29740  0.19260  Biso   1.000  H
  H27      1.0000 0.13830  0.22720  0.26560  Biso   1.000  H
  H28      1.0000 0.99250  0.13160  0.35740  Biso   1.000  H
  H29      1.0000 0.53610  0.71860  0.55460  Biso   1.000  H
  H30      1.0000 0.48160  0.56300  0.62310  Biso   1.000  H
  H31      1.0000 0.07270  0.35220  0.49630  Biso   1.000  H
  H32      1.0000 0.11470  0.50460  0.42560  Biso   1.000  H
  C1       1.0000 0.38944  0.08068  0.88290  Biso   1.000  C
  C2       1.0000 0.35464  0.14988  0.82688  Biso   1.000  C
  C3       1.0000 0.46450  0.20160  0.77740  Biso   1.000  C
  C4       1.0000 0.42760  0.26080  0.72500  Biso   1.000  C
  C5       1.0000 0.18530  0.22060  0.76820  Biso   1.000  C
  C6       1.0000 0.21400  0.16220  0.82320  Biso   1.000  C
  C7       1.0000 0.39389  0.74438  0.94961  Biso   1.000  C
  C8       1.0000 0.30578  0.63336  0.98580  Biso   1.000  C
  C9       1.0000 0.20780  0.64620  0.04300  Biso   1.000  C
  C10      1.0000 0.14660  0.55180  0.08360  Biso   1.000  C
  C11      1.0000 0.26280  0.42880  0.00970  Biso   1.000  C
  C12      1.0000 0.32960  0.52000  0.96680  Biso   1.000  C
  C13      1.0000 0.98031  0.92802  0.97648  Biso   1.000  C
  C14      1.0000 0.70660  0.92520  0.73212  Biso   1.000  C
  C15      1.0000 0.30876  0.91932  0.61710  Biso   1.000  C
  C16      1.0000 0.20476  0.85012  0.67312  Biso   1.000  C
  C17      1.0000 0.26290  0.79840  0.72260  Biso   1.000  C
  C18      1.0000 0.16680  0.73920  0.77500  Biso   1.000  C
  C19      1.0000 0.96470  0.77940  0.73180  Biso   1.000  C
  C20      1.0000 0.05180  0.83780  0.67680  Biso   1.000  C
  C21      1.0000 0.64951  0.25562  0.55039  Biso   1.000  C
  C22      1.0000 0.67242  0.36664  0.51420  Biso   1.000  C
  C23      1.0000 0.56160  0.35380  0.45700  Biso   1.000  C
  C24      1.0000 0.59480  0.44820  0.41640  Biso   1.000  C
  C25      1.0000 0.83400  0.57120  0.49030  Biso   1.000  C
  C26      1.0000 0.80960  0.48000  0.53320  Biso   1.000  C
  C27      1.0000 0.05229  0.07198  0.52352  Biso   1.000  C
  C28      1.0000 0.78140  0.07480  0.76788  Biso   1.000  C
  C29      1.0000 0.61056  0.91932  0.11710  Biso   1.000  C
  C30      1.0000 0.64536  0.85012  0.17312  Biso   1.000  C
  C31      1.0000 0.53550  0.79840  0.22260  Biso   1.000  C
  C32      1.0000 0.57240  0.73920  0.27500  Biso   1.000  C
  C33      1.0000 0.81470  0.77940  0.23180  Biso   1.000  C
  C34      1.0000 0.78600  0.83780  0.17680  Biso   1.000  C
  C35      1.0000 0.60611  0.25562  0.05039  Biso   1.000  C
  C36      1.0000 0.69422  0.36664  0.01420  Biso   1.000  C
  C37      1.0000 0.79220  0.35380  0.95700  Biso   1.000  C
  C38      1.0000 0.85340  0.44820  0.91640  Biso   1.000  C
  C39      1.0000 0.73720  0.57120  0.99030  Biso   1.000  C
  C40      1.0000 0.67040  0.48000  0.03320  Biso   1.000  C
  C41      1.0000 0.01969  0.07198  0.02352  Biso   1.000  C
  C42      1.0000 0.29340  0.07480  0.26788  Biso   1.000  C
  C43      1.0000 0.69124  0.08068  0.38290  Biso   1.000  C
  C44      1.0000 0.79524  0.14988  0.32688  Biso   1.000  C
  C45      1.0000 0.73710  0.20160  0.27740  Biso   1.000  C
  C46      1.0000 0.83320  0.26080  0.22500  Biso   1.000  C
  C47      1.0000 0.03530  0.22060  0.26820  Biso   1.000  C
  C48      1.0000 0.94820  0.16220  0.32320  Biso   1.000  C
  C49      1.0000 0.35049  0.74438  0.44961  Biso   1.000  C
  C50      1.0000 0.32758  0.63336  0.48580  Biso   1.000  C
  C51      1.0000 0.43840  0.64620  0.54300  Biso   1.000  C
  C52      1.0000 0.40520  0.55180  0.58360  Biso   1.000  C
  C53      1.0000 0.16600  0.42880  0.50970  Biso   1.000  C
  C54      1.0000 0.19040  0.52000  0.46680  Biso   1.000  C
  C55      1.0000 0.94771  0.92802  0.47648  Biso   1.000  C
  C56      1.0000 0.21860  0.92520  0.23212  Biso   1.000  C
  N1       1.0000 0.28848  0.26776  0.71880  Biso   1.000  N
  N2       1.0000 0.17650  0.44520  0.06880  Biso   1.000  N
  N3       1.0000 0.02072  0.73224  0.78120  Biso   1.000  N
  N4       1.0000 0.73130  0.55480  0.43120  Biso   1.000  N
  N5       1.0000 0.71152  0.73224  0.28120  Biso   1.000  N
  N6       1.0000 0.82350  0.55480  0.93120  Biso   1.000  N
  N7       1.0000 0.97928  0.26776  0.21880  Biso   1.000  N
  N8       1.0000 0.26870  0.44520  0.56880  Biso   1.000  N
  O1       1.0000 0.49051  0.03542  0.86444  Biso   1.000  O
  O2       1.0000 0.31593  0.07726  0.94360  Biso   1.000  O
  O3       1.0000 0.48982  0.73204  0.90114  Biso   1.000  O
  O4       1.0000 0.37545  0.85010  0.97312  Biso   1.000  O
  O5       1.0000 0.86335  0.87090  0.92316  Biso   1.000  O
  O6       1.0000 0.06628  0.87736  0.99582  Biso   1.000  O
  O7       1.0000 0.65502  0.85744  0.78060  Biso   1.000  O
  O8       1.0000 0.70662  0.88324  0.65770  Biso   1.000  O
  O9       1.0000 0.45509  0.96458  0.63556  Biso   1.000  O
  O10      1.0000 0.23867  0.92274  0.55640  Biso   1.000  O
  O11      1.0000 0.75778  0.26796  0.59886  Biso   1.000  O
  O12      1.0000 0.52535  0.14990  0.52688  Biso   1.000  O
  O13      1.0000 0.99245  0.12910  0.57684  Biso   1.000  O
  O14      1.0000 0.18892  0.12264  0.50418  Biso   1.000  O
  O15      1.0000 0.79758  0.14256  0.71940  Biso   1.000  O
  O16      1.0000 0.82338  0.11676  0.84230  Biso   1.000  O
  O17      1.0000 0.50949  0.96458  0.13556  Biso   1.000  O
  O18      1.0000 0.68407  0.92274  0.05640  Biso   1.000  O
  O19      1.0000 0.51018  0.26796  0.09886  Biso   1.000  O
  O20      1.0000 0.62455  0.14990  0.02688  Biso   1.000  O
  O21      1.0000 0.13665  0.12910  0.07684  Biso   1.000  O
  O22      1.0000 0.93372  0.12264  0.00418  Biso   1.000  O
  O23      1.0000 0.34498  0.14256  0.21940  Biso   1.000  O
  O24      1.0000 0.29338  0.11676  0.34230  Biso   1.000  O
  O25      1.0000 0.54491  0.03542  0.36444  Biso   1.000  O
  O26      1.0000 0.76133  0.07726  0.44360  Biso   1.000  O
  O27      1.0000 0.24222  0.73204  0.40114  Biso   1.000  O
  O28      1.0000 0.47465  0.85010  0.47312  Biso   1.000  O
  O29      1.0000 0.00755  0.87090  0.42316  Biso   1.000  O
  O30      1.0000 0.81108  0.87736  0.49582  Biso   1.000  O
  O31      1.0000 0.20242  0.85744  0.28060  Biso   1.000  O
  O32      1.0000 0.17662  0.88324  0.15770  Biso   1.000  O
