data_CIPRID_charged
_audit_creation_date              2014-07-02
_audit_creation_method            'Materials Studio'
_symmetry_space_group_name_H-M    'P1'
_symmetry_Int_Tables_number       1
_symmetry_cell_setting            triclinic
loop_
_symmetry_equiv_pos_as_xyz
  x,y,z
_cell_length_a                    14.2370
_cell_length_b                    15.7390
_cell_length_c                    16.6110
_cell_angle_alpha                 90.0000
_cell_angle_beta                  90.0000
_cell_angle_gamma                 90.0000
loop_
_atom_site_label
_atom_site_type_symbol
_atom_site_fract_x
_atom_site_fract_y
_atom_site_fract_z
_atom_site_U_iso_or_equiv
_atom_site_adp_type
_atom_site_occupancy
La1    La    0.10856   0.75000   0.75000   0.01267  Uiso   1.00
La2    La    0.39144   0.25000   0.25000   0.01267  Uiso   1.00
La3    La    0.89144   0.25000   0.25000   0.01267  Uiso   1.00
La4    La    0.60856   0.75000   0.75000   0.01267  Uiso   1.00
Ni1    Ni    0.28742   0.55995   0.88401   0.01267  Uiso   1.00
Ni2    Ni    0.28742   0.94005   0.61599   0.01267  Uiso   1.00
Ni3    Ni    0.21258   0.44005   0.38401   0.01267  Uiso   1.00
Ni4    Ni    0.21258   0.05995   0.11599   0.01267  Uiso   1.00
Ni5    Ni    0.71258   0.44005   0.11599   0.01267  Uiso   1.00
Ni6    Ni    0.71258   0.05995   0.38401   0.01267  Uiso   1.00
Ni7    Ni    0.78742   0.55995   0.61599   0.01267  Uiso   1.00
Ni8    Ni    0.78742   0.94005   0.88401   0.01267  Uiso   1.00
H1     H     0.09620   0.73470   0.57040   0.01267  Uiso   1.00
H2     H     0.00750   0.77280   0.59280   0.01267  Uiso   1.00
H3     H     0.29840   0.75780   0.66540   0.01267  Uiso   1.00
H4     H     0.24620   0.69210   0.62330   0.01267  Uiso   1.00
H5     H     0.22430   0.46020   0.68820   0.01267  Uiso   1.00
H6     H     0.18090   0.43590   0.77220   0.01267  Uiso   1.00
H7     H     0.42850   0.49880   0.71620   0.01267  Uiso   1.00
H8     H     0.34350   0.54760   0.67830   0.01267  Uiso   1.00
H9     H     0.30320   0.37190   0.83330   0.01267  Uiso   1.00
H10    H     0.37930   0.37700   0.76490   0.01267  Uiso   1.00
H11    H     0.47780   0.45850   0.84740   0.01267  Uiso   1.00
H12    H     0.45230   0.37470   0.89360   0.01267  Uiso   1.00
H13    H     0.35730   0.36690   0.99330   0.01267  Uiso   1.00
H14    H     0.35110   0.44410   0.05240   0.01267  Uiso   1.00
H15    H     0.49040   0.56550   0.94290   0.01267  Uiso   1.00
H16    H     0.43290   0.56100   0.02310   0.01267  Uiso   1.00
H17    H     0.09620   0.76530   0.92960   0.01267  Uiso   1.00
H18    H     0.00750   0.72720   0.90720   0.01267  Uiso   1.00
H19    H     0.29840   0.74220   0.83460   0.01267  Uiso   1.00
H20    H     0.24620   0.80790   0.87670   0.01267  Uiso   1.00
H21    H     0.22430   0.03980   0.81180   0.01267  Uiso   1.00
H22    H     0.18090   0.06410   0.72780   0.01267  Uiso   1.00
H23    H     0.42850   0.00120   0.78380   0.01267  Uiso   1.00
H24    H     0.34350   0.95240   0.82170   0.01267  Uiso   1.00
H25    H     0.30320   0.12810   0.66670   0.01267  Uiso   1.00
H26    H     0.37930   0.12300   0.73510   0.01267  Uiso   1.00
H27    H     0.47780   0.04150   0.65260   0.01267  Uiso   1.00
H28    H     0.45230   0.12530   0.60640   0.01267  Uiso   1.00
H29    H     0.35730   0.13310   0.50670   0.01267  Uiso   1.00
H30    H     0.35110   0.05590   0.44760   0.01267  Uiso   1.00
H31    H     0.49040   0.93450   0.55710   0.01267  Uiso   1.00
H32    H     0.43290   0.93900   0.47690   0.01267  Uiso   1.00
H33    H     0.40380   0.26530   0.07040   0.01267  Uiso   1.00
H34    H     0.49250   0.22720   0.09280   0.01267  Uiso   1.00
H35    H     0.20160   0.24220   0.16540   0.01267  Uiso   1.00
H36    H     0.25380   0.30790   0.12330   0.01267  Uiso   1.00
H37    H     0.27570   0.53980   0.18820   0.01267  Uiso   1.00
H38    H     0.31910   0.56410   0.27220   0.01267  Uiso   1.00
H39    H     0.07150   0.50120   0.21620   0.01267  Uiso   1.00
H40    H     0.15650   0.45240   0.17830   0.01267  Uiso   1.00
H41    H     0.19680   0.62810   0.33330   0.01267  Uiso   1.00
H42    H     0.12070   0.62300   0.26490   0.01267  Uiso   1.00
H43    H     0.02220   0.54150   0.34740   0.01267  Uiso   1.00
H44    H     0.04770   0.62530   0.39360   0.01267  Uiso   1.00
H45    H     0.14270   0.63310   0.49330   0.01267  Uiso   1.00
H46    H     0.14890   0.55590   0.55240   0.01267  Uiso   1.00
H47    H     0.00960   0.43450   0.44290   0.01267  Uiso   1.00
H48    H     0.06710   0.43900   0.52310   0.01267  Uiso   1.00
H49    H     0.40380   0.23470   0.42960   0.01267  Uiso   1.00
H50    H     0.49250   0.27280   0.40720   0.01267  Uiso   1.00
H51    H     0.20160   0.25780   0.33460   0.01267  Uiso   1.00
H52    H     0.25380   0.19210   0.37670   0.01267  Uiso   1.00
H53    H     0.27570   0.96020   0.31180   0.01267  Uiso   1.00
H54    H     0.31910   0.93590   0.22780   0.01267  Uiso   1.00
H55    H     0.07150   0.99880   0.28380   0.01267  Uiso   1.00
H56    H     0.15650   0.04760   0.32170   0.01267  Uiso   1.00
H57    H     0.19680   0.87190   0.16670   0.01267  Uiso   1.00
H58    H     0.12070   0.87700   0.23510   0.01267  Uiso   1.00
H59    H     0.02220   0.95850   0.15260   0.01267  Uiso   1.00
H60    H     0.04770   0.87470   0.10640   0.01267  Uiso   1.00
H61    H     0.14270   0.86690   0.00670   0.01267  Uiso   1.00
H62    H     0.14890   0.94410   0.94760   0.01267  Uiso   1.00
H63    H     0.00960   0.06550   0.05710   0.01267  Uiso   1.00
H64    H     0.06710   0.06100   0.97690   0.01267  Uiso   1.00
H65    H     0.90380   0.26530   0.42960   0.01267  Uiso   1.00
H66    H     0.99250   0.22720   0.40720   0.01267  Uiso   1.00
H67    H     0.70160   0.24220   0.33460   0.01267  Uiso   1.00
H68    H     0.75380   0.30790   0.37670   0.01267  Uiso   1.00
H69    H     0.77570   0.53980   0.31180   0.01267  Uiso   1.00
H70    H     0.81910   0.56410   0.22780   0.01267  Uiso   1.00
H71    H     0.57150   0.50120   0.28380   0.01267  Uiso   1.00
H72    H     0.65650   0.45240   0.32170   0.01267  Uiso   1.00
H73    H     0.69680   0.62810   0.16670   0.01267  Uiso   1.00
H74    H     0.62070   0.62300   0.23510   0.01267  Uiso   1.00
H75    H     0.52220   0.54150   0.15260   0.01267  Uiso   1.00
H76    H     0.54770   0.62530   0.10640   0.01267  Uiso   1.00
H77    H     0.64270   0.63310   0.00670   0.01267  Uiso   1.00
H78    H     0.64890   0.55590   0.94760   0.01267  Uiso   1.00
H79    H     0.50960   0.43450   0.05710   0.01267  Uiso   1.00
H80    H     0.56710   0.43900   0.97690   0.01267  Uiso   1.00
H81    H     0.90380   0.23470   0.07040   0.01267  Uiso   1.00
H82    H     0.99250   0.27280   0.09280   0.01267  Uiso   1.00
H83    H     0.70160   0.25780   0.16540   0.01267  Uiso   1.00
H84    H     0.75380   0.19210   0.12330   0.01267  Uiso   1.00
H85    H     0.77570   0.96020   0.18820   0.01267  Uiso   1.00
H86    H     0.81910   0.93590   0.27220   0.01267  Uiso   1.00
H87    H     0.57150   0.99880   0.21620   0.01267  Uiso   1.00
H88    H     0.65650   0.04760   0.17830   0.01267  Uiso   1.00
H89    H     0.69680   0.87190   0.33330   0.01267  Uiso   1.00
H90    H     0.62070   0.87700   0.26490   0.01267  Uiso   1.00
H91    H     0.52220   0.95850   0.34740   0.01267  Uiso   1.00
H92    H     0.54770   0.87470   0.39360   0.01267  Uiso   1.00
H93    H     0.64270   0.86690   0.49330   0.01267  Uiso   1.00
H94    H     0.64890   0.94410   0.55240   0.01267  Uiso   1.00
H95    H     0.50960   0.06550   0.44290   0.01267  Uiso   1.00
H96    H     0.56710   0.06100   0.52310   0.01267  Uiso   1.00
H97    H     0.59620   0.73470   0.92960   0.01267  Uiso   1.00
H98    H     0.50750   0.77280   0.90720   0.01267  Uiso   1.00
H99    H     0.79840   0.75780   0.83460   0.01267  Uiso   1.00
H100   H     0.74620   0.69210   0.87670   0.01267  Uiso   1.00
H101   H     0.72430   0.46020   0.81180   0.01267  Uiso   1.00
H102   H     0.68090   0.43590   0.72780   0.01267  Uiso   1.00
H103   H     0.92850   0.49880   0.78380   0.01267  Uiso   1.00
H104   H     0.84350   0.54760   0.82170   0.01267  Uiso   1.00
H105   H     0.80320   0.37190   0.66670   0.01267  Uiso   1.00
H106   H     0.87930   0.37700   0.73510   0.01267  Uiso   1.00
H107   H     0.97780   0.45850   0.65260   0.01267  Uiso   1.00
H108   H     0.95230   0.37470   0.60640   0.01267  Uiso   1.00
H109   H     0.85730   0.36690   0.50670   0.01267  Uiso   1.00
H110   H     0.85110   0.44410   0.44760   0.01267  Uiso   1.00
H111   H     0.99040   0.56550   0.55710   0.01267  Uiso   1.00
H112   H     0.93290   0.56100   0.47690   0.01267  Uiso   1.00
H113   H     0.59620   0.76530   0.57040   0.01267  Uiso   1.00
H114   H     0.50750   0.72720   0.59280   0.01267  Uiso   1.00
H115   H     0.79840   0.74220   0.66540   0.01267  Uiso   1.00
H116   H     0.74620   0.80790   0.62330   0.01267  Uiso   1.00
H117   H     0.72430   0.03980   0.68820   0.01267  Uiso   1.00
H118   H     0.68090   0.06410   0.77220   0.01267  Uiso   1.00
H119   H     0.92850   0.00120   0.71620   0.01267  Uiso   1.00
H120   H     0.84350   0.95240   0.67830   0.01267  Uiso   1.00
H121   H     0.80320   0.12810   0.83330   0.01267  Uiso   1.00
H122   H     0.87930   0.12300   0.76490   0.01267  Uiso   1.00
H123   H     0.97780   0.04150   0.84740   0.01267  Uiso   1.00
H124   H     0.95230   0.12530   0.89360   0.01267  Uiso   1.00
H125   H     0.85730   0.13310   0.99330   0.01267  Uiso   1.00
H126   H     0.85110   0.05590   0.05240   0.01267  Uiso   1.00
H127   H     0.99040   0.93450   0.94290   0.01267  Uiso   1.00
H128   H     0.93290   0.93900   0.02310   0.01267  Uiso   1.00
C1     C     0.16800   0.56330   0.74710   0.01267  Uiso   1.00
C2     C     0.21740   0.47840   0.74370   0.01267  Uiso   1.00
C3     C     0.37530   0.53510   0.72860   0.01267  Uiso   1.00
C4     C     0.41170   0.61720   0.76360   0.01267  Uiso   1.00
C5     C     0.35150   0.40750   0.80970   0.01267  Uiso   1.00
C6     C     0.42690   0.42740   0.87270   0.01267  Uiso   1.00
C7     C     0.33600   0.42520   0.99840   0.01267  Uiso   1.00
C8     C     0.22980   0.42740   0.98750   0.01267  Uiso   1.00
C9     C     0.46180   0.52690   0.98120   0.01267  Uiso   1.00
C10    C     0.23310   0.65870   0.02900   0.01267  Uiso   1.00
C11    C     0.16800   0.93670   0.75290   0.01267  Uiso   1.00
C12    C     0.21740   0.02160   0.75630   0.01267  Uiso   1.00
C13    C     0.37530   0.96490   0.77140   0.01267  Uiso   1.00
C14    C     0.41170   0.88280   0.73640   0.01267  Uiso   1.00
C15    C     0.35150   0.09250   0.69030   0.01267  Uiso   1.00
C16    C     0.42690   0.07260   0.62730   0.01267  Uiso   1.00
C17    C     0.33600   0.07480   0.50160   0.01267  Uiso   1.00
C18    C     0.22980   0.07260   0.51250   0.01267  Uiso   1.00
C19    C     0.46180   0.97310   0.51880   0.01267  Uiso   1.00
C20    C     0.23310   0.84130   0.47100   0.01267  Uiso   1.00
C21    C     0.33200   0.43670   0.24710   0.01267  Uiso   1.00
C22    C     0.28260   0.52160   0.24370   0.01267  Uiso   1.00
C23    C     0.12470   0.46490   0.22860   0.01267  Uiso   1.00
C24    C     0.08830   0.38280   0.26360   0.01267  Uiso   1.00
C25    C     0.14850   0.59250   0.30970   0.01267  Uiso   1.00
C26    C     0.07310   0.57260   0.37270   0.01267  Uiso   1.00
C27    C     0.16400   0.57480   0.49840   0.01267  Uiso   1.00
C28    C     0.27020   0.57260   0.48750   0.01267  Uiso   1.00
C29    C     0.03820   0.47310   0.48120   0.01267  Uiso   1.00
C30    C     0.26690   0.34130   0.52900   0.01267  Uiso   1.00
C31    C     0.33200   0.06330   0.25290   0.01267  Uiso   1.00
C32    C     0.28260   0.97840   0.25630   0.01267  Uiso   1.00
C33    C     0.12470   0.03510   0.27140   0.01267  Uiso   1.00
C34    C     0.08830   0.11720   0.23640   0.01267  Uiso   1.00
C35    C     0.14850   0.90750   0.19030   0.01267  Uiso   1.00
C36    C     0.07310   0.92740   0.12730   0.01267  Uiso   1.00
C37    C     0.16400   0.92520   0.00160   0.01267  Uiso   1.00
C38    C     0.27020   0.92740   0.01250   0.01267  Uiso   1.00
C39    C     0.03820   0.02690   0.01880   0.01267  Uiso   1.00
C40    C     0.26690   0.15870   0.97100   0.01267  Uiso   1.00
C41    C     0.83200   0.43670   0.25290   0.01267  Uiso   1.00
C42    C     0.78260   0.52160   0.25630   0.01267  Uiso   1.00
C43    C     0.62470   0.46490   0.27140   0.01267  Uiso   1.00
C44    C     0.58830   0.38280   0.23640   0.01267  Uiso   1.00
C45    C     0.64850   0.59250   0.19030   0.01267  Uiso   1.00
C46    C     0.57310   0.57260   0.12730   0.01267  Uiso   1.00
C47    C     0.66400   0.57480   0.00160   0.01267  Uiso   1.00
C48    C     0.77020   0.57260   0.01250   0.01267  Uiso   1.00
C49    C     0.53820   0.47310   0.01880   0.01267  Uiso   1.00
C50    C     0.76690   0.34130   0.97100   0.01267  Uiso   1.00
C51    C     0.83200   0.06330   0.24710   0.01267  Uiso   1.00
C52    C     0.78260   0.97840   0.24370   0.01267  Uiso   1.00
C53    C     0.62470   0.03510   0.22860   0.01267  Uiso   1.00
C54    C     0.58830   0.11720   0.26360   0.01267  Uiso   1.00
C55    C     0.64850   0.90750   0.30970   0.01267  Uiso   1.00
C56    C     0.57310   0.92740   0.37270   0.01267  Uiso   1.00
C57    C     0.66400   0.92520   0.49840   0.01267  Uiso   1.00
C58    C     0.77020   0.92740   0.48750   0.01267  Uiso   1.00
C59    C     0.53820   0.02690   0.48120   0.01267  Uiso   1.00
C60    C     0.76690   0.15870   0.52900   0.01267  Uiso   1.00
C61    C     0.66800   0.56330   0.75290   0.01267  Uiso   1.00
C62    C     0.71740   0.47840   0.75630   0.01267  Uiso   1.00
C63    C     0.87530   0.53510   0.77140   0.01267  Uiso   1.00
C64    C     0.91170   0.61720   0.73640   0.01267  Uiso   1.00
C65    C     0.85150   0.40750   0.69030   0.01267  Uiso   1.00
C66    C     0.92690   0.42740   0.62730   0.01267  Uiso   1.00
C67    C     0.83600   0.42520   0.50160   0.01267  Uiso   1.00
C68    C     0.72980   0.42740   0.51250   0.01267  Uiso   1.00
C69    C     0.96180   0.52690   0.51880   0.01267  Uiso   1.00
C70    C     0.73310   0.65870   0.47100   0.01267  Uiso   1.00
C71    C     0.66800   0.93670   0.74710   0.01267  Uiso   1.00
C72    C     0.71740   0.02160   0.74370   0.01267  Uiso   1.00
C73    C     0.87530   0.96490   0.72860   0.01267  Uiso   1.00
C74    C     0.91170   0.88280   0.76360   0.01267  Uiso   1.00
C75    C     0.85150   0.09250   0.80970   0.01267  Uiso   1.00
C76    C     0.92690   0.07260   0.87270   0.01267  Uiso   1.00
C77    C     0.83600   0.07480   0.99840   0.01267  Uiso   1.00
C78    C     0.72980   0.07260   0.98750   0.01267  Uiso   1.00
C79    C     0.96180   0.97310   0.98120   0.01267  Uiso   1.00
C80    C     0.73310   0.84130   0.02900   0.01267  Uiso   1.00
S1     S     0.18550   0.70280   0.11620   0.01267  Uiso   1.00
S2     S     0.18550   0.79720   0.38380   0.01267  Uiso   1.00
S3     S     0.31450   0.29720   0.61620   0.01267  Uiso   1.00
S4     S     0.31450   0.20280   0.88380   0.01267  Uiso   1.00
S5     S     0.81450   0.29720   0.88380   0.01267  Uiso   1.00
S6     S     0.81450   0.20280   0.61620   0.01267  Uiso   1.00
S7     S     0.68550   0.70280   0.38380   0.01267  Uiso   1.00
S8     S     0.68550   0.79720   0.11620   0.01267  Uiso   1.00
N1     N     0.31010   0.48760   0.78120   0.01267  Uiso   1.00
N2     N     0.38820   0.47840   0.93990   0.01267  Uiso   1.00
N3     N     0.26730   0.63450   0.97540   0.01267  Uiso   1.00
N4     N     0.31010   0.01240   0.71880   0.01267  Uiso   1.00
N5     N     0.38820   0.02160   0.56010   0.01267  Uiso   1.00
N6     N     0.26730   0.86550   0.52460   0.01267  Uiso   1.00
N7     N     0.18990   0.51240   0.28120   0.01267  Uiso   1.00
N8     N     0.11180   0.52160   0.43990   0.01267  Uiso   1.00
N9     N     0.23270   0.36550   0.47540   0.01267  Uiso   1.00
N10    N     0.18990   0.98760   0.21880   0.01267  Uiso   1.00
N11    N     0.11180   0.97840   0.06010   0.01267  Uiso   1.00
N12    N     0.23270   0.13450   0.02460   0.01267  Uiso   1.00
N13    N     0.68990   0.51240   0.21880   0.01267  Uiso   1.00
N14    N     0.61180   0.52160   0.06010   0.01267  Uiso   1.00
N15    N     0.73270   0.36550   0.02460   0.01267  Uiso   1.00
N16    N     0.68990   0.98760   0.28120   0.01267  Uiso   1.00
N17    N     0.61180   0.97840   0.43990   0.01267  Uiso   1.00
N18    N     0.73270   0.13450   0.47540   0.01267  Uiso   1.00
N19    N     0.81010   0.48760   0.71880   0.01267  Uiso   1.00
N20    N     0.88820   0.47840   0.56010   0.01267  Uiso   1.00
N21    N     0.76730   0.63450   0.52460   0.01267  Uiso   1.00
N22    N     0.81010   0.01240   0.78120   0.01267  Uiso   1.00
N23    N     0.88820   0.02160   0.93990   0.01267  Uiso   1.00
N24    N     0.76730   0.86550   0.97540   0.01267  Uiso   1.00
O1     O     0.18280   0.61000   0.80870   0.01267  Uiso   1.00
O2     O     0.11670   0.58600   0.69070   0.01267  Uiso   1.00
O3     O     0.38510   0.63850   0.83340   0.01267  Uiso   1.00
O4     O     0.46820   0.65820   0.72160   0.01267  Uiso   1.00
O5     O     0.19480   0.47330   0.93170   0.01267  Uiso   1.00
O6     O     0.18250   0.38360   0.03550   0.01267  Uiso   1.00
O7     O     0.05020   0.73680   0.60370   0.01267  Uiso   1.00
O8     O     0.25880   0.71800   0.66650   0.01267  Uiso   1.00
O9     O     0.18280   0.89000   0.69130   0.01267  Uiso   1.00
O10    O     0.11670   0.91400   0.80930   0.01267  Uiso   1.00
O11    O     0.38510   0.86150   0.66660   0.01267  Uiso   1.00
O12    O     0.46820   0.84180   0.77840   0.01267  Uiso   1.00
O13    O     0.19480   0.02670   0.56830   0.01267  Uiso   1.00
O14    O     0.18250   0.11640   0.46450   0.01267  Uiso   1.00
O15    O     0.05020   0.76320   0.89630   0.01267  Uiso   1.00
O16    O     0.25880   0.78200   0.83350   0.01267  Uiso   1.00
O17    O     0.31720   0.39000   0.30870   0.01267  Uiso   1.00
O18    O     0.38330   0.41400   0.19070   0.01267  Uiso   1.00
O19    O     0.11490   0.36150   0.33340   0.01267  Uiso   1.00
O20    O     0.03180   0.34180   0.22160   0.01267  Uiso   1.00
O21    O     0.30520   0.52670   0.43170   0.01267  Uiso   1.00
O22    O     0.31750   0.61640   0.53550   0.01267  Uiso   1.00
O23    O     0.44980   0.26320   0.10370   0.01267  Uiso   1.00
O24    O     0.24120   0.28200   0.16650   0.01267  Uiso   1.00
O25    O     0.31720   0.11000   0.19130   0.01267  Uiso   1.00
O26    O     0.38330   0.08600   0.30930   0.01267  Uiso   1.00
O27    O     0.11490   0.13850   0.16660   0.01267  Uiso   1.00
O28    O     0.03180   0.15820   0.27840   0.01267  Uiso   1.00
O29    O     0.30520   0.97330   0.06830   0.01267  Uiso   1.00
O30    O     0.31750   0.88360   0.96450   0.01267  Uiso   1.00
O31    O     0.44980   0.23680   0.39630   0.01267  Uiso   1.00
O32    O     0.24120   0.21800   0.33350   0.01267  Uiso   1.00
O33    O     0.81720   0.39000   0.19130   0.01267  Uiso   1.00
O34    O     0.88330   0.41400   0.30930   0.01267  Uiso   1.00
O35    O     0.61490   0.36150   0.16660   0.01267  Uiso   1.00
O36    O     0.53180   0.34180   0.27840   0.01267  Uiso   1.00
O37    O     0.80520   0.52670   0.06830   0.01267  Uiso   1.00
O38    O     0.81750   0.61640   0.96450   0.01267  Uiso   1.00
O39    O     0.94980   0.26320   0.39630   0.01267  Uiso   1.00
O40    O     0.74120   0.28200   0.33350   0.01267  Uiso   1.00
O41    O     0.81720   0.11000   0.30870   0.01267  Uiso   1.00
O42    O     0.88330   0.08600   0.19070   0.01267  Uiso   1.00
O43    O     0.61490   0.13850   0.33340   0.01267  Uiso   1.00
O44    O     0.53180   0.15820   0.22160   0.01267  Uiso   1.00
O45    O     0.80520   0.97330   0.43170   0.01267  Uiso   1.00
O46    O     0.81750   0.88360   0.53550   0.01267  Uiso   1.00
O47    O     0.94980   0.23680   0.10370   0.01267  Uiso   1.00
O48    O     0.74120   0.21800   0.16650   0.01267  Uiso   1.00
O49    O     0.68280   0.61000   0.69130   0.01267  Uiso   1.00
O50    O     0.61670   0.58600   0.80930   0.01267  Uiso   1.00
O51    O     0.88510   0.63850   0.66660   0.01267  Uiso   1.00
O52    O     0.96820   0.65820   0.77840   0.01267  Uiso   1.00
O53    O     0.69480   0.47330   0.56830   0.01267  Uiso   1.00
O54    O     0.68250   0.38360   0.46450   0.01267  Uiso   1.00
O55    O     0.55020   0.73680   0.89630   0.01267  Uiso   1.00
O56    O     0.75880   0.71800   0.83350   0.01267  Uiso   1.00
O57    O     0.68280   0.89000   0.80870   0.01267  Uiso   1.00
O58    O     0.61670   0.91400   0.69070   0.01267  Uiso   1.00
O59    O     0.88510   0.86150   0.83340   0.01267  Uiso   1.00
O60    O     0.96820   0.84180   0.72160   0.01267  Uiso   1.00
O61    O     0.69480   0.02670   0.93170   0.01267  Uiso   1.00
O62    O     0.68250   0.11640   0.03550   0.01267  Uiso   1.00
O63    O     0.55020   0.76320   0.60370   0.01267  Uiso   1.00
O64    O     0.75880   0.78200   0.66650   0.01267  Uiso   1.00
