data_CIPREZ_charged
_audit_creation_date              2014-07-02
_audit_creation_method            'Materials Studio'
_symmetry_space_group_name_H-M    'P1'
_symmetry_Int_Tables_number       1
_symmetry_cell_setting            triclinic
loop_
_symmetry_equiv_pos_as_xyz
  x,y,z
_cell_length_a                    14.5060
_cell_length_b                    15.9120
_cell_length_c                    16.6890
_cell_angle_alpha                 90.0000
_cell_angle_beta                  90.0000
_cell_angle_gamma                 90.0000
loop_
_atom_site_label
_atom_site_type_symbol
_atom_site_fract_x
_atom_site_fract_y
_atom_site_fract_z
_atom_site_U_iso_or_equiv
_atom_site_adp_type
_atom_site_occupancy
La1    La    0.10706   0.75000   0.75000   0.01267  Uiso   1.00
La2    La    0.39294   0.25000   0.25000   0.01267  Uiso   1.00
La3    La    0.89294   0.25000   0.25000   0.01267  Uiso   1.00
La4    La    0.60706   0.75000   0.75000   0.01267  Uiso   1.00
Cu1    Cu    0.28768   0.56278   0.88606   0.01267  Uiso   1.00
Cu2    Cu    0.28768   0.93722   0.61394   0.01267  Uiso   1.00
Cu3    Cu    0.21232   0.43722   0.38606   0.01267  Uiso   1.00
Cu4    Cu    0.21232   0.06278   0.11394   0.01267  Uiso   1.00
Cu5    Cu    0.71232   0.43722   0.11394   0.01267  Uiso   1.00
Cu6    Cu    0.71232   0.06278   0.38606   0.01267  Uiso   1.00
Cu7    Cu    0.78768   0.56278   0.61394   0.01267  Uiso   1.00
Cu8    Cu    0.78768   0.93722   0.88606   0.01267  Uiso   1.00
H1     H     0.09220   0.73210   0.57260   0.01267  Uiso   1.00
H2     H     0.00350   0.77010   0.59500   0.01267  Uiso   1.00
H3     H     0.29440   0.75920   0.66670   0.01267  Uiso   1.00
H4     H     0.24230   0.69360   0.62460   0.01267  Uiso   1.00
H5     H     0.22420   0.46270   0.69280   0.01267  Uiso   1.00
H6     H     0.18200   0.44100   0.77700   0.01267  Uiso   1.00
H7     H     0.42350   0.50370   0.71480   0.01267  Uiso   1.00
H8     H     0.33940   0.55430   0.68100   0.01267  Uiso   1.00
H9     H     0.30380   0.37830   0.83330   0.01267  Uiso   1.00
H10    H     0.37670   0.38560   0.76410   0.01267  Uiso   1.00
H11    H     0.47530   0.46100   0.84640   0.01267  Uiso   1.00
H12    H     0.44990   0.37640   0.88960   0.01267  Uiso   1.00
H13    H     0.36130   0.36560   0.99080   0.01267  Uiso   1.00
H14    H     0.35370   0.44000   0.05180   0.01267  Uiso   1.00
H15    H     0.49080   0.56510   0.94310   0.01267  Uiso   1.00
H16    H     0.43510   0.56140   0.02350   0.01267  Uiso   1.00
H17    H     0.09220   0.76790   0.92740   0.01267  Uiso   1.00
H18    H     0.00350   0.72990   0.90500   0.01267  Uiso   1.00
H19    H     0.29440   0.74080   0.83330   0.01267  Uiso   1.00
H20    H     0.24230   0.80640   0.87540   0.01267  Uiso   1.00
H21    H     0.22420   0.03730   0.80720   0.01267  Uiso   1.00
H22    H     0.18200   0.05900   0.72300   0.01267  Uiso   1.00
H23    H     0.42350   0.99630   0.78520   0.01267  Uiso   1.00
H24    H     0.33940   0.94570   0.81900   0.01267  Uiso   1.00
H25    H     0.30380   0.12170   0.66670   0.01267  Uiso   1.00
H26    H     0.37670   0.11440   0.73590   0.01267  Uiso   1.00
H27    H     0.47530   0.03900   0.65360   0.01267  Uiso   1.00
H28    H     0.44990   0.12360   0.61040   0.01267  Uiso   1.00
H29    H     0.36130   0.13440   0.50920   0.01267  Uiso   1.00
H30    H     0.35370   0.06000   0.44820   0.01267  Uiso   1.00
H31    H     0.49080   0.93490   0.55690   0.01267  Uiso   1.00
H32    H     0.43510   0.93860   0.47650   0.01267  Uiso   1.00
H33    H     0.40780   0.26790   0.07260   0.01267  Uiso   1.00
H34    H     0.49650   0.22990   0.09500   0.01267  Uiso   1.00
H35    H     0.20560   0.24080   0.16670   0.01267  Uiso   1.00
H36    H     0.25770   0.30640   0.12460   0.01267  Uiso   1.00
H37    H     0.27580   0.53730   0.19280   0.01267  Uiso   1.00
H38    H     0.31800   0.55900   0.27700   0.01267  Uiso   1.00
H39    H     0.07650   0.49630   0.21480   0.01267  Uiso   1.00
H40    H     0.16060   0.44570   0.18100   0.01267  Uiso   1.00
H41    H     0.19620   0.62170   0.33330   0.01267  Uiso   1.00
H42    H     0.12330   0.61440   0.26410   0.01267  Uiso   1.00
H43    H     0.02470   0.53900   0.34640   0.01267  Uiso   1.00
H44    H     0.05010   0.62360   0.38960   0.01267  Uiso   1.00
H45    H     0.13870   0.63440   0.49080   0.01267  Uiso   1.00
H46    H     0.14630   0.56000   0.55180   0.01267  Uiso   1.00
H47    H     0.00920   0.43490   0.44310   0.01267  Uiso   1.00
H48    H     0.06490   0.43860   0.52350   0.01267  Uiso   1.00
H49    H     0.40780   0.23210   0.42740   0.01267  Uiso   1.00
H50    H     0.49650   0.27010   0.40500   0.01267  Uiso   1.00
H51    H     0.20560   0.25920   0.33330   0.01267  Uiso   1.00
H52    H     0.25770   0.19360   0.37540   0.01267  Uiso   1.00
H53    H     0.27580   0.96270   0.30720   0.01267  Uiso   1.00
H54    H     0.31800   0.94100   0.22300   0.01267  Uiso   1.00
H55    H     0.07650   0.00370   0.28520   0.01267  Uiso   1.00
H56    H     0.16060   0.05430   0.31900   0.01267  Uiso   1.00
H57    H     0.19620   0.87830   0.16670   0.01267  Uiso   1.00
H58    H     0.12330   0.88560   0.23590   0.01267  Uiso   1.00
H59    H     0.02470   0.96100   0.15360   0.01267  Uiso   1.00
H60    H     0.05010   0.87640   0.11040   0.01267  Uiso   1.00
H61    H     0.13870   0.86560   0.00920   0.01267  Uiso   1.00
H62    H     0.14630   0.94000   0.94820   0.01267  Uiso   1.00
H63    H     0.00920   0.06510   0.05690   0.01267  Uiso   1.00
H64    H     0.06490   0.06140   0.97650   0.01267  Uiso   1.00
H65    H     0.90780   0.26790   0.42740   0.01267  Uiso   1.00
H66    H     0.99650   0.22990   0.40500   0.01267  Uiso   1.00
H67    H     0.70560   0.24080   0.33330   0.01267  Uiso   1.00
H68    H     0.75770   0.30640   0.37540   0.01267  Uiso   1.00
H69    H     0.77580   0.53730   0.30720   0.01267  Uiso   1.00
H70    H     0.81800   0.55900   0.22300   0.01267  Uiso   1.00
H71    H     0.57650   0.49630   0.28520   0.01267  Uiso   1.00
H72    H     0.66060   0.44570   0.31900   0.01267  Uiso   1.00
H73    H     0.69620   0.62170   0.16670   0.01267  Uiso   1.00
H74    H     0.62330   0.61440   0.23590   0.01267  Uiso   1.00
H75    H     0.52470   0.53900   0.15360   0.01267  Uiso   1.00
H76    H     0.55010   0.62360   0.11040   0.01267  Uiso   1.00
H77    H     0.63870   0.63440   0.00920   0.01267  Uiso   1.00
H78    H     0.64630   0.56000   0.94820   0.01267  Uiso   1.00
H79    H     0.50920   0.43490   0.05690   0.01267  Uiso   1.00
H80    H     0.56490   0.43860   0.97650   0.01267  Uiso   1.00
H81    H     0.90780   0.23210   0.07260   0.01267  Uiso   1.00
H82    H     0.99650   0.27010   0.09500   0.01267  Uiso   1.00
H83    H     0.70560   0.25920   0.16670   0.01267  Uiso   1.00
H84    H     0.75770   0.19360   0.12460   0.01267  Uiso   1.00
H85    H     0.77580   0.96270   0.19280   0.01267  Uiso   1.00
H86    H     0.81800   0.94100   0.27700   0.01267  Uiso   1.00
H87    H     0.57650   0.00370   0.21480   0.01267  Uiso   1.00
H88    H     0.66060   0.05430   0.18100   0.01267  Uiso   1.00
H89    H     0.69620   0.87830   0.33330   0.01267  Uiso   1.00
H90    H     0.62330   0.88560   0.26410   0.01267  Uiso   1.00
H91    H     0.52470   0.96100   0.34640   0.01267  Uiso   1.00
H92    H     0.55010   0.87640   0.38960   0.01267  Uiso   1.00
H93    H     0.63870   0.86560   0.49080   0.01267  Uiso   1.00
H94    H     0.64630   0.94000   0.55180   0.01267  Uiso   1.00
H95    H     0.50920   0.06510   0.44310   0.01267  Uiso   1.00
H96    H     0.56490   0.06140   0.52350   0.01267  Uiso   1.00
H97    H     0.59220   0.73210   0.92740   0.01267  Uiso   1.00
H98    H     0.50350   0.77010   0.90500   0.01267  Uiso   1.00
H99    H     0.79440   0.75920   0.83330   0.01267  Uiso   1.00
H100   H     0.74230   0.69360   0.87540   0.01267  Uiso   1.00
H101   H     0.72420   0.46270   0.80720   0.01267  Uiso   1.00
H102   H     0.68200   0.44100   0.72300   0.01267  Uiso   1.00
H103   H     0.92350   0.50370   0.78520   0.01267  Uiso   1.00
H104   H     0.83940   0.55430   0.81900   0.01267  Uiso   1.00
H105   H     0.80380   0.37830   0.66670   0.01267  Uiso   1.00
H106   H     0.87670   0.38560   0.73590   0.01267  Uiso   1.00
H107   H     0.97530   0.46100   0.65360   0.01267  Uiso   1.00
H108   H     0.94990   0.37640   0.61040   0.01267  Uiso   1.00
H109   H     0.86130   0.36560   0.50920   0.01267  Uiso   1.00
H110   H     0.85370   0.44000   0.44820   0.01267  Uiso   1.00
H111   H     0.99080   0.56510   0.55690   0.01267  Uiso   1.00
H112   H     0.93510   0.56140   0.47650   0.01267  Uiso   1.00
H113   H     0.59220   0.76790   0.57260   0.01267  Uiso   1.00
H114   H     0.50350   0.72990   0.59500   0.01267  Uiso   1.00
H115   H     0.79440   0.74080   0.66670   0.01267  Uiso   1.00
H116   H     0.74230   0.80640   0.62460   0.01267  Uiso   1.00
H117   H     0.72420   0.03730   0.69280   0.01267  Uiso   1.00
H118   H     0.68200   0.05900   0.77700   0.01267  Uiso   1.00
H119   H     0.92350   0.99630   0.71480   0.01267  Uiso   1.00
H120   H     0.83940   0.94570   0.68100   0.01267  Uiso   1.00
H121   H     0.80380   0.12170   0.83330   0.01267  Uiso   1.00
H122   H     0.87670   0.11440   0.76410   0.01267  Uiso   1.00
H123   H     0.97530   0.03900   0.84640   0.01267  Uiso   1.00
H124   H     0.94990   0.12360   0.88960   0.01267  Uiso   1.00
H125   H     0.86130   0.13440   0.99080   0.01267  Uiso   1.00
H126   H     0.85370   0.06000   0.05180   0.01267  Uiso   1.00
H127   H     0.99080   0.93490   0.94310   0.01267  Uiso   1.00
H128   H     0.93510   0.93860   0.02350   0.01267  Uiso   1.00
C1     C     0.16640   0.56450   0.74730   0.01267  Uiso   1.00
C2     C     0.21700   0.48260   0.74730   0.01267  Uiso   1.00
C3     C     0.37290   0.54030   0.72960   0.01267  Uiso   1.00
C4     C     0.41200   0.62060   0.76540   0.01267  Uiso   1.00
C5     C     0.35090   0.41420   0.81030   0.01267  Uiso   1.00
C6     C     0.42540   0.42970   0.87110   0.01267  Uiso   1.00
C7     C     0.33900   0.42260   0.99760   0.01267  Uiso   1.00
C8     C     0.23590   0.42290   0.98750   0.01267  Uiso   1.00
C9     C     0.46270   0.52740   0.98170   0.01267  Uiso   1.00
C10    C     0.22710   0.65710   0.02600   0.01267  Uiso   1.00
C11    C     0.16640   0.93550   0.75270   0.01267  Uiso   1.00
C12    C     0.21700   0.01740   0.75270   0.01267  Uiso   1.00
C13    C     0.37290   0.95970   0.77040   0.01267  Uiso   1.00
C14    C     0.41200   0.87940   0.73460   0.01267  Uiso   1.00
C15    C     0.35090   0.08580   0.68970   0.01267  Uiso   1.00
C16    C     0.42540   0.07030   0.62890   0.01267  Uiso   1.00
C17    C     0.33900   0.07740   0.50240   0.01267  Uiso   1.00
C18    C     0.23590   0.07710   0.51250   0.01267  Uiso   1.00
C19    C     0.46270   0.97260   0.51830   0.01267  Uiso   1.00
C20    C     0.22710   0.84290   0.47400   0.01267  Uiso   1.00
C21    C     0.33360   0.43550   0.24730   0.01267  Uiso   1.00
C22    C     0.28300   0.51740   0.24730   0.01267  Uiso   1.00
C23    C     0.12710   0.45970   0.22960   0.01267  Uiso   1.00
C24    C     0.08800   0.37940   0.26540   0.01267  Uiso   1.00
C25    C     0.14910   0.58580   0.31030   0.01267  Uiso   1.00
C26    C     0.07460   0.57030   0.37110   0.01267  Uiso   1.00
C27    C     0.16100   0.57740   0.49760   0.01267  Uiso   1.00
C28    C     0.26410   0.57710   0.48750   0.01267  Uiso   1.00
C29    C     0.03730   0.47260   0.48170   0.01267  Uiso   1.00
C30    C     0.27290   0.34290   0.52600   0.01267  Uiso   1.00
C31    C     0.33360   0.06450   0.25270   0.01267  Uiso   1.00
C32    C     0.28300   0.98260   0.25270   0.01267  Uiso   1.00
C33    C     0.12710   0.04030   0.27040   0.01267  Uiso   1.00
C34    C     0.08800   0.12060   0.23460   0.01267  Uiso   1.00
C35    C     0.14910   0.91420   0.18970   0.01267  Uiso   1.00
C36    C     0.07460   0.92970   0.12890   0.01267  Uiso   1.00
C37    C     0.16100   0.92260   0.00240   0.01267  Uiso   1.00
C38    C     0.26410   0.92290   0.01250   0.01267  Uiso   1.00
C39    C     0.03730   0.02740   0.01830   0.01267  Uiso   1.00
C40    C     0.27290   0.15710   0.97400   0.01267  Uiso   1.00
C41    C     0.83360   0.43550   0.25270   0.01267  Uiso   1.00
C42    C     0.78300   0.51740   0.25270   0.01267  Uiso   1.00
C43    C     0.62710   0.45970   0.27040   0.01267  Uiso   1.00
C44    C     0.58800   0.37940   0.23460   0.01267  Uiso   1.00
C45    C     0.64910   0.58580   0.18970   0.01267  Uiso   1.00
C46    C     0.57460   0.57030   0.12890   0.01267  Uiso   1.00
C47    C     0.66100   0.57740   0.00240   0.01267  Uiso   1.00
C48    C     0.76410   0.57710   0.01250   0.01267  Uiso   1.00
C49    C     0.53730   0.47260   0.01830   0.01267  Uiso   1.00
C50    C     0.77290   0.34290   0.97400   0.01267  Uiso   1.00
C51    C     0.83360   0.06450   0.24730   0.01267  Uiso   1.00
C52    C     0.78300   0.98260   0.24730   0.01267  Uiso   1.00
C53    C     0.62710   0.04030   0.22960   0.01267  Uiso   1.00
C54    C     0.58800   0.12060   0.26540   0.01267  Uiso   1.00
C55    C     0.64910   0.91420   0.31030   0.01267  Uiso   1.00
C56    C     0.57460   0.92970   0.37110   0.01267  Uiso   1.00
C57    C     0.66100   0.92260   0.49760   0.01267  Uiso   1.00
C58    C     0.76410   0.92290   0.48750   0.01267  Uiso   1.00
C59    C     0.53730   0.02740   0.48170   0.01267  Uiso   1.00
C60    C     0.77290   0.15710   0.52600   0.01267  Uiso   1.00
C61    C     0.66640   0.56450   0.75270   0.01267  Uiso   1.00
C62    C     0.71700   0.48260   0.75270   0.01267  Uiso   1.00
C63    C     0.87290   0.54030   0.77040   0.01267  Uiso   1.00
C64    C     0.91200   0.62060   0.73460   0.01267  Uiso   1.00
C65    C     0.85090   0.41420   0.68970   0.01267  Uiso   1.00
C66    C     0.92540   0.42970   0.62890   0.01267  Uiso   1.00
C67    C     0.83900   0.42260   0.50240   0.01267  Uiso   1.00
C68    C     0.73590   0.42290   0.51250   0.01267  Uiso   1.00
C69    C     0.96270   0.52740   0.51830   0.01267  Uiso   1.00
C70    C     0.72710   0.65710   0.47400   0.01267  Uiso   1.00
C71    C     0.66640   0.93550   0.74730   0.01267  Uiso   1.00
C72    C     0.71700   0.01740   0.74730   0.01267  Uiso   1.00
C73    C     0.87290   0.95970   0.72960   0.01267  Uiso   1.00
C74    C     0.91200   0.87940   0.76540   0.01267  Uiso   1.00
C75    C     0.85090   0.08580   0.81030   0.01267  Uiso   1.00
C76    C     0.92540   0.07030   0.87110   0.01267  Uiso   1.00
C77    C     0.83900   0.07740   0.99760   0.01267  Uiso   1.00
C78    C     0.73590   0.07710   0.98750   0.01267  Uiso   1.00
C79    C     0.96270   0.97260   0.98170   0.01267  Uiso   1.00
C80    C     0.72710   0.84290   0.02600   0.01267  Uiso   1.00
S1     S     0.18360   0.70210   0.11410   0.01267  Uiso   1.00
S2     S     0.18360   0.79790   0.38590   0.01267  Uiso   1.00
S3     S     0.31640   0.29790   0.61410   0.01267  Uiso   1.00
S4     S     0.31640   0.20210   0.88590   0.01267  Uiso   1.00
S5     S     0.81640   0.29790   0.88590   0.01267  Uiso   1.00
S6     S     0.81640   0.20210   0.61410   0.01267  Uiso   1.00
S7     S     0.68360   0.70210   0.38590   0.01267  Uiso   1.00
S8     S     0.68360   0.79790   0.11410   0.01267  Uiso   1.00
N1     N     0.30960   0.49370   0.78500   0.01267  Uiso   1.00
N2     N     0.38850   0.47800   0.94080   0.01267  Uiso   1.00
N3     N     0.26340   0.63100   0.97410   0.01267  Uiso   1.00
N4     N     0.30960   0.00630   0.71500   0.01267  Uiso   1.00
N5     N     0.38850   0.02200   0.55920   0.01267  Uiso   1.00
N6     N     0.26340   0.86900   0.52590   0.01267  Uiso   1.00
N7     N     0.19040   0.50630   0.28500   0.01267  Uiso   1.00
N8     N     0.11150   0.52200   0.44080   0.01267  Uiso   1.00
N9     N     0.23660   0.36900   0.47410   0.01267  Uiso   1.00
N10    N     0.19040   0.99370   0.21500   0.01267  Uiso   1.00
N11    N     0.11150   0.97800   0.05920   0.01267  Uiso   1.00
N12    N     0.23660   0.13100   0.02590   0.01267  Uiso   1.00
N13    N     0.69040   0.50630   0.21500   0.01267  Uiso   1.00
N14    N     0.61150   0.52200   0.05920   0.01267  Uiso   1.00
N15    N     0.73660   0.36900   0.02590   0.01267  Uiso   1.00
N16    N     0.69040   0.99370   0.28500   0.01267  Uiso   1.00
N17    N     0.61150   0.97800   0.44080   0.01267  Uiso   1.00
N18    N     0.73660   0.13100   0.47410   0.01267  Uiso   1.00
N19    N     0.80960   0.49370   0.71500   0.01267  Uiso   1.00
N20    N     0.88850   0.47800   0.55920   0.01267  Uiso   1.00
N21    N     0.76340   0.63100   0.52590   0.01267  Uiso   1.00
N22    N     0.80960   0.00630   0.78500   0.01267  Uiso   1.00
N23    N     0.88850   0.02200   0.94080   0.01267  Uiso   1.00
N24    N     0.76340   0.86900   0.97410   0.01267  Uiso   1.00
O1     O     0.17940   0.61240   0.80890   0.01267  Uiso   1.00
O2     O     0.11620   0.58490   0.69080   0.01267  Uiso   1.00
O3     O     0.38760   0.64230   0.83510   0.01267  Uiso   1.00
O4     O     0.46860   0.65820   0.72300   0.01267  Uiso   1.00
O5     O     0.19960   0.46570   0.93430   0.01267  Uiso   1.00
O6     O     0.19320   0.37870   0.03830   0.01267  Uiso   1.00
O7     O     0.04620   0.73410   0.60590   0.01267  Uiso   1.00
O8     O     0.25480   0.71940   0.66780   0.01267  Uiso   1.00
O9     O     0.17940   0.88760   0.69110   0.01267  Uiso   1.00
O10    O     0.11620   0.91510   0.80920   0.01267  Uiso   1.00
O11    O     0.38760   0.85770   0.66490   0.01267  Uiso   1.00
O12    O     0.46860   0.84180   0.77700   0.01267  Uiso   1.00
O13    O     0.19960   0.03430   0.56570   0.01267  Uiso   1.00
O14    O     0.19320   0.12130   0.46170   0.01267  Uiso   1.00
O15    O     0.04620   0.76590   0.89410   0.01267  Uiso   1.00
O16    O     0.25480   0.78060   0.83220   0.01267  Uiso   1.00
O17    O     0.32060   0.38760   0.30890   0.01267  Uiso   1.00
O18    O     0.38380   0.41510   0.19080   0.01267  Uiso   1.00
O19    O     0.11240   0.35770   0.33510   0.01267  Uiso   1.00
O20    O     0.03140   0.34180   0.22300   0.01267  Uiso   1.00
O21    O     0.30040   0.53430   0.43430   0.01267  Uiso   1.00
O22    O     0.30680   0.62130   0.53830   0.01267  Uiso   1.00
O23    O     0.45380   0.26590   0.10590   0.01267  Uiso   1.00
O24    O     0.24520   0.28060   0.16780   0.01267  Uiso   1.00
O25    O     0.32060   0.11240   0.19110   0.01267  Uiso   1.00
O26    O     0.38380   0.08490   0.30920   0.01267  Uiso   1.00
O27    O     0.11240   0.14230   0.16490   0.01267  Uiso   1.00
O28    O     0.03140   0.15820   0.27700   0.01267  Uiso   1.00
O29    O     0.30040   0.96570   0.06570   0.01267  Uiso   1.00
O30    O     0.30680   0.87870   0.96170   0.01267  Uiso   1.00
O31    O     0.45380   0.23410   0.39410   0.01267  Uiso   1.00
O32    O     0.24520   0.21940   0.33220   0.01267  Uiso   1.00
O33    O     0.82060   0.38760   0.19110   0.01267  Uiso   1.00
O34    O     0.88380   0.41510   0.30920   0.01267  Uiso   1.00
O35    O     0.61240   0.35770   0.16490   0.01267  Uiso   1.00
O36    O     0.53140   0.34180   0.27700   0.01267  Uiso   1.00
O37    O     0.80040   0.53430   0.06570   0.01267  Uiso   1.00
O38    O     0.80680   0.62130   0.96170   0.01267  Uiso   1.00
O39    O     0.95380   0.26590   0.39410   0.01267  Uiso   1.00
O40    O     0.74520   0.28060   0.33220   0.01267  Uiso   1.00
O41    O     0.82060   0.11240   0.30890   0.01267  Uiso   1.00
O42    O     0.88380   0.08490   0.19080   0.01267  Uiso   1.00
O43    O     0.61240   0.14230   0.33510   0.01267  Uiso   1.00
O44    O     0.53140   0.15820   0.22300   0.01267  Uiso   1.00
O45    O     0.80040   0.96570   0.43430   0.01267  Uiso   1.00
O46    O     0.80680   0.87870   0.53830   0.01267  Uiso   1.00
O47    O     0.95380   0.23410   0.10590   0.01267  Uiso   1.00
O48    O     0.74520   0.21940   0.16780   0.01267  Uiso   1.00
O49    O     0.67940   0.61240   0.69110   0.01267  Uiso   1.00
O50    O     0.61620   0.58490   0.80920   0.01267  Uiso   1.00
O51    O     0.88760   0.64230   0.66490   0.01267  Uiso   1.00
O52    O     0.96860   0.65820   0.77700   0.01267  Uiso   1.00
O53    O     0.69960   0.46570   0.56570   0.01267  Uiso   1.00
O54    O     0.69320   0.37870   0.46170   0.01267  Uiso   1.00
O55    O     0.54620   0.73410   0.89410   0.01267  Uiso   1.00
O56    O     0.75480   0.71940   0.83220   0.01267  Uiso   1.00
O57    O     0.67940   0.88760   0.80890   0.01267  Uiso   1.00
O58    O     0.61620   0.91510   0.69080   0.01267  Uiso   1.00
O59    O     0.88760   0.85770   0.83510   0.01267  Uiso   1.00
O60    O     0.96860   0.84180   0.72300   0.01267  Uiso   1.00
O61    O     0.69960   0.03430   0.93430   0.01267  Uiso   1.00
O62    O     0.69320   0.12130   0.03830   0.01267  Uiso   1.00
O63    O     0.54620   0.76590   0.60590   0.01267  Uiso   1.00
O64    O     0.75480   0.78060   0.66780   0.01267  Uiso   1.00
