data_image0
_cell_length_a       11.409
_cell_length_b       17.7061
_cell_length_c       17.7061
_cell_angle_alpha    84.042
_cell_angle_beta     71.2053
_cell_angle_gamma    71.2053

_symmetry_space_group_name_H-M    P 1
_symmetry_int_tables_number       1

loop_
  _symmetry_equiv_pos_as_xyz
  'x, y, z'

loop_
  _atom_site_label
  _atom_site_occupancy
  _atom_site_fract_x
  _atom_site_fract_y
  _atom_site_fract_z
  _atom_site_thermal_displace_type
  _atom_site_B_iso_or_equiv
  _atom_site_type_symbol
  Co1      1.0000 0.42692  0.77535  0.33083  Biso   1.000  Co
  Co2      1.0000 0.13340  0.83352  0.41138  Biso   1.000  Co
  Co3      1.0000 0.03310  0.72465  0.16917  Biso   1.000  Co
  Co4      1.0000 0.87830  0.66648  0.08862  Biso   1.000  Co
  Co5      1.0000 0.75775  0.66917  0.27535  Biso   1.000  Co
  Co6      1.0000 0.54478  0.58862  0.33352  Biso   1.000  Co
  Co7      1.0000 0.20227  0.83083  0.22465  Biso   1.000  Co
  Co8      1.0000 0.96692  0.91138  0.16648  Biso   1.000  Co
  Co9      1.0000 0.57308  0.22465  0.66917  Biso   1.000  Co
  Co10     1.0000 0.86660  0.16648  0.58862  Biso   1.000  Co
  Co11     1.0000 0.96690  0.27535  0.83083  Biso   1.000  Co
  Co12     1.0000 0.12170  0.33352  0.91138  Biso   1.000  Co
  Co13     1.0000 0.24225  0.33083  0.72465  Biso   1.000  Co
  Co14     1.0000 0.45522  0.41138  0.66648  Biso   1.000  Co
  Co15     1.0000 0.79773  0.16917  0.77535  Biso   1.000  Co
  Co16     1.0000 0.03308  0.08862  0.83352  Biso   1.000  Co
  Co17     1.0000 0.50000  0.50000  0.50000  Biso   1.000  Co
  Co18     1.0000 0.00000  0.00000  0.00000  Biso   1.000  Co
  Co19     1.0000 0.00000  0.50000  0.00000  Biso   1.000  Co
  Co20     1.0000 0.00000  0.00000  0.50000  Biso   1.000  Co
  H1       1.0000 0.57590  0.69350  0.40850  Biso   1.000  H
  H2       1.0000 0.38830  0.59930  0.13850  Biso   1.000  H
  H3       1.0000 0.53160  0.60270  0.10630  Biso   1.000  H
  H4       1.0000 0.48630  0.55790  0.18630  Biso   1.000  H
  H5       1.0000 0.14300  0.70440  0.56540  Biso   1.000  H
  H6       1.0000 0.24850  0.62990  0.58510  Biso   1.000  H
  H7       1.0000 0.26170  0.71560  0.58400  Biso   1.000  H
  H8       1.0000 0.91360  0.47250  0.44810  Biso   1.000  H
  H9       1.0000 0.81550  0.54110  0.50730  Biso   1.000  H
  H10      1.0000 0.77860  0.46440  0.50140  Biso   1.000  H
  H11      1.0000 0.44770  0.33030  0.35670  Biso   1.000  H
  H12      1.0000 0.38260  0.39300  0.30120  Biso   1.000  H
  H13      1.0000 0.53270  0.34910  0.27230  Biso   1.000  H
  H14      1.0000 0.17790  0.80650  0.09150  Biso   1.000  H
  H15      1.0000 0.62610  0.90070  0.36150  Biso   1.000  H
  H16      1.0000 0.74060  0.89730  0.39370  Biso   1.000  H
  H17      1.0000 0.73050  0.94210  0.31370  Biso   1.000  H
  H18      1.0000 0.91280  0.79560  0.93460  Biso   1.000  H
  H19      1.0000 0.96350  0.87010  0.91490  Biso   1.000  H
  H20      1.0000 0.06130  0.78440  0.91600  Biso   1.000  H
  H21      1.0000 0.33420  0.02750  0.05190  Biso   1.000  H
  H22      1.0000 0.36390  0.95890  0.99270  Biso   1.000  H
  H23      1.0000 0.24440  0.03560  0.99860  Biso   1.000  H
  H24      1.0000 0.63470  0.16970  0.14330  Biso   1.000  H
  H25      1.0000 0.57680  0.10700  0.19880  Biso   1.000  H
  H26      1.0000 0.65410  0.15090  0.22770  Biso   1.000  H
  H27      1.0000 0.98440  0.59150  0.19350  Biso   1.000  H
  H28      1.0000 0.52680  0.86150  0.09930  Biso   1.000  H
  H29      1.0000 0.63790  0.89370  0.10270  Biso   1.000  H
  H30      1.0000 0.67260  0.81370  0.05790  Biso   1.000  H
  H31      1.0000 0.70840  0.43460  0.20440  Biso   1.000  H
  H32      1.0000 0.83360  0.41490  0.12990  Biso   1.000  H
  H33      1.0000 0.84570  0.41600  0.21560  Biso   1.000  H
  H34      1.0000 0.36170  0.55190  0.97250  Biso   1.000  H
  H35      1.0000 0.32280  0.49270  0.04110  Biso   1.000  H
  H36      1.0000 0.28000  0.49860  0.96440  Biso   1.000  H
  H37      1.0000 0.80440  0.64330  0.83030  Biso   1.000  H
  H38      1.0000 0.68380  0.69880  0.89300  Biso   1.000  H
  H39      1.0000 0.80500  0.72770  0.84910  Biso   1.000  H
  H40      1.0000 0.26940  0.90850  0.30650  Biso   1.000  H
  H41      1.0000 0.98760  0.63850  0.40070  Biso   1.000  H
  H42      1.0000 0.13430  0.60630  0.39730  Biso   1.000  H
  H43      1.0000 0.04420  0.68630  0.44210  Biso   1.000  H
  H44      1.0000 0.84740  0.06540  0.29560  Biso   1.000  H
  H45      1.0000 0.87840  0.08510  0.37010  Biso   1.000  H
  H46      1.0000 0.97730  0.08400  0.28440  Biso   1.000  H
  H47      1.0000 0.38610  0.94810  0.52750  Biso   1.000  H
  H48      1.0000 0.35660  0.00730  0.45890  Biso   1.000  H
  H49      1.0000 0.24300  0.00140  0.53560  Biso   1.000  H
  H50      1.0000 0.77800  0.85670  0.66970  Biso   1.000  H
  H51      1.0000 0.77560  0.80120  0.60700  Biso   1.000  H
  H52      1.0000 0.88180  0.77230  0.65090  Biso   1.000  H
  H53      1.0000 0.42410  0.30650  0.59150  Biso   1.000  H
  H54      1.0000 0.61170  0.40070  0.86150  Biso   1.000  H
  H55      1.0000 0.46840  0.39730  0.89370  Biso   1.000  H
  H56      1.0000 0.51370  0.44210  0.81370  Biso   1.000  H
  H57      1.0000 0.85700  0.29560  0.43460  Biso   1.000  H
  H58      1.0000 0.75150  0.37010  0.41490  Biso   1.000  H
  H59      1.0000 0.73830  0.28440  0.41600  Biso   1.000  H
  H60      1.0000 0.08640  0.52750  0.55190  Biso   1.000  H
  H61      1.0000 0.18450  0.45890  0.49270  Biso   1.000  H
  H62      1.0000 0.22140  0.53560  0.49860  Biso   1.000  H
  H63      1.0000 0.55230  0.66970  0.64330  Biso   1.000  H
  H64      1.0000 0.61740  0.60700  0.69880  Biso   1.000  H
  H65      1.0000 0.46730  0.65090  0.72770  Biso   1.000  H
  H66      1.0000 0.82210  0.19350  0.90850  Biso   1.000  H
  H67      1.0000 0.37390  0.09930  0.63850  Biso   1.000  H
  H68      1.0000 0.25940  0.10270  0.60630  Biso   1.000  H
  H69      1.0000 0.26950  0.05790  0.68630  Biso   1.000  H
  H70      1.0000 0.08720  0.20440  0.06540  Biso   1.000  H
  H71      1.0000 0.03650  0.12990  0.08510  Biso   1.000  H
  H72      1.0000 0.93870  0.21560  0.08400  Biso   1.000  H
  H73      1.0000 0.66580  0.97250  0.94810  Biso   1.000  H
  H74      1.0000 0.63610  0.04110  0.00730  Biso   1.000  H
  H75      1.0000 0.75560  0.96440  0.00140  Biso   1.000  H
  H76      1.0000 0.36530  0.83030  0.85670  Biso   1.000  H
  H77      1.0000 0.42320  0.89300  0.80120  Biso   1.000  H
  H78      1.0000 0.34590  0.84910  0.77230  Biso   1.000  H
  H79      1.0000 0.01560  0.40850  0.80650  Biso   1.000  H
  H80      1.0000 0.47320  0.13850  0.90070  Biso   1.000  H
  H81      1.0000 0.36210  0.10630  0.89730  Biso   1.000  H
  H82      1.0000 0.32740  0.18630  0.94210  Biso   1.000  H
  H83      1.0000 0.29160  0.56540  0.79560  Biso   1.000  H
  H84      1.0000 0.16640  0.58510  0.87010  Biso   1.000  H
  H85      1.0000 0.15430  0.58400  0.78440  Biso   1.000  H
  H86      1.0000 0.63830  0.44810  0.02750  Biso   1.000  H
  H87      1.0000 0.67720  0.50730  0.95890  Biso   1.000  H
  H88      1.0000 0.72000  0.50140  0.03560  Biso   1.000  H
  H89      1.0000 0.19560  0.35670  0.16970  Biso   1.000  H
  H90      1.0000 0.31620  0.30120  0.10700  Biso   1.000  H
  H91      1.0000 0.19500  0.27230  0.15090  Biso   1.000  H
  H92      1.0000 0.73060  0.09150  0.69350  Biso   1.000  H
  H93      1.0000 0.01240  0.36150  0.59930  Biso   1.000  H
  H94      1.0000 0.86570  0.39370  0.60270  Biso   1.000  H
  H95      1.0000 0.95580  0.31370  0.55790  Biso   1.000  H
  H96      1.0000 0.15260  0.93460  0.70440  Biso   1.000  H
  H97      1.0000 0.12160  0.91490  0.62990  Biso   1.000  H
  H98      1.0000 0.02270  0.91600  0.71560  Biso   1.000  H
  H99      1.0000 0.61390  0.05190  0.47250  Biso   1.000  H
  H100     1.0000 0.64340  0.99270  0.54110  Biso   1.000  H
  H101     1.0000 0.75700  0.99860  0.46440  Biso   1.000  H
  H102     1.0000 0.22200  0.14330  0.33030  Biso   1.000  H
  H103     1.0000 0.22440  0.19880  0.39300  Biso   1.000  H
  H104     1.0000 0.11820  0.22770  0.34910  Biso   1.000  H
  C1       1.0000 0.42000  0.67810  0.19890  Biso   1.000  C
  C2       1.0000 0.46010  0.60280  0.15340  Biso   1.000  C
  C3       1.0000 0.31120  0.67160  0.47140  Biso   1.000  C
  C4       1.0000 0.23400  0.68120  0.55960  Biso   1.000  C
  C5       1.0000 0.76430  0.53990  0.40790  Biso   1.000  C
  C6       1.0000 0.82320  0.50100  0.47200  Biso   1.000  C
  C7       1.0000 0.48280  0.43650  0.35330  Biso   1.000  C
  C8       1.0000 0.45930  0.37130  0.31770  Biso   1.000  C
  C9       1.0000 0.79700  0.82190  0.30110  Biso   1.000  C
  C10      1.0000 0.71630  0.89720  0.34660  Biso   1.000  C
  C11      1.0000 0.95420  0.82840  0.02860  Biso   1.000  C
  C12      1.0000 0.97480  0.81880  0.94040  Biso   1.000  C
  C13      1.0000 0.21210  0.96010  0.09210  Biso   1.000  C
  C14      1.0000 0.29620  0.99900  0.02800  Biso   1.000  C
  C15      1.0000 0.77260  0.06350  0.14670  Biso   1.000  C
  C16      1.0000 0.64830  0.12870  0.18230  Biso   1.000  C
  C17      1.0000 0.61890  0.80110  0.17810  Biso   1.000  C
  C18      1.0000 0.61350  0.84660  0.10280  Biso   1.000  C
  C19      1.0000 0.78260  0.52860  0.17160  Biso   1.000  C
  C20      1.0000 0.79360  0.44040  0.18120  Biso   1.000  C
  C21      1.0000 0.17220  0.59210  0.03990  Biso   1.000  C
  C22      1.0000 0.29520  0.52800  0.00100  Biso   1.000  C
  C23      1.0000 0.83610  0.64670  0.93650  Biso   1.000  C
  C24      1.0000 0.77700  0.68230  0.87130  Biso   1.000  C
  C25      1.0000 0.09810  0.69890  0.32190  Biso   1.000  C
  C26      1.0000 0.06290  0.65340  0.39720  Biso   1.000  C
  C27      1.0000 0.98280  0.97140  0.32840  Biso   1.000  C
  C28      1.0000 0.91520  0.05960  0.31880  Biso   1.000  C
  C29      1.0000 0.30420  0.90790  0.46010  Biso   1.000  C
  C30      1.0000 0.32420  0.97200  0.49900  Biso   1.000  C
  C31      1.0000 0.91930  0.85330  0.56350  Biso   1.000  C
  C32      1.0000 0.83060  0.81770  0.62870  Biso   1.000  C
  C33      1.0000 0.58000  0.32190  0.80110  Biso   1.000  C
  C34      1.0000 0.53990  0.39720  0.84660  Biso   1.000  C
  C35      1.0000 0.68880  0.32840  0.52860  Biso   1.000  C
  C36      1.0000 0.76600  0.31880  0.44040  Biso   1.000  C
  C37      1.0000 0.23570  0.46010  0.59210  Biso   1.000  C
  C38      1.0000 0.17680  0.49900  0.52800  Biso   1.000  C
  C39      1.0000 0.51720  0.56350  0.64670  Biso   1.000  C
  C40      1.0000 0.54070  0.62870  0.68230  Biso   1.000  C
  C41      1.0000 0.20300  0.17810  0.69890  Biso   1.000  C
  C42      1.0000 0.28370  0.10280  0.65340  Biso   1.000  C
  C43      1.0000 0.04580  0.17160  0.97140  Biso   1.000  C
  C44      1.0000 0.02520  0.18120  0.05960  Biso   1.000  C
  C45      1.0000 0.78790  0.03990  0.90790  Biso   1.000  C
  C46      1.0000 0.70380  0.00100  0.97200  Biso   1.000  C
  C47      1.0000 0.22740  0.93650  0.85330  Biso   1.000  C
  C48      1.0000 0.35170  0.87130  0.81770  Biso   1.000  C
  C49      1.0000 0.38110  0.19890  0.82190  Biso   1.000  C
  C50      1.0000 0.38650  0.15340  0.89720  Biso   1.000  C
  C51      1.0000 0.21740  0.47140  0.82840  Biso   1.000  C
  C52      1.0000 0.20640  0.55960  0.81880  Biso   1.000  C
  C53      1.0000 0.82780  0.40790  0.96010  Biso   1.000  C
  C54      1.0000 0.70480  0.47200  0.99900  Biso   1.000  C
  C55      1.0000 0.16390  0.35330  0.06350  Biso   1.000  C
  C56      1.0000 0.22300  0.31770  0.12870  Biso   1.000  C
  C57      1.0000 0.90190  0.30110  0.67810  Biso   1.000  C
  C58      1.0000 0.93710  0.34660  0.60280  Biso   1.000  C
  C59      1.0000 0.01720  0.02860  0.67160  Biso   1.000  C
  C60      1.0000 0.08480  0.94040  0.68120  Biso   1.000  C
  C61      1.0000 0.69580  0.09210  0.53990  Biso   1.000  C
  C62      1.0000 0.67580  0.02800  0.50100  Biso   1.000  C
  C63      1.0000 0.08070  0.14670  0.43650  Biso   1.000  C
  C64      1.0000 0.16940  0.18230  0.37130  Biso   1.000  C
  O1       1.0000 0.43821  0.67486  0.26672  Biso   1.000  O
  O2       1.0000 0.37150  0.74260  0.16800  Biso   1.000  O
  O3       1.0000 0.28880  0.72960  0.42580  Biso   1.000  O
  O4       1.0000 0.39630  0.60551  0.44669  Biso   1.000  O
  O5       1.0000 0.65760  0.52711  0.40829  Biso   1.000  O
  O6       1.0000 0.81850  0.58160  0.35780  Biso   1.000  O
  O7       1.0000 0.50210  0.49450  0.30870  Biso   1.000  O
  O8       1.0000 0.48000  0.42950  0.42510  Biso   1.000  O
  O9       1.0000 0.57621  0.69054  0.35344  Biso   1.000  O
  O10      1.0000 0.87979  0.82514  0.23328  Biso   1.000  O
  O11      1.0000 0.78210  0.75740  0.33200  Biso   1.000  O
  O12      1.0000 0.94420  0.77040  0.07420  Biso   1.000  O
  O13      1.0000 0.94850  0.89449  0.05331  Biso   1.000  O
  O14      1.0000 0.09300  0.97289  0.09171  Biso   1.000  O
  O15      1.0000 0.25790  0.91840  0.14220  Biso   1.000  O
  O16      1.0000 0.80530  0.00550  0.19130  Biso   1.000  O
  O17      1.0000 0.83460  0.07050  0.07490  Biso   1.000  O
  O18      1.0000 0.12019  0.80946  0.14656  Biso   1.000  O
  O19      1.0000 0.70493  0.73328  0.17486  Biso   1.000  O
  O20      1.0000 0.53950  0.83200  0.24260  Biso   1.000  O
  O21      1.0000 0.71460  0.57420  0.22960  Biso   1.000  O
  O22      1.0000 0.84299  0.55331  0.10551  Biso   1.000  O
  O23      1.0000 0.06589  0.59171  0.02711  Biso   1.000  O
  O24      1.0000 0.17630  0.64220  0.08160  Biso   1.000  O
  O25      1.0000 0.81080  0.69130  0.99450  Biso   1.000  O
  O26      1.0000 0.90510  0.57490  0.92950  Biso   1.000  O
  O27      1.0000 0.92965  0.64656  0.19054  Biso   1.000  O
  O28      1.0000 0.11307  0.76672  0.32514  Biso   1.000  O
  O29      1.0000 0.11410  0.66800  0.25740  Biso   1.000  O
  O30      1.0000 0.01840  0.92580  0.27040  Biso   1.000  O
  O31      1.0000 0.00181  0.94669  0.39449  Biso   1.000  O
  O32      1.0000 0.18471  0.90829  0.47289  Biso   1.000  O
  O33      1.0000 0.40010  0.85780  0.41840  Biso   1.000  O
  O34      1.0000 0.99660  0.80870  0.50550  Biso   1.000  O
  O35      1.0000 0.90950  0.92510  0.57050  Biso   1.000  O
  O36      1.0000 0.26675  0.85344  0.30946  Biso   1.000  O
  O37      1.0000 0.56179  0.32514  0.73328  Biso   1.000  O
  O38      1.0000 0.62850  0.25740  0.83200  Biso   1.000  O
  O39      1.0000 0.71120  0.27040  0.57420  Biso   1.000  O
  O40      1.0000 0.60370  0.39449  0.55331  Biso   1.000  O
  O41      1.0000 0.34240  0.47289  0.59171  Biso   1.000  O
  O42      1.0000 0.18150  0.41840  0.64220  Biso   1.000  O
  O43      1.0000 0.49790  0.50550  0.69130  Biso   1.000  O
  O44      1.0000 0.52000  0.57050  0.57490  Biso   1.000  O
  O45      1.0000 0.42379  0.30946  0.64656  Biso   1.000  O
  O46      1.0000 0.12021  0.17486  0.76672  Biso   1.000  O
  O47      1.0000 0.21790  0.24260  0.66800  Biso   1.000  O
  O48      1.0000 0.05580  0.22960  0.92580  Biso   1.000  O
  O49      1.0000 0.05150  0.10551  0.94669  Biso   1.000  O
  O50      1.0000 0.90700  0.02711  0.90829  Biso   1.000  O
  O51      1.0000 0.74210  0.08160  0.85780  Biso   1.000  O
  O52      1.0000 0.19470  0.99450  0.80870  Biso   1.000  O
  O53      1.0000 0.16540  0.92950  0.92510  Biso   1.000  O
  O54      1.0000 0.87981  0.19054  0.85344  Biso   1.000  O
  O55      1.0000 0.29507  0.26672  0.82514  Biso   1.000  O
  O56      1.0000 0.46050  0.16800  0.75740  Biso   1.000  O
  O57      1.0000 0.28540  0.42580  0.77040  Biso   1.000  O
  O58      1.0000 0.15701  0.44669  0.89449  Biso   1.000  O
  O59      1.0000 0.93411  0.40829  0.97289  Biso   1.000  O
  O60      1.0000 0.82370  0.35780  0.91840  Biso   1.000  O
  O61      1.0000 0.18920  0.30870  0.00550  Biso   1.000  O
  O62      1.0000 0.09490  0.42510  0.07050  Biso   1.000  O
  O63      1.0000 0.07035  0.35344  0.80946  Biso   1.000  O
  O64      1.0000 0.88693  0.23328  0.67486  Biso   1.000  O
  O65      1.0000 0.88590  0.33200  0.74260  Biso   1.000  O
  O66      1.0000 0.98160  0.07420  0.72960  Biso   1.000  O
  O67      1.0000 0.99819  0.05331  0.60551  Biso   1.000  O
  O68      1.0000 0.81529  0.09171  0.52711  Biso   1.000  O
  O69      1.0000 0.59990  0.14220  0.58160  Biso   1.000  O
  O70      1.0000 0.00340  0.19130  0.49450  Biso   1.000  O
  O71      1.0000 0.09050  0.07490  0.42950  Biso   1.000  O
  O72      1.0000 0.73325  0.14656  0.69054  Biso   1.000  O
