data_image0
_cell_length_a       14.669
_cell_length_b       16.6639
_cell_length_c       16.6639
_cell_angle_alpha    60.6724
_cell_angle_beta     63.887
_cell_angle_gamma    63.8871

_symmetry_space_group_name_H-M    P 1
_symmetry_int_tables_number       1

loop_
  _symmetry_equiv_pos_as_xyz
  'x, y, z'

loop_
  _atom_site_label
  _atom_site_occupancy
  _atom_site_fract_x
  _atom_site_fract_y
  _atom_site_fract_z
  _atom_site_thermal_displace_type
  _atom_site_B_iso_or_equiv
  _atom_site_type_symbol
  Cu1      1.0000 0.42720  0.04758  0.95242  Biso   1.000  Cu
  Cu2      1.0000 0.57280  0.95242  0.04758  Biso   1.000  Cu
  Cu3      1.0000 0.07280  0.54758  0.45242  Biso   1.000  Cu
  Cu4      1.0000 0.92720  0.45242  0.54758  Biso   1.000  Cu
  Cu5      1.0000 0.25000  0.55600  0.94400  Biso   1.000  Cu
  Cu6      1.0000 0.25000  0.94400  0.55600  Biso   1.000  Cu
  Cu7      1.0000 0.75000  0.44400  0.05600  Biso   1.000  Cu
  Cu8      1.0000 0.75000  0.05600  0.44400  Biso   1.000  Cu
  H1       1.0000 0.57350  0.44250  0.17730  Biso   1.000  H
  H2       1.0000 0.61800  0.49510  0.19210  Biso   1.000  H
  H3       1.0000 0.59660  0.66360  0.10320  Biso   1.000  H
  H4       1.0000 0.45640  0.51760  0.08520  Biso   1.000  H
  H5       1.0000 0.37150  0.80700  0.96760  Biso   1.000  H
  H6       1.0000 0.80670  0.17730  0.44250  Biso   1.000  H
  H7       1.0000 0.69480  0.19210  0.49510  Biso   1.000  H
  H8       1.0000 0.63660  0.10320  0.66360  Biso   1.000  H
  H9       1.0000 0.94080  0.08520  0.51760  Biso   1.000  H
  H10      1.0000 0.85390  0.96760  0.80700  Biso   1.000  H
  H11      1.0000 0.92650  0.32270  0.05750  Biso   1.000  H
  H12      1.0000 0.88200  0.30790  0.00490  Biso   1.000  H
  H13      1.0000 0.90340  0.39680  0.83640  Biso   1.000  H
  H14      1.0000 0.04360  0.41480  0.98240  Biso   1.000  H
  H15      1.0000 0.12850  0.53240  0.69300  Biso   1.000  H
  H16      1.0000 0.69330  0.05750  0.32270  Biso   1.000  H
  H17      1.0000 0.80520  0.00490  0.30790  Biso   1.000  H
  H18      1.0000 0.86340  0.83640  0.39680  Biso   1.000  H
  H19      1.0000 0.55920  0.98240  0.41480  Biso   1.000  H
  H20      1.0000 0.64610  0.69300  0.53240  Biso   1.000  H
  H21      1.0000 0.42650  0.55750  0.82270  Biso   1.000  H
  H22      1.0000 0.38200  0.50490  0.80790  Biso   1.000  H
  H23      1.0000 0.40340  0.33640  0.89680  Biso   1.000  H
  H24      1.0000 0.54360  0.48240  0.91480  Biso   1.000  H
  H25      1.0000 0.62850  0.19300  0.03240  Biso   1.000  H
  H26      1.0000 0.19330  0.82270  0.55750  Biso   1.000  H
  H27      1.0000 0.30520  0.80790  0.50490  Biso   1.000  H
  H28      1.0000 0.36340  0.89680  0.33640  Biso   1.000  H
  H29      1.0000 0.05920  0.91480  0.48240  Biso   1.000  H
  H30      1.0000 0.14610  0.03240  0.19300  Biso   1.000  H
  H31      1.0000 0.07350  0.67730  0.94250  Biso   1.000  H
  H32      1.0000 0.11800  0.69210  0.99510  Biso   1.000  H
  H33      1.0000 0.09660  0.60320  0.16360  Biso   1.000  H
  H34      1.0000 0.95640  0.58520  0.01760  Biso   1.000  H
  H35      1.0000 0.87150  0.46760  0.30700  Biso   1.000  H
  H36      1.0000 0.30670  0.94250  0.67730  Biso   1.000  H
  H37      1.0000 0.19480  0.99510  0.69210  Biso   1.000  H
  H38      1.0000 0.13660  0.16360  0.60320  Biso   1.000  H
  H39      1.0000 0.44080  0.01760  0.58520  Biso   1.000  H
  H40      1.0000 0.35390  0.30700  0.46760  Biso   1.000  H
  H41      1.0000 0.21980  0.04340  0.95660  Biso   1.000  H
  H42      1.0000 0.09520  0.12480  0.87520  Biso   1.000  H
  H43      1.0000 0.11890  0.26300  0.73700  Biso   1.000  H
  H44      1.0000 0.25900  0.31100  0.68900  Biso   1.000  H
  H45      1.0000 0.38110  0.22300  0.77700  Biso   1.000  H
  H46      1.0000 0.78020  0.95660  0.04340  Biso   1.000  H
  H47      1.0000 0.90480  0.87520  0.12480  Biso   1.000  H
  H48      1.0000 0.88110  0.73700  0.26300  Biso   1.000  H
  H49      1.0000 0.74100  0.68900  0.31100  Biso   1.000  H
  H50      1.0000 0.61890  0.77700  0.22300  Biso   1.000  H
  H51      1.0000 0.28020  0.54340  0.45660  Biso   1.000  H
  H52      1.0000 0.40480  0.62480  0.37520  Biso   1.000  H
  H53      1.0000 0.38110  0.76300  0.23700  Biso   1.000  H
  H54      1.0000 0.24100  0.81100  0.18900  Biso   1.000  H
  H55      1.0000 0.11890  0.72300  0.27700  Biso   1.000  H
  H56      1.0000 0.71980  0.45660  0.54340  Biso   1.000  H
  H57      1.0000 0.59520  0.37520  0.62480  Biso   1.000  H
  H58      1.0000 0.61890  0.23700  0.76300  Biso   1.000  H
  H59      1.0000 0.75900  0.18900  0.81100  Biso   1.000  H
  H60      1.0000 0.88110  0.27700  0.72300  Biso   1.000  H
  C1       1.0000 0.32590  0.66160  0.98380  Biso   1.000  C
  C2       1.0000 0.48690  0.75010  0.03190  Biso   1.000  C
  C3       1.0000 0.54810  0.66330  0.08170  Biso   1.000  C
  C4       1.0000 0.53890  0.57700  0.10000  Biso   1.000  C
  C5       1.0000 0.46500  0.57580  0.07060  Biso   1.000  C
  C6       1.0000 0.40340  0.66150  0.01950  Biso   1.000  C
  C7       1.0000 0.41360  0.74950  0.00070  Biso   1.000  C
  C8       1.0000 0.49470  0.84420  0.01520  Biso   1.000  C
  C9       1.0000 0.02870  0.98380  0.66160  Biso   1.000  C
  C10      1.0000 0.73110  0.03190  0.75010  Biso   1.000  C
  C11      1.0000 0.70690  0.08170  0.66330  Biso   1.000  C
  C12      1.0000 0.78410  0.10000  0.57700  Biso   1.000  C
  C13      1.0000 0.88860  0.07060  0.57580  Biso   1.000  C
  C14      1.0000 0.91560  0.01950  0.66150  Biso   1.000  C
  C15      1.0000 0.83620  0.00070  0.74950  Biso   1.000  C
  C16      1.0000 0.64590  0.01520  0.84420  Biso   1.000  C
  C17      1.0000 0.17410  0.51620  0.83840  Biso   1.000  C
  C18      1.0000 0.01310  0.46810  0.74990  Biso   1.000  C
  C19      1.0000 0.95190  0.41830  0.83670  Biso   1.000  C
  C20      1.0000 0.96110  0.40000  0.92300  Biso   1.000  C
  C21      1.0000 0.03500  0.42940  0.92420  Biso   1.000  C
  C22      1.0000 0.09660  0.48050  0.83850  Biso   1.000  C
  C23      1.0000 0.08640  0.49930  0.75050  Biso   1.000  C
  C24      1.0000 0.00530  0.48480  0.65580  Biso   1.000  C
  C25      1.0000 0.47130  0.83840  0.51620  Biso   1.000  C
  C26      1.0000 0.76890  0.74990  0.46810  Biso   1.000  C
  C27      1.0000 0.79310  0.83670  0.41830  Biso   1.000  C
  C28      1.0000 0.71590  0.92300  0.40000  Biso   1.000  C
  C29      1.0000 0.61140  0.92420  0.42940  Biso   1.000  C
  C30      1.0000 0.58440  0.83850  0.48050  Biso   1.000  C
  C31      1.0000 0.66380  0.75050  0.49930  Biso   1.000  C
  C32      1.0000 0.85410  0.65580  0.48480  Biso   1.000  C
  C33      1.0000 0.67410  0.33840  0.01620  Biso   1.000  C
  C34      1.0000 0.51310  0.24990  0.96810  Biso   1.000  C
  C35      1.0000 0.45190  0.33670  0.91830  Biso   1.000  C
  C36      1.0000 0.46110  0.42300  0.90000  Biso   1.000  C
  C37      1.0000 0.53500  0.42420  0.92940  Biso   1.000  C
  C38      1.0000 0.59660  0.33850  0.98050  Biso   1.000  C
  C39      1.0000 0.58640  0.25050  0.99930  Biso   1.000  C
  C40      1.0000 0.50530  0.15580  0.98480  Biso   1.000  C
  C41      1.0000 0.97130  0.01620  0.33840  Biso   1.000  C
  C42      1.0000 0.26890  0.96810  0.24990  Biso   1.000  C
  C43      1.0000 0.29310  0.91830  0.33670  Biso   1.000  C
  C44      1.0000 0.21590  0.90000  0.42300  Biso   1.000  C
  C45      1.0000 0.11140  0.92940  0.42420  Biso   1.000  C
  C46      1.0000 0.08440  0.98050  0.33850  Biso   1.000  C
  C47      1.0000 0.16380  0.99930  0.25050  Biso   1.000  C
  C48      1.0000 0.35410  0.98480  0.15580  Biso   1.000  C
  C49      1.0000 0.82590  0.48380  0.16160  Biso   1.000  C
  C50      1.0000 0.98690  0.53190  0.25010  Biso   1.000  C
  C51      1.0000 0.04810  0.58170  0.16330  Biso   1.000  C
  C52      1.0000 0.03890  0.60000  0.07700  Biso   1.000  C
  C53      1.0000 0.96500  0.57060  0.07580  Biso   1.000  C
  C54      1.0000 0.90340  0.51950  0.16150  Biso   1.000  C
  C55      1.0000 0.91360  0.50070  0.24950  Biso   1.000  C
  C56      1.0000 0.99470  0.51520  0.34420  Biso   1.000  C
  C57      1.0000 0.52870  0.16160  0.48380  Biso   1.000  C
  C58      1.0000 0.23110  0.25010  0.53190  Biso   1.000  C
  C59      1.0000 0.20690  0.16330  0.58170  Biso   1.000  C
  C60      1.0000 0.28410  0.07700  0.60000  Biso   1.000  C
  C61      1.0000 0.38860  0.07580  0.57060  Biso   1.000  C
  C62      1.0000 0.41560  0.16150  0.51950  Biso   1.000  C
  C63      1.0000 0.33620  0.24950  0.50070  Biso   1.000  C
  C64      1.0000 0.14590  0.34420  0.51520  Biso   1.000  C
  C65      1.0000 0.22840  0.09810  0.90190  Biso   1.000  C
  C66      1.0000 0.15380  0.14590  0.85410  Biso   1.000  C
  C67      1.0000 0.16850  0.22850  0.77150  Biso   1.000  C
  C68      1.0000 0.24880  0.25640  0.74360  Biso   1.000  C
  C69      1.0000 0.32230  0.20230  0.79770  Biso   1.000  C
  C70      1.0000 0.77160  0.90190  0.09810  Biso   1.000  C
  C71      1.0000 0.84620  0.85410  0.14590  Biso   1.000  C
  C72      1.0000 0.83150  0.77150  0.22850  Biso   1.000  C
  C73      1.0000 0.75120  0.74360  0.25640  Biso   1.000  C
  C74      1.0000 0.67770  0.79770  0.20230  Biso   1.000  C
  C75      1.0000 0.27160  0.59810  0.40190  Biso   1.000  C
  C76      1.0000 0.34620  0.64590  0.35410  Biso   1.000  C
  C77      1.0000 0.33150  0.72850  0.27150  Biso   1.000  C
  C78      1.0000 0.25120  0.75640  0.24360  Biso   1.000  C
  C79      1.0000 0.17770  0.70230  0.29770  Biso   1.000  C
  C80      1.0000 0.72840  0.40190  0.59810  Biso   1.000  C
  C81      1.0000 0.65380  0.35410  0.64590  Biso   1.000  C
  C82      1.0000 0.66850  0.27150  0.72850  Biso   1.000  C
  C83      1.0000 0.74880  0.24360  0.75640  Biso   1.000  C
  C84      1.0000 0.82230  0.29770  0.70230  Biso   1.000  C
  N1       1.0000 0.60660  0.48850  0.14710  Biso   1.000  N
  N2       1.0000 0.75780  0.14710  0.48850  Biso   1.000  N
  N3       1.0000 0.89340  0.35290  0.01150  Biso   1.000  N
  N4       1.0000 0.74220  0.01150  0.35290  Biso   1.000  N
  N5       1.0000 0.39340  0.51150  0.85290  Biso   1.000  N
  N6       1.0000 0.24220  0.85290  0.51150  Biso   1.000  N
  N7       1.0000 0.10660  0.64710  0.98850  Biso   1.000  N
  N8       1.0000 0.25780  0.98850  0.64710  Biso   1.000  N
  N9       1.0000 0.31350  0.12610  0.87390  Biso   1.000  N
  N10      1.0000 0.68650  0.87390  0.12610  Biso   1.000  N
  N11      1.0000 0.18650  0.62610  0.37390  Biso   1.000  N
  N12      1.0000 0.81350  0.37390  0.62610  Biso   1.000  N
  O1       1.0000 0.32280  0.58270  0.99730  Biso   1.000  O
  O2       1.0000 0.43780  0.91910  0.97130  Biso   1.000  O
  O3       1.0000 0.55840  0.83950  0.04970  Biso   1.000  O
  O4       1.0000 0.26800  0.73930  0.94270  Biso   1.000  O
  O5       1.0000 0.09720  0.99730  0.58270  Biso   1.000  O
  O6       1.0000 0.67180  0.97130  0.91910  Biso   1.000  O
  O7       1.0000 0.55240  0.04970  0.83950  Biso   1.000  O
  O8       1.0000 0.05000  0.94270  0.73930  Biso   1.000  O
  O9       1.0000 0.17720  0.50270  0.91730  Biso   1.000  O
  O10      1.0000 0.06220  0.52870  0.58090  Biso   1.000  O
  O11      1.0000 0.94160  0.45030  0.66050  Biso   1.000  O
  O12      1.0000 0.23200  0.55730  0.76070  Biso   1.000  O
  O13      1.0000 0.40280  0.91730  0.50270  Biso   1.000  O
  O14      1.0000 0.82820  0.58090  0.52870  Biso   1.000  O
  O15      1.0000 0.94760  0.66050  0.45030  Biso   1.000  O
  O16      1.0000 0.45000  0.76070  0.55730  Biso   1.000  O
  O17      1.0000 0.67720  0.41730  0.00270  Biso   1.000  O
  O18      1.0000 0.56220  0.08090  0.02870  Biso   1.000  O
  O19      1.0000 0.44160  0.16050  0.95030  Biso   1.000  O
  O20      1.0000 0.73200  0.26070  0.05730  Biso   1.000  O
  O21      1.0000 0.90280  0.00270  0.41730  Biso   1.000  O
  O22      1.0000 0.32820  0.02870  0.08090  Biso   1.000  O
  O23      1.0000 0.44760  0.95030  0.16050  Biso   1.000  O
  O24      1.0000 0.95000  0.05730  0.26070  Biso   1.000  O
  O25      1.0000 0.82280  0.49730  0.08270  Biso   1.000  O
  O26      1.0000 0.93780  0.47130  0.41910  Biso   1.000  O
  O27      1.0000 0.05840  0.54970  0.33950  Biso   1.000  O
  O28      1.0000 0.76800  0.44270  0.23930  Biso   1.000  O
  O29      1.0000 0.59720  0.08270  0.49730  Biso   1.000  O
  O30      1.0000 0.17180  0.41910  0.47130  Biso   1.000  O
  O31      1.0000 0.05240  0.33950  0.54970  Biso   1.000  O
  O32      1.0000 0.55000  0.23930  0.44270  Biso   1.000  O
