data_CITZIP_clean\(2)
_audit_creation_date              2015-08-07
_audit_creation_method            'Materials Studio'
_symmetry_space_group_name_H-M    'P1'
_symmetry_Int_Tables_number       1
_symmetry_cell_setting            triclinic
loop_
_symmetry_equiv_pos_as_xyz
  x,y,z
_cell_length_a                    10.8123
_cell_length_b                    11.1357
_cell_length_c                    11.1357
_cell_angle_alpha                 103.7080
_cell_angle_beta                  102.1570
_cell_angle_gamma                 77.8431
loop_
_atom_site_label
_atom_site_type_symbol
_atom_site_fract_x
_atom_site_fract_y
_atom_site_fract_z
_atom_site_U_iso_or_equiv
_atom_site_adp_type
_atom_site_occupancy
Co1    Co    0.93187   0.07331   0.90183   0.01267  Uiso   1.00
Co2    Co    0.56549   0.89997   0.07478   0.01267  Uiso   1.00
Co3    Co    0.06553   0.92614   0.10077   0.01267  Uiso   1.00
Co4    Co    0.43148   0.09923   0.92732   0.01267  Uiso   1.00
Co5    Co    0.74863   0.91513   0.91664   0.01267  Uiso   1.00
Co6    Co    0.24814   0.08417   0.08554   0.01267  Uiso   1.00
H7     H     0.94002   0.53083   0.87271   0.01267  Uiso   1.00
H8     H     0.03061   0.30761   0.85623   0.01267  Uiso   1.00
H9     H     0.60267   0.46369   0.97938   0.01267  Uiso   1.00
H10    H     0.55726   0.87136   0.53251   0.01267  Uiso   1.00
H11    H     0.46654   0.85485   0.30927   0.01267  Uiso   1.00
H12    H     0.89461   0.97778   0.46511   0.01267  Uiso   1.00
H13    H     0.05700   0.46853   0.12937   0.01267  Uiso   1.00
H14    H     0.96646   0.69176   0.14585   0.01267  Uiso   1.00
H15    H     0.39432   0.53558   0.02256   0.01267  Uiso   1.00
H16    H     0.43997   0.12787   0.46977   0.01267  Uiso   1.00
H17    H     0.53059   0.14439   0.69301   0.01267  Uiso   1.00
H18    H     0.10260   0.02132   0.53705   0.01267  Uiso   1.00
C19    C     0.88378   0.47036   0.89256   0.01267  Uiso   1.00
C20    C     0.93665   0.34038   0.88225   0.01267  Uiso   1.00
C21    C     0.76549   0.52417   0.93445   0.01267  Uiso   1.00
C22    C     0.69591   0.43191   0.95178   0.01267  Uiso   1.00
C23    C     0.72303   0.67339   0.95749   0.01267  Uiso   1.00
C24    C     0.74895   0.29717   0.93262   0.01267  Uiso   1.00
C25    C     0.68531   0.18798   0.94290   0.01267  Uiso   1.00
C26    C     0.61347   0.89117   0.47199   0.01267  Uiso   1.00
C27    C     0.56051   0.88087   0.34202   0.01267  Uiso   1.00
C28    C     0.73186   0.93292   0.52573   0.01267  Uiso   1.00
C29    C     0.80134   0.95025   0.43341   0.01267  Uiso   1.00
C30    C     0.77451   0.95582   0.67495   0.01267  Uiso   1.00
C31    C     0.74819   0.93116   0.29870   0.01267  Uiso   1.00
C32    C     0.81179   0.94147   0.18950   0.01267  Uiso   1.00
C33    C     0.11324   0.52897   0.10945   0.01267  Uiso   1.00
C34    C     0.06037   0.65894   0.11972   0.01267  Uiso   1.00
C35    C     0.23154   0.47512   0.06760   0.01267  Uiso   1.00
C36    C     0.30107   0.56737   0.05015   0.01267  Uiso   1.00
C37    C     0.27402   0.32587   0.04467   0.01267  Uiso   1.00
C38    C     0.24801   0.70212   0.06926   0.01267  Uiso   1.00
C39    C     0.31160   0.81136   0.05905   0.01267  Uiso   1.00
C40    C     0.38373   0.10805   0.53028   0.01267  Uiso   1.00
C41    C     0.43662   0.11837   0.66023   0.01267  Uiso   1.00
C42    C     0.26540   0.06625   0.47652   0.01267  Uiso   1.00
C43    C     0.19584   0.04890   0.56880   0.01267  Uiso   1.00
C44    C     0.22287   0.04326   0.32730   0.01267  Uiso   1.00
C45    C     0.24892   0.06805   0.70353   0.01267  Uiso   1.00
C46    C     0.18541   0.05775   0.81284   0.01267  Uiso   1.00
N47    N     0.87216   0.25718   0.90534   0.01267  Uiso   1.00
N48    N     0.62496   0.90389   0.25875   0.01267  Uiso   1.00
N49    N     0.12485   0.74213   0.09658   0.01267  Uiso   1.00
N50    N     0.37211   0.09535   0.74345   0.01267  Uiso   1.00
O51    O     0.94769   0.90548   0.93116   0.01267  Uiso   1.00
O52    O     0.77382   0.08113   0.95572   0.01267  Uiso   1.00
O53    O     0.56848   0.19043   0.93718   0.01267  Uiso   1.00
O54    O     0.76083   0.73897   0.89461   0.01267  Uiso   1.00
O55    O     0.65559   0.73306   0.04257   0.01267  Uiso   1.00
O56    O     0.54961   0.92947   0.90679   0.01267  Uiso   1.00
O57    O     0.72326   0.95437   0.08266   0.01267  Uiso   1.00
O58    O     0.92862   0.93575   0.19197   0.01267  Uiso   1.00
O59    O     0.73646   0.89311   0.74050   0.01267  Uiso   1.00
O60    O     0.84237   0.04059   0.73464   0.01267  Uiso   1.00
O61    O     0.04865   0.09527   0.07296   0.01267  Uiso   1.00
O62    O     0.22302   0.91826   0.04623   0.01267  Uiso   1.00
O63    O     0.42844   0.80888   0.06487   0.01267  Uiso   1.00
O64    O     0.23631   0.26033   0.10767   0.01267  Uiso   1.00
O65    O     0.34138   0.26614   0.95955   0.01267  Uiso   1.00
O66    O     0.44727   0.06966   0.09520   0.01267  Uiso   1.00
O67    O     0.27377   0.04486   0.91956   0.01267  Uiso   1.00
O68    O     0.06872   0.06360   0.81069   0.01267  Uiso   1.00
O69    O     0.26053   0.10620   0.26170   0.01267  Uiso   1.00
O70    O     0.15558   0.95810   0.26764   0.01267  Uiso   1.00
H71    H     0.48578   0.13675   0.15793   0.00000  Uiso   1.00
H72    H     0.51112   0.86235   0.84408   0.00000  Uiso   1.00
H73    H     0.98629   0.84282   0.86407   0.00000  Uiso   1.00
loop_
_geom_bond_atom_site_label_1
_geom_bond_atom_site_label_2
_geom_bond_distance
_geom_bond_site_symmetry_2
_ccdc_geom_bond_type
Co1    N47     2.007   .     S
Co1    O51     1.939   1_545 S
Co1    O52     1.906   .     S
Co1    O60     1.898   .     S
Co1    O61     2.045   1_656 S
Co1    O68     1.935   1_655 S
Co2    N48     2.007   .     S
Co2    O55     1.898   .     S
Co2    O56     1.941   1_554 S
Co2    O57     1.906   .     S
Co2    O63     1.936   .     S
Co2    O66     2.039   1_565 S
Co3    N49     2.007   .     S
Co3    O51     2.037   1_454 S
Co3    O58     1.936   1_455 S
Co3    O61     1.945   1_565 S
Co3    O62     1.904   .     S
Co3    O70     1.897   .     S
Co4    N50     2.006   .     S
Co4    O53     1.937   .     S
Co4    O56     2.039   1_545 S
Co4    O65     1.898   .     S
Co4    O66     1.941   1_556 S
Co4    O67     1.905   .     S
Co5    O51     2.106   .     S
Co5    O52     1.860   1_565 S
Co5    O54     1.898   .     S
Co5    O56     2.105   .     S
Co5    O57     1.861   1_556 S
Co5    O59     1.898   .     S
Co6    O61     2.111   .     S
Co6    O62     1.859   1_545 S
Co6    O64     1.898   .     S
Co6    O66     2.106   .     S
Co6    O67     1.862   1_554 S
Co6    O69     1.898   .     S
H7     C19     1.083   .     S
H8     C20     1.080   1_455 S
H9     C22     1.079   .     S
H10    C26     1.083   .     S
H11    C27     1.080   .     S
H12    C29     1.079   .     S
H13    C33     1.083   .     S
H14    C34     1.080   1_655 S
H15    C36     1.079   .     S
H16    C40     1.083   .     S
H17    C41     1.080   .     S
H18    C43     1.079   .     S
C19    C20     1.427   .     A
C19    C21     1.417   .     A
C20    H8      1.080   1_655 S
C20    N47     1.368   .     A
C21    C22     1.463   .     A
C21    C23     1.601   .     S
C22    C24     1.471   .     A
C23    O54     1.296   .     A
C23    O55     1.288   1_556 A
C24    C25     1.555   .     S
C24    N47     1.386   .     A
C25    O52     1.377   .     S
C25    O53     1.246   .     D
C26    C27     1.427   .     A
C26    C28     1.417   .     A
C27    N48     1.368   .     A
C28    C29     1.462   .     A
C28    C30     1.602   .     S
C29    C31     1.471   .     A
C30    O59     1.296   .     A
C30    O60     1.288   1_565 A
C31    C32     1.554   .     S
C31    N48     1.386   .     A
C32    O57     1.377   .     S
C32    O58     1.246   .     D
C33    C34     1.427   .     A
C33    C35     1.417   .     A
C34    H14     1.080   1_455 S
C34    N49     1.368   .     A
C35    C36     1.463   .     A
C35    C37     1.602   .     S
C36    C38     1.471   .     A
C37    O64     1.296   .     A
C37    O65     1.288   1_554 A
C38    C39     1.554   .     S
C38    N49     1.386   .     A
C39    O62     1.377   .     S
C39    O63     1.246   .     D
C40    C41     1.426   .     A
C40    C42     1.417   .     A
C41    N50     1.368   .     A
C42    C43     1.463   .     A
C42    C44     1.601   .     S
C43    C45     1.471   .     A
C44    O69     1.296   .     A
C44    O70     1.288   1_545 A
C45    C46     1.555   .     S
C45    N50     1.386   .     A
C46    O67     1.375   .     S
C46    O68     1.245   .     D
O51    Co3     2.037   1_656 S
O51    Co1     1.939   1_565 S
O51    H73     0.990   .     S
O52    Co5     1.860   1_545 S
O55    C23     1.288   1_554 A
O56    Co2     1.941   1_556 S
O56    Co4     2.039   1_565 S
O56    H72     0.990   .     S
O57    Co5     1.861   1_554 S
O58    Co3     1.936   1_655 S
O60    C30     1.288   1_545 A
O61    Co3     1.945   1_545 S
O61    Co1     2.045   1_454 S
O62    Co6     1.859   1_565 S
O65    C37     1.288   1_556 A
O66    Co4     1.941   1_554 S
O66    Co2     2.039   1_545 S
O66    H71     0.990   .     S
O67    Co6     1.862   1_556 S
O68    Co1     1.935   1_455 S
O70    C44     1.288   1_565 A
