data_image0
_cell_length_a       12.2342
_cell_length_b       13.9583
_cell_length_c       19.6064
_cell_angle_alpha    83.8179
_cell_angle_beta     75.7751
_cell_angle_gamma    64.0082

_symmetry_space_group_name_H-M    P 1
_symmetry_int_tables_number       1

loop_
  _symmetry_equiv_pos_as_xyz
  'x, y, z'

loop_
  _atom_site_label
  _atom_site_occupancy
  _atom_site_fract_x
  _atom_site_fract_y
  _atom_site_fract_z
  _atom_site_thermal_displace_type
  _atom_site_B_iso_or_equiv
  _atom_site_type_symbol
  Cu1      1.0000 0.69679  0.44396  0.96223  Biso   1.000  Cu
  Cu2      1.0000 0.85925  0.44396  0.53777  Biso   1.000  Cu
  Cu3      1.0000 0.30321  0.55604  0.03777  Biso   1.000  Cu
  Cu4      1.0000 0.14075  0.55604  0.46223  Biso   1.000  Cu
  H1       1.0000 0.62140  0.75660  0.87190  Biso   1.000  H
  H2       1.0000 0.54250  0.93160  0.83160  Biso   1.000  H
  H3       1.0000 0.19880  0.93980  0.86640  Biso   1.000  H
  H4       1.0000 0.27780  0.76420  0.90830  Biso   1.000  H
  H5       1.0000 0.97770  0.38340  0.76900  Biso   1.000  H
  H6       1.0000 0.85660  0.46960  0.68630  Biso   1.000  H
  H7       1.0000 0.09100  0.24660  0.54560  Biso   1.000  H
  H8       1.0000 0.21260  0.15700  0.62510  Biso   1.000  H
  H9       1.0000 0.33100  0.41200  0.80840  Biso   1.000  H
  H10      1.0000 0.33590  0.52920  0.88230  Biso   1.000  H
  H11      1.0000 0.19340  0.40840  0.04890  Biso   1.000  H
  H12      1.0000 0.18040  0.28920  0.98200  Biso   1.000  H
  H13      1.0000 0.62200  0.75660  0.62810  Biso   1.000  H
  H14      1.0000 0.52590  0.93160  0.66840  Biso   1.000  H
  H15      1.0000 0.86140  0.93980  0.63360  Biso   1.000  H
  H16      1.0000 0.95800  0.76420  0.59170  Biso   1.000  H
  H17      1.0000 0.63890  0.38340  0.73100  Biso   1.000  H
  H18      1.0000 0.67380  0.46960  0.81370  Biso   1.000  H
  H19      1.0000 0.66240  0.24660  0.95440  Biso   1.000  H
  H20      1.0000 0.63040  0.15700  0.87490  Biso   1.000  H
  H21      1.0000 0.25700  0.41200  0.69160  Biso   1.000  H
  H22      1.0000 0.13490  0.52920  0.61770  Biso   1.000  H
  H23      1.0000 0.39820  0.40840  0.45110  Biso   1.000  H
  H24      1.0000 0.53040  0.28920  0.51800  Biso   1.000  H
  H25      1.0000 0.37860  0.24340  0.12810  Biso   1.000  H
  H26      1.0000 0.45750  0.06840  0.16840  Biso   1.000  H
  H27      1.0000 0.80120  0.06020  0.13360  Biso   1.000  H
  H28      1.0000 0.72220  0.23580  0.09170  Biso   1.000  H
  H29      1.0000 0.02230  0.61660  0.23100  Biso   1.000  H
  H30      1.0000 0.14340  0.53040  0.31370  Biso   1.000  H
  H31      1.0000 0.90900  0.75340  0.45440  Biso   1.000  H
  H32      1.0000 0.78740  0.84300  0.37490  Biso   1.000  H
  H33      1.0000 0.66900  0.58800  0.19160  Biso   1.000  H
  H34      1.0000 0.66410  0.47080  0.11770  Biso   1.000  H
  H35      1.0000 0.80660  0.59160  0.95110  Biso   1.000  H
  H36      1.0000 0.81960  0.71080  0.01800  Biso   1.000  H
  H37      1.0000 0.37800  0.24340  0.37190  Biso   1.000  H
  H38      1.0000 0.47410  0.06840  0.33160  Biso   1.000  H
  H39      1.0000 0.13860  0.06020  0.36640  Biso   1.000  H
  H40      1.0000 0.04200  0.23580  0.40830  Biso   1.000  H
  H41      1.0000 0.36110  0.61660  0.26900  Biso   1.000  H
  H42      1.0000 0.32620  0.53040  0.18630  Biso   1.000  H
  H43      1.0000 0.33760  0.75340  0.04560  Biso   1.000  H
  H44      1.0000 0.36960  0.84300  0.12510  Biso   1.000  H
  H45      1.0000 0.74300  0.58800  0.30840  Biso   1.000  H
  H46      1.0000 0.86510  0.47080  0.38230  Biso   1.000  H
  H47      1.0000 0.60180  0.59160  0.54890  Biso   1.000  H
  H48      1.0000 0.46960  0.71080  0.48200  Biso   1.000  H
  C1       1.0000 0.50413  0.63034  0.92180  Biso   1.000  C
  C2       1.0000 0.45607  0.74306  0.89340  Biso   1.000  C
  C3       1.0000 0.53550  0.79380  0.87100  Biso   1.000  C
  C4       1.0000 0.48820  0.89780  0.84760  Biso   1.000  C
  C5       1.0000 0.36297  0.95366  0.84700  Biso   1.000  C
  C6       1.0000 0.28430  0.90320  0.86820  Biso   1.000  C
  C7       1.0000 0.33200  0.79800  0.89240  Biso   1.000  C
  C8       1.0000 0.30910  0.06840  0.82610  Biso   1.000  C
  C9       1.0000 0.24270  0.10600  0.77340  Biso   1.000  C
  C10      1.0000 0.18920  0.21480  0.75850  Biso   1.000  C
  C11      1.0000 0.25986  0.25228  0.84540  Biso   1.000  C
  C12      1.0000 0.31970  0.14380  0.86100  Biso   1.000  C
  C13      1.0000 0.40950  0.11020  0.90490  Biso   1.000  C
  C14      1.0000 0.25310  0.02520  0.72800  Biso   1.000  C
  C15      1.0000 0.11128  0.26324  0.70430  Biso   1.000  C
  C16      1.0000 0.00290  0.35500  0.72290  Biso   1.000  C
  C17      1.0000 0.93040  0.40580  0.67360  Biso   1.000  C
  C18      1.0000 0.06733  0.27534  0.59150  Biso   1.000  C
  C19      1.0000 0.14098  0.22224  0.63840  Biso   1.000  C
  C20      1.0000 0.25890  0.33540  0.88730  Biso   1.000  C
  C21      1.0000 0.30320  0.40860  0.85790  Biso   1.000  C
  C22      1.0000 0.30630  0.47780  0.90280  Biso   1.000  C
  C23      1.0000 0.22340  0.40780  0.99940  Biso   1.000  C
  C24      1.0000 0.21530  0.33660  0.96010  Biso   1.000  C
  C25      1.0000 0.86553  0.63034  0.57820  Biso   1.000  C
  C26      1.0000 0.80087  0.74306  0.60660  Biso   1.000  C
  C27      1.0000 0.67070  0.79380  0.62900  Biso   1.000  C
  C28      1.0000 0.61400  0.89780  0.65240  Biso   1.000  C
  C29      1.0000 0.68337  0.95366  0.65300  Biso   1.000  C
  C30      1.0000 0.81250  0.90320  0.63180  Biso   1.000  C
  C31      1.0000 0.87000  0.79800  0.60760  Biso   1.000  C
  C32      1.0000 0.62250  0.06840  0.67390  Biso   1.000  C
  C33      1.0000 0.65130  0.10600  0.72660  Biso   1.000  C
  C34      1.0000 0.59600  0.21480  0.74150  Biso   1.000  C
  C35      1.0000 0.48786  0.25228  0.65460  Biso   1.000  C
  C36      1.0000 0.53650  0.14380  0.63900  Biso   1.000  C
  C37      1.0000 0.48030  0.11020  0.59510  Biso   1.000  C
  C38      1.0000 0.72170  0.02520  0.77200  Biso   1.000  C
  C39      1.0000 0.62548  0.26324  0.79570  Biso   1.000  C
  C40      1.0000 0.64210  0.35500  0.77710  Biso   1.000  C
  C41      1.0000 0.66380  0.40580  0.82640  Biso   1.000  C
  C42      1.0000 0.65733  0.27534  0.90850  Biso   1.000  C
  C43      1.0000 0.63678  0.22224  0.86160  Biso   1.000  C
  C44      1.0000 0.40570  0.33540  0.61270  Biso   1.000  C
  C45      1.0000 0.28820  0.40860  0.64210  Biso   1.000  C
  C46      1.0000 0.21590  0.47780  0.59720  Biso   1.000  C
  C47      1.0000 0.36880  0.40780  0.50060  Biso   1.000  C
  C48      1.0000 0.44810  0.33660  0.53990  Biso   1.000  C
  C49      1.0000 0.49587  0.36966  0.07820  Biso   1.000  C
  C50      1.0000 0.54393  0.25694  0.10660  Biso   1.000  C
  C51      1.0000 0.46450  0.20620  0.12900  Biso   1.000  C
  C52      1.0000 0.51180  0.10220  0.15240  Biso   1.000  C
  C53      1.0000 0.63703  0.04634  0.15300  Biso   1.000  C
  C54      1.0000 0.71570  0.09680  0.13180  Biso   1.000  C
  C55      1.0000 0.66800  0.20200  0.10760  Biso   1.000  C
  C56      1.0000 0.69090  0.93160  0.17390  Biso   1.000  C
  C57      1.0000 0.75730  0.89400  0.22660  Biso   1.000  C
  C58      1.0000 0.81080  0.78520  0.24150  Biso   1.000  C
  C59      1.0000 0.74014  0.74772  0.15460  Biso   1.000  C
  C60      1.0000 0.68030  0.85620  0.13900  Biso   1.000  C
  C61      1.0000 0.59050  0.88980  0.09510  Biso   1.000  C
  C62      1.0000 0.74690  0.97480  0.27200  Biso   1.000  C
  C63      1.0000 0.88872  0.73676  0.29570  Biso   1.000  C
  C64      1.0000 0.99710  0.64500  0.27710  Biso   1.000  C
  C65      1.0000 0.06960  0.59420  0.32640  Biso   1.000  C
  C66      1.0000 0.93267  0.72466  0.40850  Biso   1.000  C
  C67      1.0000 0.85902  0.77776  0.36160  Biso   1.000  C
  C68      1.0000 0.74110  0.66460  0.11270  Biso   1.000  C
  C69      1.0000 0.69680  0.59140  0.14210  Biso   1.000  C
  C70      1.0000 0.69370  0.52220  0.09720  Biso   1.000  C
  C71      1.0000 0.77660  0.59220  0.00060  Biso   1.000  C
  C72      1.0000 0.78470  0.66340  0.03990  Biso   1.000  C
  C73      1.0000 0.13447  0.36966  0.42180  Biso   1.000  C
  C74      1.0000 0.19913  0.25694  0.39340  Biso   1.000  C
  C75      1.0000 0.32930  0.20620  0.37100  Biso   1.000  C
  C76      1.0000 0.38600  0.10220  0.34760  Biso   1.000  C
  C77      1.0000 0.31663  0.04634  0.34700  Biso   1.000  C
  C78      1.0000 0.18750  0.09680  0.36820  Biso   1.000  C
  C79      1.0000 0.13000  0.20200  0.39240  Biso   1.000  C
  C80      1.0000 0.37750  0.93160  0.32610  Biso   1.000  C
  C81      1.0000 0.34870  0.89400  0.27340  Biso   1.000  C
  C82      1.0000 0.40400  0.78520  0.25850  Biso   1.000  C
  C83      1.0000 0.51214  0.74772  0.34540  Biso   1.000  C
  C84      1.0000 0.46350  0.85620  0.36100  Biso   1.000  C
  C85      1.0000 0.51970  0.88980  0.40490  Biso   1.000  C
  C86      1.0000 0.27830  0.97480  0.22800  Biso   1.000  C
  C87      1.0000 0.37452  0.73676  0.20430  Biso   1.000  C
  C88      1.0000 0.35790  0.64500  0.22290  Biso   1.000  C
  C89      1.0000 0.33620  0.59420  0.17360  Biso   1.000  C
  C90      1.0000 0.34267  0.72466  0.09150  Biso   1.000  C
  C91      1.0000 0.36322  0.77776  0.13840  Biso   1.000  C
  C92      1.0000 0.59430  0.66460  0.38730  Biso   1.000  C
  C93      1.0000 0.71180  0.59140  0.35790  Biso   1.000  C
  C94      1.0000 0.78410  0.52220  0.40280  Biso   1.000  C
  C95      1.0000 0.63120  0.59220  0.49940  Biso   1.000  C
  C96      1.0000 0.55190  0.66340  0.46010  Biso   1.000  C
  N1       1.0000 0.19959  0.28622  0.79298  Biso   1.000  N
  N2       1.0000 0.47050  0.09180  0.94430  Biso   1.000  N
  N3       1.0000 0.25650  0.96340  0.69330  Biso   1.000  N
  N4       1.0000 0.96369  0.36562  0.60773  Biso   1.000  N
  N5       1.0000 0.27116  0.47648  0.97150  Biso   1.000  N
  N6       1.0000 0.93532  0.29996  0.93900  Biso   1.000  N
  N7       1.0000 0.51419  0.28622  0.70702  Biso   1.000  N
  N8       1.0000 0.43770  0.09180  0.55570  Biso   1.000  N
  N9       1.0000 0.78010  0.96340  0.80670  Biso   1.000  N
  N10      1.0000 0.67069  0.36562  0.89227  Biso   1.000  N
  N11      1.0000 0.25236  0.47648  0.52850  Biso   1.000  N
  N12      1.0000 0.76472  0.29996  0.56100  Biso   1.000  N
  N13      1.0000 0.80041  0.71378  0.20702  Biso   1.000  N
  N14      1.0000 0.52950  0.90820  0.05570  Biso   1.000  N
  N15      1.0000 0.74350  0.03660  0.30670  Biso   1.000  N
  N16      1.0000 0.03631  0.63438  0.39227  Biso   1.000  N
  N17      1.0000 0.72884  0.52352  0.02850  Biso   1.000  N
  N18      1.0000 0.06468  0.70004  0.06100  Biso   1.000  N
  N19      1.0000 0.48581  0.71378  0.29298  Biso   1.000  N
  N20      1.0000 0.56230  0.90820  0.44430  Biso   1.000  N
  N21      1.0000 0.21990  0.03660  0.19330  Biso   1.000  N
  N22      1.0000 0.32931  0.63438  0.10773  Biso   1.000  N
  N23      1.0000 0.74764  0.52352  0.47150  Biso   1.000  N
  N24      1.0000 0.23528  0.70004  0.43900  Biso   1.000  N
  O1       1.0000 0.62127  0.58206  0.91576  Biso   1.000  O
  O2       1.0000 0.42951  0.59298  0.94915  Biso   1.000  O
  O3       1.0000 0.83649  0.30482  0.98411  Biso   1.000  O
  O4       1.0000 0.03502  0.21956  0.93840  Biso   1.000  O
  O5       1.0000 0.92511  0.37578  0.89820  Biso   1.000  O
  O6       1.0000 0.79667  0.58206  0.58424  Biso   1.000  O
  O7       1.0000 0.97751  0.59298  0.55085  Biso   1.000  O
  O8       1.0000 0.85869  0.30482  0.51589  Biso   1.000  O
  O9       1.0000 0.74542  0.21956  0.56160  Biso   1.000  O
  O10      1.0000 0.69911  0.37578  0.60180  Biso   1.000  O
  O11      1.0000 0.37873  0.41794  0.08424  Biso   1.000  O
  O12      1.0000 0.57049  0.40702  0.05085  Biso   1.000  O
  O13      1.0000 0.16351  0.69518  0.01589  Biso   1.000  O
  O14      1.0000 0.96498  0.78044  0.06160  Biso   1.000  O
  O15      1.0000 0.07489  0.62422  0.10180  Biso   1.000  O
  O16      1.0000 0.20333  0.41794  0.41576  Biso   1.000  O
  O17      1.0000 0.02249  0.40702  0.44915  Biso   1.000  O
  O18      1.0000 0.14131  0.69518  0.48411  Biso   1.000  O
  O19      1.0000 0.25458  0.78044  0.43840  Biso   1.000  O
  O20      1.0000 0.30089  0.62422  0.39820  Biso   1.000  O
