data_image0
_cell_length_a       11.1389
_cell_length_b       11.2652
_cell_length_c       11.4139
_cell_angle_alpha    76.38
_cell_angle_beta     66.369
_cell_angle_gamma    78.964

_symmetry_space_group_name_H-M    P 1
_symmetry_int_tables_number       1

loop_
  _symmetry_equiv_pos_as_xyz
  'x, y, z'

loop_
  _atom_site_label
  _atom_site_occupancy
  _atom_site_fract_x
  _atom_site_fract_y
  _atom_site_fract_z
  _atom_site_thermal_displace_type
  _atom_site_B_iso_or_equiv
  _atom_site_type_symbol
  Co1      1.0000 0.47058  0.42902  0.28981  Biso   1.000  Co
  Co2      1.0000 0.60624  0.39083  0.49959  Biso   1.000  Co
  Co3      1.0000 0.49522  0.35896  0.00924  Biso   1.000  Co
  Co4      1.0000 0.52942  0.57098  0.71019  Biso   1.000  Co
  Co5      1.0000 0.39376  0.60917  0.50041  Biso   1.000  Co
  Co6      1.0000 0.50478  0.64104  0.99076  Biso   1.000  Co
  H1       1.0000 0.04490  0.41710  0.13950  Biso   1.000  H
  H2       1.0000 0.07710  0.35860  0.49130  Biso   1.000  H
  H3       1.0000 0.85340  0.33890  0.58810  Biso   1.000  H
  H4       1.0000 0.32420  0.87010  0.58850  Biso   1.000  H
  H5       1.0000 0.36140  0.07290  0.49190  Biso   1.000  H
  H6       1.0000 0.52890  0.96490  0.14260  Biso   1.000  H
  H7       1.0000 0.95510  0.58290  0.86050  Biso   1.000  H
  H8       1.0000 0.92290  0.64140  0.50870  Biso   1.000  H
  H9       1.0000 0.14660  0.66110  0.41190  Biso   1.000  H
  H10      1.0000 0.67580  0.12990  0.41150  Biso   1.000  H
  H11      1.0000 0.63860  0.92710  0.50810  Biso   1.000  H
  H12      1.0000 0.47110  0.03510  0.85740  Biso   1.000  H
  C1       1.0000 0.78070  0.41410  0.22580  Biso   1.000  C
  C2       1.0000 0.87340  0.39470  0.29690  Biso   1.000  C
  C3       1.0000 0.00740  0.40230  0.23170  Biso   1.000  C
  C4       1.0000 0.08630  0.38770  0.30470  Biso   1.000  C
  C5       1.0000 0.02660  0.36670  0.43910  Biso   1.000  C
  C6       1.0000 0.89270  0.35770  0.49610  Biso   1.000  C
  C7       1.0000 0.23130  0.40070  0.23890  Biso   1.000  C
  C8       1.0000 0.36630  0.88980  0.49670  Biso   1.000  C
  C9       1.0000 0.38910  0.01080  0.44000  Biso   1.000  C
  C10      1.0000 0.45280  0.03960  0.30680  Biso   1.000  C
  C11      1.0000 0.48540  0.16990  0.24240  Biso   1.000  C
  C12      1.0000 0.48730  0.94720  0.23450  Biso   1.000  C
  C13      1.0000 0.46040  0.82710  0.29810  Biso   1.000  C
  C14      1.0000 0.48950  0.72400  0.22640  Biso   1.000  C
  C15      1.0000 0.21930  0.58590  0.77420  Biso   1.000  C
  C16      1.0000 0.12660  0.60530  0.70310  Biso   1.000  C
  C17      1.0000 0.99260  0.59770  0.76830  Biso   1.000  C
  C18      1.0000 0.91370  0.61230  0.69530  Biso   1.000  C
  C19      1.0000 0.97340  0.63330  0.56090  Biso   1.000  C
  C20      1.0000 0.10730  0.64230  0.50390  Biso   1.000  C
  C21      1.0000 0.76870  0.59930  0.76110  Biso   1.000  C
  C22      1.0000 0.63370  0.11020  0.50330  Biso   1.000  C
  C23      1.0000 0.61090  0.98920  0.56000  Biso   1.000  C
  C24      1.0000 0.54720  0.96040  0.69320  Biso   1.000  C
  C25      1.0000 0.51460  0.83010  0.75760  Biso   1.000  C
  C26      1.0000 0.51270  0.05280  0.76550  Biso   1.000  C
  C27      1.0000 0.53960  0.17290  0.70190  Biso   1.000  C
  C28      1.0000 0.51050  0.27600  0.77360  Biso   1.000  C
  N1       1.0000 0.81590  0.37410  0.42750  Biso   1.000  N
  N2       1.0000 0.40130  0.80050  0.42740  Biso   1.000  N
  N3       1.0000 0.18410  0.62590  0.57250  Biso   1.000  N
  N4       1.0000 0.59870  0.19950  0.57260  Biso   1.000  N
  O1       1.0000 0.65950  0.40510  0.30120  Biso   1.000  O
  O2       1.0000 0.82150  0.43420  0.10750  Biso   1.000  O
  O3       1.0000 0.29300  0.36060  0.13480  Biso   1.000  O
  O4       1.0000 0.27680  0.45320  0.29590  Biso   1.000  O
  O5       1.0000 0.52900  0.19210  0.12120  Biso   1.000  O
  O6       1.0000 0.46320  0.24260  0.31750  Biso   1.000  O
  O7       1.0000 0.54250  0.74240  0.10510  Biso   1.000  O
  O8       1.0000 0.45450  0.62280  0.29860  Biso   1.000  O
  O9       1.0000 0.41830  0.42490  0.48830  Biso   1.000  O
  O10      1.0000 0.54940  0.47050  0.09470  Biso   1.000  O
  O11      1.0000 0.70020  0.32600  0.88060  Biso   1.000  O
  O12      1.0000 0.34050  0.59490  0.69880  Biso   1.000  O
  O13      1.0000 0.17850  0.56580  0.89250  Biso   1.000  O
  O14      1.0000 0.70700  0.63940  0.86520  Biso   1.000  O
  O15      1.0000 0.72320  0.54680  0.70410  Biso   1.000  O
  O16      1.0000 0.47100  0.80790  0.87880  Biso   1.000  O
  O17      1.0000 0.53680  0.75740  0.68250  Biso   1.000  O
  O18      1.0000 0.45750  0.25760  0.89490  Biso   1.000  O
  O19      1.0000 0.54550  0.37720  0.70140  Biso   1.000  O
  O20      1.0000 0.58170  0.57510  0.51170  Biso   1.000  O
  O21      1.0000 0.45060  0.52950  0.90530  Biso   1.000  O
  O22      1.0000 0.29980  0.67400  0.11940  Biso   1.000  O
