data_image0
_cell_length_a       17.314
_cell_length_b       5.3628
_cell_length_c       23.927
_cell_angle_alpha    90
_cell_angle_beta     133.577
_cell_angle_gamma    90

_symmetry_space_group_name_H-M    "P 1"
_symmetry_int_tables_number       1

loop_
  _symmetry_equiv_pos_as_xyz
  'x, y, z'

loop_
  _atom_site_label
  _atom_site_occupancy
  _atom_site_fract_x
  _atom_site_fract_y
  _atom_site_fract_z
  _atom_site_thermal_displace_type
  _atom_site_B_iso_or_equiv
  _atom_site_type_symbol
  O1       1.0000 0.60770  0.20140  0.56530  Biso   1.000  O
  O2       1.0000 0.91530  0.74670  0.94340  Biso   1.000  O
  N1       1.0000 0.89470  0.80400  0.63000  Biso   1.000  N
  N2       1.0000 0.55380  0.02000  0.45820  Biso   1.000  N
  H1       1.0000 0.50690  0.92430  0.41970  Biso   1.000  H
  N3       1.0000 0.87220  0.80360  0.74060  Biso   1.000  N
  N4       1.0000 0.89690  0.15440  0.91140  Biso   1.000  N
  H2       1.0000 0.92730  0.29800  0.92630  Biso   1.000  H
  C1       1.0000 0.90420  0.64430  0.59180  Biso   1.000  C
  H3       1.0000 0.96290  0.53840  0.62010  Biso   1.000  H
  C2       1.0000 0.83110  0.63050  0.51260  Biso   1.000  C
  H4       1.0000 0.84020  0.51670  0.48820  Biso   1.000  H
  C3       1.0000 0.74350  0.78830  0.46970  Biso   1.000  C
  H5       1.0000 0.69330  0.78170  0.41610  Biso   1.000  H
  C4       1.0000 0.73190  0.95430  0.50710  Biso   1.000  C
  C5       1.0000 0.80920  0.95600  0.58700  Biso   1.000  C
  H6       1.0000 0.80160  0.06870  0.61250  Biso   1.000  H
  C6       1.0000 0.63620  0.12350  0.46420  Biso   1.000  C
  H7       1.0000 0.65860  0.28250  0.49070  Biso   1.000  H
  H8       1.0000 0.60730  0.15360  0.41280  Biso   1.000  H
  C7       1.0000 0.54700  0.06470  0.50860  Biso   1.000  C
  C8       1.0000 0.79050  0.64700  0.69320  Biso   1.000  C
  H9       1.0000 0.79080  0.53940  0.66290  Biso   1.000  H
  C9       1.0000 0.70540  0.63850  0.68740  Biso   1.000  C
  H10      1.0000 0.64920  0.52900  0.65320  Biso   1.000  H
  C10      1.0000 0.70500  0.79380  0.73290  Biso   1.000  C
  H11      1.0000 0.64880  0.78880  0.73030  Biso   1.000  H
  C11      1.0000 0.78870  0.95720  0.78250  Biso   1.000  C
  C12      1.0000 0.87010  0.95700  0.78400  Biso   1.000  C
  H12      1.0000 0.92620  0.06860  0.81670  Biso   1.000  H
  C13      1.0000 0.79140  0.12860  0.83400  Biso   1.000  C
  H13      1.0000 0.76620  0.29210  0.81020  Biso   1.000  H
  H14      1.0000 0.74270  0.06520  0.83780  Biso   1.000  H
  C14      1.0000 0.94710  0.96430  0.95950  Biso   1.000  C
  O3       1.0000 0.39230  0.20140  0.93470  Biso   1.000  O
  O4       1.0000 0.08470  0.74670  0.55660  Biso   1.000  O
  N5       1.0000 0.10530  0.80400  0.87000  Biso   1.000  N
  N6       1.0000 0.44620  0.02000  0.04180  Biso   1.000  N
  H15      1.0000 0.49310  0.92430  0.08030  Biso   1.000  H
  N7       1.0000 0.12780  0.80360  0.75940  Biso   1.000  N
  N8       1.0000 0.10310  0.15440  0.58860  Biso   1.000  N
  H16      1.0000 0.07270  0.29800  0.57370  Biso   1.000  H
  C15      1.0000 0.09580  0.64430  0.90820  Biso   1.000  C
  H17      1.0000 0.03710  0.53840  0.87990  Biso   1.000  H
  C16      1.0000 0.16890  0.63050  0.98740  Biso   1.000  C
  H18      1.0000 0.15980  0.51670  0.01180  Biso   1.000  H
  C17      1.0000 0.25650  0.78830  0.03030  Biso   1.000  C
  H19      1.0000 0.30670  0.78170  0.08390  Biso   1.000  H
  C18      1.0000 0.26810  0.95430  0.99290  Biso   1.000  C
  C19      1.0000 0.19080  0.95600  0.91300  Biso   1.000  C
  H20      1.0000 0.19840  0.06870  0.88750  Biso   1.000  H
  C20      1.0000 0.36380  0.12350  0.03580  Biso   1.000  C
  H21      1.0000 0.34140  0.28250  0.00930  Biso   1.000  H
  H22      1.0000 0.39270  0.15360  0.08720  Biso   1.000  H
  C21      1.0000 0.45300  0.06470  0.99140  Biso   1.000  C
  C22      1.0000 0.20950  0.64700  0.80680  Biso   1.000  C
  H23      1.0000 0.20920  0.53940  0.83710  Biso   1.000  H
  C23      1.0000 0.29460  0.63850  0.81260  Biso   1.000  C
  H24      1.0000 0.35080  0.52900  0.84680  Biso   1.000  H
  C24      1.0000 0.29500  0.79380  0.76710  Biso   1.000  C
  H25      1.0000 0.35120  0.78880  0.76970  Biso   1.000  H
  C25      1.0000 0.21130  0.95720  0.71750  Biso   1.000  C
  C26      1.0000 0.12990  0.95700  0.71600  Biso   1.000  C
  H26      1.0000 0.07380  0.06860  0.68330  Biso   1.000  H
  C27      1.0000 0.20860  0.12860  0.66600  Biso   1.000  C
  H27      1.0000 0.23380  0.29210  0.68980  Biso   1.000  H
  H28      1.0000 0.25730  0.06520  0.66220  Biso   1.000  H
  C28      1.0000 0.05290  0.96430  0.54050  Biso   1.000  C
  O5       1.0000 0.39230  0.79860  0.43470  Biso   1.000  O
  O6       1.0000 0.08470  0.25330  0.05660  Biso   1.000  O
  N9       1.0000 0.10530  0.19600  0.37000  Biso   1.000  N
  N10      1.0000 0.44620  0.98000  0.54180  Biso   1.000  N
  H29      1.0000 0.49310  0.07570  0.58030  Biso   1.000  H
  N11      1.0000 0.12780  0.19640  0.25940  Biso   1.000  N
  N12      1.0000 0.10310  0.84560  0.08860  Biso   1.000  N
  H30      1.0000 0.07270  0.70200  0.07370  Biso   1.000  H
  C29      1.0000 0.09580  0.35570  0.40820  Biso   1.000  C
  H31      1.0000 0.03710  0.46160  0.37990  Biso   1.000  H
  C30      1.0000 0.16890  0.36950  0.48740  Biso   1.000  C
  H32      1.0000 0.15980  0.48330  0.51180  Biso   1.000  H
  C31      1.0000 0.25650  0.21170  0.53030  Biso   1.000  C
  H33      1.0000 0.30670  0.21830  0.58390  Biso   1.000  H
  C32      1.0000 0.26810  0.04570  0.49290  Biso   1.000  C
  C33      1.0000 0.19080  0.04400  0.41300  Biso   1.000  C
  H34      1.0000 0.19840  0.93130  0.38750  Biso   1.000  H
  C34      1.0000 0.36380  0.87650  0.53580  Biso   1.000  C
  H35      1.0000 0.34140  0.71750  0.50930  Biso   1.000  H
  H36      1.0000 0.39270  0.84640  0.58720  Biso   1.000  H
  C35      1.0000 0.45300  0.93530  0.49140  Biso   1.000  C
  C36      1.0000 0.20950  0.35300  0.30680  Biso   1.000  C
  H37      1.0000 0.20920  0.46060  0.33710  Biso   1.000  H
  C37      1.0000 0.29460  0.36150  0.31260  Biso   1.000  C
  H38      1.0000 0.35080  0.47100  0.34680  Biso   1.000  H
  C38      1.0000 0.29500  0.20620  0.26710  Biso   1.000  C
  H39      1.0000 0.35120  0.21120  0.26970  Biso   1.000  H
  C39      1.0000 0.21130  0.04280  0.21750  Biso   1.000  C
  C40      1.0000 0.12990  0.04300  0.21600  Biso   1.000  C
  H40      1.0000 0.07380  0.93140  0.18330  Biso   1.000  H
  C41      1.0000 0.20860  0.87140  0.16600  Biso   1.000  C
  H41      1.0000 0.23380  0.70790  0.18980  Biso   1.000  H
  H42      1.0000 0.25730  0.93480  0.16220  Biso   1.000  H
  C42      1.0000 0.05290  0.03570  0.04050  Biso   1.000  C
  O7       1.0000 0.60770  0.79860  0.06530  Biso   1.000  O
  O8       1.0000 0.91530  0.25330  0.44340  Biso   1.000  O
  N13      1.0000 0.89470  0.19600  0.13000  Biso   1.000  N
  N14      1.0000 0.55380  0.98000  0.95820  Biso   1.000  N
  H43      1.0000 0.50690  0.07570  0.91970  Biso   1.000  H
  N15      1.0000 0.87220  0.19640  0.24060  Biso   1.000  N
  N16      1.0000 0.89690  0.84560  0.41140  Biso   1.000  N
  H44      1.0000 0.92730  0.70200  0.42630  Biso   1.000  H
  C43      1.0000 0.90420  0.35570  0.09180  Biso   1.000  C
  H45      1.0000 0.96290  0.46160  0.12010  Biso   1.000  H
  C44      1.0000 0.83110  0.36950  0.01260  Biso   1.000  C
  H46      1.0000 0.84020  0.48330  0.98820  Biso   1.000  H
  C45      1.0000 0.74350  0.21170  0.96970  Biso   1.000  C
  H47      1.0000 0.69330  0.21830  0.91610  Biso   1.000  H
  C46      1.0000 0.73190  0.04570  0.00710  Biso   1.000  C
  C47      1.0000 0.80920  0.04400  0.08700  Biso   1.000  C
  H48      1.0000 0.80160  0.93130  0.11250  Biso   1.000  H
  C48      1.0000 0.63620  0.87650  0.96420  Biso   1.000  C
  H49      1.0000 0.65860  0.71750  0.99070  Biso   1.000  H
  H50      1.0000 0.60730  0.84640  0.91280  Biso   1.000  H
  C49      1.0000 0.54700  0.93530  0.00860  Biso   1.000  C
  C50      1.0000 0.79050  0.35300  0.19320  Biso   1.000  C
  H51      1.0000 0.79080  0.46060  0.16290  Biso   1.000  H
  C51      1.0000 0.70540  0.36150  0.18740  Biso   1.000  C
  H52      1.0000 0.64920  0.47100  0.15320  Biso   1.000  H
  C52      1.0000 0.70500  0.20620  0.23290  Biso   1.000  C
  H53      1.0000 0.64880  0.21120  0.23030  Biso   1.000  H
  C53      1.0000 0.78870  0.04280  0.28250  Biso   1.000  C
  C54      1.0000 0.87010  0.04300  0.28400  Biso   1.000  C
  H54      1.0000 0.92620  0.93140  0.31670  Biso   1.000  H
  C55      1.0000 0.79140  0.87140  0.33400  Biso   1.000  C
  H55      1.0000 0.76620  0.70790  0.31020  Biso   1.000  H
  H56      1.0000 0.74270  0.93480  0.33780  Biso   1.000  H
  C56      1.0000 0.94710  0.03570  0.45950  Biso   1.000  C
  Br1      1.0000 0.00000  0.30329  0.75000  Biso   1.000  Br
  Cu1      1.0000 0.00000  0.80431  0.75000  Biso   1.000  Cu
  Br2      1.0000 0.00000  0.69671  0.25000  Biso   1.000  Br
  Cu2      1.0000 0.00000  0.19569  0.25000  Biso   1.000  Cu
