data_cm1008587_si_003_freeONLY
_audit_creation_date              2015-08-19
_audit_creation_method            'Materials Studio'
_symmetry_space_group_name_H-M    'P1'
_symmetry_Int_Tables_number       1
_symmetry_cell_setting            triclinic
loop_
_symmetry_equiv_pos_as_xyz
  x,y,z
_cell_length_a                    6.8890
_cell_length_b                    11.1093
_cell_length_c                    11.1093
_cell_angle_alpha                 119.6040
_cell_angle_beta                  106.3460
_cell_angle_gamma                 73.6540
loop_
_atom_site_label
_atom_site_type_symbol
_atom_site_fract_x
_atom_site_fract_y
_atom_site_fract_z
_atom_site_U_iso_or_equiv
_atom_site_adp_type
_atom_site_occupancy
Fe1    Fe    0.00000   0.00000   0.00000   0.01267  Uiso   1.00
Fe2    Fe    0.50000   0.00000   0.00000   0.01267  Uiso   1.00
H1     H     0.21860   0.59910   0.95830   0.01267  Uiso   1.00
H2     H     0.65620   0.60880   0.01700   0.01267  Uiso   1.00
H3     H     0.15620   0.98300   0.39120   0.01267  Uiso   1.00
H4     H     0.71860   0.04170   0.40090   0.01267  Uiso   1.00
H5     H     0.78140   0.40090   0.04170   0.01267  Uiso   1.00
H6     H     0.34380   0.39120   0.98300   0.01267  Uiso   1.00
H7     H     0.84380   0.01700   0.60880   0.01267  Uiso   1.00
H8     H     0.28140   0.95830   0.59910   0.01267  Uiso   1.00
C1     C     0.79950   0.56350   0.00990   0.01267  Uiso   1.00
C2     C     0.20050   0.43650   0.99010   0.01267  Uiso   1.00
C3     C     0.92700   0.62120   0.98560   0.01267  Uiso   1.00
C4     C     0.65130   0.97020   0.75120   0.01267  Uiso   1.00
C5     C     0.29950   0.99010   0.43650   0.01267  Uiso   1.00
C6     C     0.70050   0.00990   0.56350   0.01267  Uiso   1.00
C7     C     0.07300   0.37880   0.01440   0.01267  Uiso   1.00
C8     C     0.15130   0.24880   0.02980   0.01267  Uiso   1.00
C9     C     0.84870   0.75120   0.97020   0.01267  Uiso   1.00
C10    C     0.12750   0.55770   0.97570   0.01267  Uiso   1.00
C11    C     0.57300   0.98560   0.62120   0.01267  Uiso   1.00
C12    C     0.37250   0.97570   0.55770   0.01267  Uiso   1.00
C13    C     0.34870   0.02980   0.24880   0.01267  Uiso   1.00
C14    C     0.62750   0.02430   0.44230   0.01267  Uiso   1.00
C15    C     0.42700   0.01440   0.37880   0.01267  Uiso   1.00
C16    C     0.87250   0.44230   0.02430   0.01267  Uiso   1.00
O1     O     0.96720   0.80520   0.94860   0.01267  Uiso   1.00
O2     O     0.83750   0.97860   0.80960   0.01267  Uiso   1.00
O3     O     0.16250   0.02140   0.19040   0.01267  Uiso   1.00
O4     O     0.25000   0.90920   0.90920   0.01267  Uiso   1.00
O5     O     0.66250   0.80960   0.97860   0.01267  Uiso   1.00
O6     O     0.53280   0.94860   0.80520   0.01267  Uiso   1.00
O7     O     0.46720   0.05140   0.19480   0.01267  Uiso   1.00
O8     O     0.75000   0.09080   0.09080   0.01267  Uiso   1.00
O9     O     0.03280   0.19480   0.05140   0.01267  Uiso   1.00
O10    O     0.33750   0.19040   0.02140   0.01267  Uiso   1.00
