data_cm202876r_si_002_freeONLY
_audit_creation_date              2015-08-19
_audit_creation_method            'Materials Studio'
_symmetry_space_group_name_H-M    'P1'
_symmetry_Int_Tables_number       1
_symmetry_cell_setting            triclinic
loop_
_symmetry_equiv_pos_as_xyz
  x,y,z
_cell_length_a                    10.8173
_cell_length_b                    13.5820
_cell_length_c                    14.7037
_cell_angle_alpha                 110.6280
_cell_angle_beta                  90.0000
_cell_angle_gamma                 90.0000
loop_
_atom_site_label
_atom_site_type_symbol
_atom_site_fract_x
_atom_site_fract_y
_atom_site_fract_z
_atom_site_U_iso_or_equiv
_atom_site_adp_type
_atom_site_occupancy
Co1    Co    0.09747   0.59060   0.53886   0.01267  Uiso   1.00
Co2    Co    0.98954   0.49590   0.70764   0.01267  Uiso   1.00
Co3    Co    0.90253   0.40940   0.46114   0.01267  Uiso   1.00
Co4    Co    0.51046   0.49590   0.20764   0.01267  Uiso   1.00
Co5    Co    0.48954   0.50410   0.79236   0.01267  Uiso   1.00
Co6    Co    0.59747   0.40940   0.96114   0.01267  Uiso   1.00
Co7    Co    0.40253   0.59060   0.03886   0.01267  Uiso   1.00
Co8    Co    0.01046   0.50410   0.29236   0.01267  Uiso   1.00
H1     H     0.66730   0.14970   0.78990   0.01267  Uiso   1.00
H2     H     0.06810   0.00110   0.71040   0.01267  Uiso   1.00
H3     H     0.95680   0.86010   0.34350   0.01267  Uiso   1.00
H4     H     0.37000   0.13890   0.85830   0.01267  Uiso   1.00
H5     H     0.13000   0.13890   0.35830   0.01267  Uiso   1.00
H6     H     0.56810   0.99890   0.78960   0.01267  Uiso   1.00
H7     H     0.87000   0.86110   0.64170   0.01267  Uiso   1.00
H8     H     0.64160   0.08850   0.99250   0.01267  Uiso   1.00
H9     H     0.68220   0.94960   0.04400   0.01267  Uiso   1.00
H10    H     0.83270   0.14970   0.28990   0.01267  Uiso   1.00
H11    H     0.16730   0.85030   0.71010   0.01267  Uiso   1.00
H12    H     0.31780   0.05040   0.95600   0.01267  Uiso   1.00
H13    H     0.04320   0.13990   0.65650   0.01267  Uiso   1.00
H14    H     0.81780   0.94960   0.54400   0.01267  Uiso   1.00
H15    H     0.45680   0.13990   0.15650   0.01267  Uiso   1.00
H16    H     0.35840   0.91150   0.00750   0.01267  Uiso   1.00
H17    H     0.63000   0.86110   0.14170   0.01267  Uiso   1.00
H18    H     0.33270   0.85030   0.21010   0.01267  Uiso   1.00
H19    H     0.43190   0.00110   0.21040   0.01267  Uiso   1.00
H20    H     0.54320   0.86010   0.84350   0.01267  Uiso   1.00
H21    H     0.93190   0.99890   0.28960   0.01267  Uiso   1.00
H22    H     0.14160   0.91150   0.50750   0.01267  Uiso   1.00
H23    H     0.18220   0.05040   0.45600   0.01267  Uiso   1.00
H24    H     0.85840   0.08850   0.49250   0.01267  Uiso   1.00
C1     C     0.20310   0.98240   0.41638   0.01267  Uiso   1.00
C2     C     0.80420   0.86131   0.68250   0.01267  Uiso   1.00
C3     C     0.16830   0.31475   0.68780   0.01267  Uiso   1.00
C4     C     0.75880   0.03451   0.17373   0.01267  Uiso   1.00
C5     C     0.22240   0.05413   0.79055   0.01267  Uiso   1.00
C6     C     0.89070   0.85985   0.30300   0.01267  Uiso   1.00
C7     C     0.19190   0.22447   0.72409   0.01267  Uiso   1.00
C8     C     0.38262   0.31118   0.81930   0.01267  Uiso   1.00
C9     C     0.61738   0.68882   0.18070   0.01267  Uiso   1.00
C10    C     0.70630   0.13720   0.73044   0.01267  Uiso   1.00
C11    C     0.17860   0.89893   0.44736   0.01267  Uiso   1.00
C12    C     0.77760   0.94587   0.20945   0.01267  Uiso   1.00
C13    C     0.70970   0.77689   0.21488   0.01267  Uiso   1.00
C14    C     0.66830   0.68525   0.81220   0.01267  Uiso   1.00
C15    C     0.24120   0.96549   0.82627   0.01267  Uiso   1.00
C16    C     0.66666   0.29640   0.08670   0.01267  Uiso   1.00
C17    C     0.27064   0.77948   0.30129   0.01267  Uiso   1.00
C18    C     0.20913   0.79687   0.38917   0.01267  Uiso   1.00
C19    C     0.83334   0.29640   0.58670   0.01267  Uiso   1.00
C20    C     0.31688   0.67148   0.24070   0.01267  Uiso   1.00
C21    C     0.32140   0.89893   0.94736   0.01267  Uiso   1.00
C22    C     0.82140   0.10107   0.55264   0.01267  Uiso   1.00
C23    C     0.72240   0.94587   0.70945   0.01267  Uiso   1.00
C24    C     0.69580   0.86131   0.18250   0.01267  Uiso   1.00
C25    C     0.29370   0.86280   0.26956   0.01267  Uiso   1.00
C26    C     0.88262   0.68882   0.68070   0.01267  Uiso   1.00
C27    C     0.27760   0.05413   0.29055   0.01267  Uiso   1.00
C28    C     0.29030   0.22311   0.78512   0.01267  Uiso   1.00
C29    C     0.81688   0.32852   0.25930   0.01267  Uiso   1.00
C30    C     0.33170   0.31475   0.18780   0.01267  Uiso   1.00
C31    C     0.39070   0.14015   0.19700   0.01267  Uiso   1.00
C32    C     0.67860   0.10107   0.05264   0.01267  Uiso   1.00
C33    C     0.37570   0.05643   0.22957   0.01267  Uiso   1.00
C34    C     0.30810   0.22447   0.22409   0.01267  Uiso   1.00
C35    C     0.62430   0.94357   0.77043   0.01267  Uiso   1.00
C36    C     0.29087   0.79687   0.88917   0.01267  Uiso   1.00
C37    C     0.11738   0.31118   0.31930   0.01267  Uiso   1.00
C38    C     0.18312   0.67148   0.74070   0.01267  Uiso   1.00
C39    C     0.79690   0.01760   0.58362   0.01267  Uiso   1.00
C40    C     0.79087   0.20313   0.61083   0.01267  Uiso   1.00
C41    C     0.20970   0.22311   0.28512   0.01267  Uiso   1.00
C42    C     0.30420   0.13869   0.81750   0.01267  Uiso   1.00
C43    C     0.10930   0.14015   0.69700   0.01267  Uiso   1.00
C44    C     0.19580   0.13869   0.31750   0.01267  Uiso   1.00
C45    C     0.12430   0.05643   0.72957   0.01267  Uiso   1.00
C46    C     0.87570   0.94357   0.27043   0.01267  Uiso   1.00
C47    C     0.83170   0.68525   0.31220   0.01267  Uiso   1.00
C48    C     0.79370   0.13720   0.23044   0.01267  Uiso   1.00
C49    C     0.20630   0.86280   0.76956   0.01267  Uiso   1.00
C50    C     0.74120   0.03451   0.67373   0.01267  Uiso   1.00
C51    C     0.16666   0.70360   0.41330   0.01267  Uiso   1.00
C52    C     0.70913   0.20313   0.11083   0.01267  Uiso   1.00
C53    C     0.68312   0.32852   0.75930   0.01267  Uiso   1.00
C54    C     0.22936   0.77948   0.80129   0.01267  Uiso   1.00
C55    C     0.79030   0.77689   0.71488   0.01267  Uiso   1.00
C56    C     0.60930   0.85985   0.80300   0.01267  Uiso   1.00
C57    C     0.70310   0.01760   0.08362   0.01267  Uiso   1.00
C58    C     0.69190   0.77553   0.77591   0.01267  Uiso   1.00
C59    C     0.80810   0.77553   0.27591   0.01267  Uiso   1.00
C60    C     0.29690   0.98240   0.91638   0.01267  Uiso   1.00
C61    C     0.25880   0.96549   0.32627   0.01267  Uiso   1.00
C62    C     0.77064   0.22052   0.19871   0.01267  Uiso   1.00
C63    C     0.33334   0.70360   0.91330   0.01267  Uiso   1.00
C64    C     0.72936   0.22052   0.69871   0.01267  Uiso   1.00
O1     O     0.40263   0.48142   0.65189   0.01267  Uiso   1.00
O2     O     0.59737   0.51858   0.34811   0.01267  Uiso   1.00
O3     O     0.35292   0.62132   0.84202   0.01267  Uiso   1.00
O4     O     0.03085   0.30171   0.37152   0.01267  Uiso   1.00
O5     O     0.15314   0.71555   0.50137   0.01267  Uiso   1.00
O6     O     0.77736   0.36646   0.34501   0.01267  Uiso   1.00
O7     O     0.36373   0.38874   0.79233   0.01267  Uiso   1.00
O8     O     0.95814   0.53889   0.43247   0.01267  Uiso   1.00
O9     O     0.71600   0.68855   0.89051   0.01267  Uiso   1.00
O10    O     0.89592   0.37028   0.22108   0.01267  Uiso   1.00
O11    O     0.53085   0.69829   0.12848   0.01267  Uiso   1.00
O12    O     0.60408   0.37028   0.72108   0.01267  Uiso   1.00
O13    O     0.64708   0.37868   0.15798   0.01267  Uiso   1.00
O14    O     0.90263   0.51858   0.84811   0.01267  Uiso   1.00
O15    O     0.10408   0.62972   0.77892   0.01267  Uiso   1.00
O16    O     0.65314   0.28445   0.99863   0.01267  Uiso   1.00
O17    O     0.90413   0.61544   0.26078   0.01267  Uiso   1.00
O18    O     0.54186   0.53889   0.93247   0.01267  Uiso   1.00
O19    O     0.45814   0.46111   0.06753   0.01267  Uiso   1.00
O20    O     0.21600   0.31145   0.60949   0.01267  Uiso   1.00
O21    O     0.13627   0.38874   0.29233   0.01267  Uiso   1.00
O22    O     0.40413   0.38456   0.23922   0.01267  Uiso   1.00
O23    O     0.04186   0.46111   0.56753   0.01267  Uiso   1.00
O24    O     0.72264   0.36646   0.84501   0.01267  Uiso   1.00
O25    O     0.14708   0.62132   0.34202   0.01267  Uiso   1.00
O26    O     0.59587   0.61544   0.76078   0.01267  Uiso   1.00
O27    O     0.46915   0.30171   0.87152   0.01267  Uiso   1.00
O28    O     0.22264   0.63354   0.65499   0.01267  Uiso   1.00
O29    O     0.34686   0.71555   0.00137   0.01267  Uiso   1.00
O30    O     0.96915   0.69829   0.62848   0.01267  Uiso   1.00
O31    O     0.78400   0.68855   0.39051   0.01267  Uiso   1.00
O32    O     0.63627   0.61126   0.20767   0.01267  Uiso   1.00
O33    O     0.27736   0.63354   0.15499   0.01267  Uiso   1.00
O34    O     0.09737   0.48142   0.15189   0.01267  Uiso   1.00
O35    O     0.28400   0.31145   0.10949   0.01267  Uiso   1.00
O36    O     0.86373   0.61126   0.70767   0.01267  Uiso   1.00
O37    O     0.39592   0.62972   0.27892   0.01267  Uiso   1.00
O38    O     0.84686   0.28445   0.49863   0.01267  Uiso   1.00
O39    O     0.85292   0.37868   0.65798   0.01267  Uiso   1.00
O40    O     0.09587   0.38456   0.73922   0.01267  Uiso   1.00
