data_cm301726k_si_004_freeONLY
_audit_creation_date              2015-08-19
_audit_creation_method            'Materials Studio'
_symmetry_space_group_name_H-M    'P1'
_symmetry_Int_Tables_number       1
_symmetry_cell_setting            triclinic
loop_
_symmetry_equiv_pos_as_xyz
  x,y,z
_cell_length_a                    12.5738
_cell_length_b                    12.5738
_cell_length_c                    14.3340
_cell_angle_alpha                 90.0000
_cell_angle_beta                  90.0000
_cell_angle_gamma                 120.0000
loop_
_atom_site_label
_atom_site_type_symbol
_atom_site_fract_x
_atom_site_fract_y
_atom_site_fract_z
_atom_site_U_iso_or_equiv
_atom_site_adp_type
_atom_site_occupancy
Mg1    Mg    0.20610   0.48650   0.50000   0.01267  Uiso   1.00
Mg2    Mg    0.48650   0.28040   0.50000   0.01267  Uiso   1.00
Mg3    Mg    0.28040   0.79390   0.50000   0.01267  Uiso   1.00
Mg4    Mg    0.79390   0.51350   0.50000   0.01267  Uiso   1.00
Mg5    Mg    0.71960   0.20610   0.50000   0.01267  Uiso   1.00
Mg6    Mg    0.51350   0.71960   0.50000   0.01267  Uiso   1.00
C1     C     0.48990   0.88040   0.64710   0.01267  Uiso   1.00
C2     C     0.39350   0.48190   0.94850   0.01267  Uiso   1.00
C3     C     0.91160   0.39380   0.94860   0.01267  Uiso   1.00
C4     C     0.48940   0.88030   0.35300   0.01267  Uiso   1.00
C5     C     0.70800   0.53460   0.10200   0.01267  Uiso   1.00
C6     C     0.51010   0.11960   0.35290   0.01267  Uiso   1.00
C7     C     0.50010   0.49990   0.10210   0.01267  Uiso   1.00
C8     C     0.90770   0.39360   0.75000   0.01267  Uiso   1.00
C9     C     0.60620   0.51780   0.94860   0.01267  Uiso   1.00
C10    C     0.91160   0.39350   0.05150   0.01267  Uiso   1.00
C11    C     0.48590   0.09220   0.25040   0.01267  Uiso   1.00
C12    C     0.39090   0.51060   0.35300   0.01267  Uiso   1.00
C13    C     0.49990   0.99980   0.89790   0.01267  Uiso   1.00
C14    C     0.99980   0.49990   0.10210   0.01267  Uiso   1.00
C15    C     0.08840   0.60620   0.05140   0.01267  Uiso   1.00
C16    C     0.88040   0.39050   0.35290   0.01267  Uiso   1.00
C17    C     0.70810   0.53330   0.80040   0.01267  Uiso   1.00
C18    C     0.60910   0.48940   0.64700   0.01267  Uiso   1.00
C19    C     0.17350   0.70800   0.10180   0.01267  Uiso   1.00
C20    C     0.17440   0.70750   0.80050   0.01267  Uiso   1.00
C21    C     0.08840   0.60650   0.94850   0.01267  Uiso   1.00
C22    C     0.50020   0.00000   0.79740   0.01267  Uiso   1.00
C23    C     0.51060   0.11970   0.64700   0.01267  Uiso   1.00
C24    C     0.17480   0.70810   0.19960   0.01267  Uiso   1.00
C25    C     0.49980   0.49980   0.79740   0.01267  Uiso   1.00
C26    C     0.51780   0.91160   0.05140   0.01267  Uiso   1.00
C27    C     0.09230   0.60640   0.25000   0.01267  Uiso   1.00
C28    C     0.00020   0.50010   0.89790   0.01267  Uiso   1.00
C29    C     0.50010   0.00020   0.10210   0.01267  Uiso   1.00
C30    C     0.60650   0.51810   0.05150   0.01267  Uiso   1.00
C31    C     0.39370   0.48590   0.74960   0.01267  Uiso   1.00
C32    C     0.51410   0.90780   0.74960   0.01267  Uiso   1.00
C33    C     0.60950   0.48990   0.35290   0.01267  Uiso   1.00
C34    C     0.00000   0.50020   0.79740   0.01267  Uiso   1.00
C35    C     0.82560   0.29250   0.19950   0.01267  Uiso   1.00
C36    C     0.50020   0.50020   0.20260   0.01267  Uiso   1.00
C37    C     0.46540   0.17340   0.10200   0.01267  Uiso   1.00
C38    C     0.70750   0.53310   0.19950   0.01267  Uiso   1.00
C39    C     0.60630   0.51410   0.25040   0.01267  Uiso   1.00
C40    C     0.39360   0.48590   0.25000   0.01267  Uiso   1.00
C41    C     0.29200   0.46540   0.89800   0.01267  Uiso   1.00
C42    C     0.53310   0.82560   0.80050   0.01267  Uiso   1.00
C43    C     0.48590   0.09230   0.75000   0.01267  Uiso   1.00
C44    C     0.82660   0.29200   0.10200   0.01267  Uiso   1.00
C45    C     0.29200   0.46550   0.10180   0.01267  Uiso   1.00
C46    C     0.48220   0.08840   0.94860   0.01267  Uiso   1.00
C47    C     0.09220   0.60630   0.74960   0.01267  Uiso   1.00
C48    C     0.53330   0.82520   0.19960   0.01267  Uiso   1.00
C49    C     0.46670   0.17480   0.80040   0.01267  Uiso   1.00
C50    C     0.82520   0.29190   0.80040   0.01267  Uiso   1.00
C51    C     0.51410   0.90770   0.25000   0.01267  Uiso   1.00
C52    C     0.53460   0.82660   0.89800   0.01267  Uiso   1.00
C53    C     0.90780   0.39370   0.25040   0.01267  Uiso   1.00
C54    C     0.53450   0.82650   0.10180   0.01267  Uiso   1.00
C55    C     0.11960   0.60950   0.64710   0.01267  Uiso   1.00
C56    C     0.46690   0.17440   0.19950   0.01267  Uiso   1.00
C57    C     0.60640   0.51410   0.75000   0.01267  Uiso   1.00
C58    C     0.82650   0.29200   0.89820   0.01267  Uiso   1.00
C59    C     0.46550   0.17350   0.89820   0.01267  Uiso   1.00
C60    C     0.49990   0.50010   0.89790   0.01267  Uiso   1.00
C61    C     0.51810   0.91160   0.94850   0.01267  Uiso   1.00
C62    C     0.29250   0.46690   0.80050   0.01267  Uiso   1.00
C63    C     0.11970   0.60910   0.35300   0.01267  Uiso   1.00
C64    C     0.39380   0.48220   0.05140   0.01267  Uiso   1.00
C65    C     0.29190   0.46670   0.19960   0.01267  Uiso   1.00
C66    C     0.39050   0.51010   0.64710   0.01267  Uiso   1.00
C67    C     0.88030   0.39090   0.64700   0.01267  Uiso   1.00
C68    C     0.00000   0.49980   0.20260   0.01267  Uiso   1.00
C69    C     0.49980  -0.00000   0.20260   0.01267  Uiso   1.00
C70    C     0.70800   0.53450   0.89820   0.01267  Uiso   1.00
C71    C     0.17340   0.70800   0.89800   0.01267  Uiso   1.00
C72    C     0.48190   0.08840   0.05150   0.01267  Uiso   1.00
O1     O     0.48210   0.60440   0.38630   0.01267  Uiso   1.00
O2     O     0.30720   0.24630   0.49990   0.01267  Uiso   1.00
O3     O     0.60410   0.12220   0.38620   0.01267  Uiso   1.00
O4     O     0.87780   0.48190   0.38620   0.01267  Uiso   1.00
O5     O     0.14560   0.70690   0.60350   0.01267  Uiso   1.00
O6     O     0.69280   0.75370   0.50010   0.01267  Uiso   1.00
O7     O     0.14560   0.70700   0.39660   0.01267  Uiso   1.00
O8     O     0.70700   0.56140   0.60340   0.01267  Uiso   1.00
O9     O     0.24630   0.93910   0.50010   0.01267  Uiso   1.00
O10    O     0.70690   0.56130   0.39650   0.01267  Uiso   1.00
O11    O     0.85440   0.29300   0.60340   0.01267  Uiso   1.00
O12    O     0.56130   0.85440   0.60350   0.01267  Uiso   1.00
O13    O     0.12220   0.51810   0.61380   0.01267  Uiso   1.00
O14    O     0.43870   0.14560   0.39650   0.01267  Uiso   1.00
O15    O     0.12230   0.51790   0.38630   0.01267  Uiso   1.00
O16    O     0.33333   0.66666   0.50010   0.01267  Uiso   1.00
O17    O     0.51790   0.39560   0.61370   0.01267  Uiso   1.00
O18    O     0.56140   0.85440   0.39660   0.01267  Uiso   1.00
O19    O     0.66667   0.33334   0.49990   0.01267  Uiso   1.00
O20    O     0.06090   0.30720   0.50010   0.01267  Uiso   1.00
O21    O     0.60440   0.12230   0.61370   0.01267  Uiso   1.00
O22    O     0.29310   0.43870   0.60350   0.01267  Uiso   1.00
O23    O     0.51810   0.39590   0.38620   0.01267  Uiso   1.00
O24    O     0.43860   0.14560   0.60340   0.01267  Uiso   1.00
O25    O     0.39590   0.87780   0.61380   0.01267  Uiso   1.00
O26    O     0.75370   0.06090   0.49990   0.01267  Uiso   1.00
O27    O     0.85440   0.29310   0.39650   0.01267  Uiso   1.00
O28    O     0.93910   0.69280   0.49990   0.01267  Uiso   1.00
O29    O     0.29300   0.43860   0.39660   0.01267  Uiso   1.00
O30    O     0.39560   0.87770   0.38630   0.01267  Uiso   1.00
O31    O     0.87770   0.48210   0.61370   0.01267  Uiso   1.00
O32    O     0.48190   0.60410   0.61380   0.01267  Uiso   1.00
