data_cm303749m_si_002_freeONLY
_audit_creation_date              2015-08-19
_audit_creation_method            'Materials Studio'
_symmetry_space_group_name_H-M    'P1'
_symmetry_Int_Tables_number       1
_symmetry_cell_setting            triclinic
loop_
_symmetry_equiv_pos_as_xyz
  x,y,z
_cell_length_a                    11.6533
_cell_length_b                    15.4648
_cell_length_c                    15.4648
_cell_angle_alpha                 90.0000
_cell_angle_beta                  90.2050
_cell_angle_gamma                 90.0000
loop_
_atom_site_label
_atom_site_type_symbol
_atom_site_fract_x
_atom_site_fract_y
_atom_site_fract_z
_atom_site_U_iso_or_equiv
_atom_site_adp_type
_atom_site_occupancy
Zn1    Zn    0.51089   0.50000   0.59645   0.01267  Uiso   1.00
Zn2    Zn    0.48911   0.50000   0.40355   0.01267  Uiso   1.00
H1     H     0.79774   0.33430   0.61692   0.01267  Uiso   1.00
H2     H     0.34224   0.50000   0.72380   0.01267  Uiso   1.00
H3     H     0.20163   0.13946   0.63782   0.01267  Uiso   1.00
H4     H     0.34947   0.50000   0.88210   0.01267  Uiso   1.00
H5     H     0.79037   0.00000   0.47276   0.01267  Uiso   1.00
H6     H     0.32433   0.73120   0.63841   0.01267  Uiso   1.00
H7     H     0.67567   0.26880   0.36159   0.01267  Uiso   1.00
H8     H     0.79837   0.13946   0.36218   0.01267  Uiso   1.00
H9     H     0.79774   0.66570   0.61692   0.01267  Uiso   1.00
H10    H     0.79837   0.86054   0.36218   0.01267  Uiso   1.00
H11    H     0.20226   0.66570   0.38308   0.01267  Uiso   1.00
H12    H     0.27961   0.50000   0.13057   0.01267  Uiso   1.00
H13    H     0.72039   0.50000   0.86943   0.01267  Uiso   1.00
H14    H     0.67567   0.73120   0.36159   0.01267  Uiso   1.00
H15    H     0.65053   0.50000   0.11790   0.01267  Uiso   1.00
H16    H     0.20163   0.86054   0.63782   0.01267  Uiso   1.00
H17    H     0.29508   0.50000   0.29041   0.01267  Uiso   1.00
H18    H     0.07801   0.20613   0.38370   0.01267  Uiso   1.00
H19    H     0.70492   0.50000   0.70959   0.01267  Uiso   1.00
H20    H     0.92199   0.20613   0.61630   0.01267  Uiso   1.00
H21    H     0.07801   0.79387   0.38370   0.01267  Uiso   1.00
H22    H     0.65776   0.50000   0.27620   0.01267  Uiso   1.00
H23    H     0.20226   0.33430   0.38308   0.01267  Uiso   1.00
H24    H     0.92199   0.79387   0.61630   0.01267  Uiso   1.00
H25    H     0.20963   0.00000   0.52724   0.01267  Uiso   1.00
H26    H     0.32433   0.26880   0.63841   0.01267  Uiso   1.00
C1     C     0.36294   0.50000   0.16180   0.01267  Uiso   1.00
C2     C     0.12947   0.83741   0.51092   0.01267  Uiso   1.00
C3     C     0.72650   0.31249   0.48916   0.01267  Uiso   1.00
C4     C     0.86959   0.78029   0.55994   0.01267  Uiso   1.00
C5     C     0.57585   0.50000   0.24307   0.01267  Uiso   1.00
C6     C     0.79802   0.70690   0.56030   0.01267  Uiso   1.00
C7     C     0.79991   0.81781   0.41764   0.01267  Uiso   1.00
C8     C     0.88239   0.00000   0.48324   0.01267  Uiso   1.00
C9     C     0.37157   0.50000   0.25097   0.01267  Uiso   1.00
C10    C     0.72994   0.74343   0.41724   0.01267  Uiso   1.00
C11    C     0.93986   0.91962   0.49188   0.01267  Uiso   1.00
C12    C     0.12947   0.16259   0.51092   0.01267  Uiso   1.00
C13    C     0.13041   0.78029   0.44006   0.01267  Uiso   1.00
C14    C     0.20009   0.81781   0.58236   0.01267  Uiso   1.00
C15    C     0.42415   0.50000   0.75693   0.01267  Uiso   1.00
C16    C     0.72994   0.25657   0.41724   0.01267  Uiso   1.00
C17    C     0.06014   0.08038   0.50812   0.01267  Uiso   1.00
C18    C     0.11761   0.00000   0.51676   0.01267  Uiso   1.00
C19    C     0.87053   0.83741   0.48908   0.01267  Uiso   1.00
C20    C     0.06014   0.91962   0.50812   0.01267  Uiso   1.00
C21    C     0.20009   0.18219   0.58236   0.01267  Uiso   1.00
C22    C     0.53646   0.50000   0.88644   0.01267  Uiso   1.00
C23    C     0.57126   0.50000   0.15421   0.01267  Uiso   1.00
C24    C     0.86959   0.21971   0.55994   0.01267  Uiso   1.00
C25    C     0.63706   0.50000   0.83820   0.01267  Uiso   1.00
C26    C     0.42874   0.50000   0.84579   0.01267  Uiso   1.00
C27    C     0.79991   0.18219   0.41764   0.01267  Uiso   1.00
C28    C     0.13041   0.21971   0.44006   0.01267  Uiso   1.00
C29    C     0.93986   0.08038   0.49188   0.01267  Uiso   1.00
C30    C     0.20198   0.29310   0.43970   0.01267  Uiso   1.00
C31    C     0.27006   0.25657   0.58276   0.01267  Uiso   1.00
C32    C     0.87053   0.16259   0.48908   0.01267  Uiso   1.00
C33    C     0.64357   0.61312   0.49258   0.01267  Uiso   1.00
C34    C     0.27006   0.74343   0.58276   0.01267  Uiso   1.00
C35    C     0.20198   0.70690   0.43970   0.01267  Uiso   1.00
C36    C     0.72650   0.68751   0.48916   0.01267  Uiso   1.00
C37    C     0.27350   0.31249   0.51084   0.01267  Uiso   1.00
C38    C     0.27350   0.68751   0.51084   0.01267  Uiso   1.00
C39    C     0.64357   0.38688   0.49258   0.01267  Uiso   1.00
C40    C     0.79802   0.29310   0.56030   0.01267  Uiso   1.00
C41    C     0.46354   0.50000   0.11356   0.01267  Uiso   1.00
C42    C     0.62843   0.50000   0.74903   0.01267  Uiso   1.00
C43    C     0.35643   0.61312   0.50742   0.01267  Uiso   1.00
C44    C     0.35643   0.38688   0.50742   0.01267  Uiso   1.00
N1     N     0.52307   0.50000   0.71147   0.01267  Uiso   1.00
N2     N     0.45512   0.50000   0.02285   0.01267  Uiso   1.00
N3     N     0.54488   0.50000   0.97715   0.01267  Uiso   1.00
N4     N     0.47693   0.50000   0.28853   0.01267  Uiso   1.00
O1     O     0.40178   0.41641   0.57619   0.01267  Uiso   1.00
O2     O     0.61538   0.41847   0.56510   0.01267  Uiso   1.00
O3     O     0.40178   0.58359   0.57619   0.01267  Uiso   1.00
O4     O     0.59822   0.41641   0.42381   0.01267  Uiso   1.00
O5     O     0.61538   0.58153   0.56510   0.01267  Uiso   1.00
O6     O     0.38462   0.58153   0.43490   0.01267  Uiso   1.00
O7     O     0.59822   0.58359   0.42381   0.01267  Uiso   1.00
O8     O     0.38462   0.41847   0.43490   0.01267  Uiso   1.00
