data_image0
_cell_length_a       6.6305
_cell_length_b       16.7832
_cell_length_c       12.7618
_cell_angle_alpha    90
_cell_angle_beta     90
_cell_angle_gamma    90

_symmetry_space_group_name_H-M    "P 1"
_symmetry_int_tables_number       1

loop_
  _symmetry_equiv_pos_as_xyz
  'x, y, z'

loop_
  _atom_site_label
  _atom_site_occupancy
  _atom_site_fract_x
  _atom_site_fract_y
  _atom_site_fract_z
  _atom_site_thermal_displace_type
  _atom_site_B_iso_or_equiv
  _atom_site_type_symbol
  O1       1.0000 0.16783  0.16769  0.84308  Biso   1.000  O
  C1       1.0000 0.80830  0.03508  0.96820  Biso   1.000  C
  O2       1.0000 0.66783  0.66769  0.34308  Biso   1.000  O
  C2       1.0000 0.30830  0.53508  0.46820  Biso   1.000  C
  O3       1.0000 0.83217  0.33231  0.84308  Biso   1.000  O
  C3       1.0000 0.19170  0.46492  0.96820  Biso   1.000  C
  O4       1.0000 0.33217  0.83231  0.34308  Biso   1.000  O
  C4       1.0000 0.69170  0.96492  0.46820  Biso   1.000  C
  O5       1.0000 0.83217  0.66769  0.15692  Biso   1.000  O
  C5       1.0000 0.19170  0.53508  0.03180  Biso   1.000  C
  O6       1.0000 0.33217  0.16769  0.65692  Biso   1.000  O
  C6       1.0000 0.69170  0.03508  0.53180  Biso   1.000  C
  O7       1.0000 0.16783  0.83231  0.15692  Biso   1.000  O
  C7       1.0000 0.80830  0.96492  0.03180  Biso   1.000  C
  O8       1.0000 0.66783  0.33231  0.65692  Biso   1.000  O
  C8       1.0000 0.30830  0.46492  0.53180  Biso   1.000  C
  O9       1.0000 0.83217  0.83231  0.15692  Biso   1.000  O
  C9       1.0000 0.19170  0.96492  0.03180  Biso   1.000  C
  O10      1.0000 0.33217  0.33231  0.65692  Biso   1.000  O
  C10      1.0000 0.69170  0.46492  0.53180  Biso   1.000  C
  O11      1.0000 0.16783  0.66769  0.15692  Biso   1.000  O
  C11      1.0000 0.80830  0.53508  0.03180  Biso   1.000  C
  O12      1.0000 0.66783  0.16769  0.65692  Biso   1.000  O
  C12      1.0000 0.30830  0.03508  0.53180  Biso   1.000  C
  O13      1.0000 0.16783  0.33231  0.84308  Biso   1.000  O
  C13      1.0000 0.80830  0.46492  0.96820  Biso   1.000  C
  O14      1.0000 0.66783  0.83231  0.34308  Biso   1.000  O
  C14      1.0000 0.30830  0.96492  0.46820  Biso   1.000  C
  O15      1.0000 0.83217  0.16769  0.84308  Biso   1.000  O
  C15      1.0000 0.19170  0.03508  0.96820  Biso   1.000  C
  O16      1.0000 0.33217  0.66769  0.34308  Biso   1.000  O
  C16      1.0000 0.69170  0.53508  0.46820  Biso   1.000  C
  Al1      1.0000 0.25000  0.25000  0.75000  Biso   1.000  Al
  Al2      1.0000 0.75000  0.25000  0.75000  Biso   1.000  Al
  Al3      1.0000 0.75000  0.75000  0.25000  Biso   1.000  Al
  Al4      1.0000 0.25000  0.75000  0.25000  Biso   1.000  Al
  O17      1.0000 0.00000  0.25000  0.68500  Biso   1.000  O
  O18      1.0000 0.50000  0.75000  0.18500  Biso   1.000  O
  O19      1.0000 0.00000  0.75000  0.31500  Biso   1.000  O
  O20      1.0000 0.50000  0.25000  0.81500  Biso   1.000  O
  C17      1.0000 0.00000  0.06280  0.94440  Biso   1.000  C
  C18      1.0000 0.00000  0.13835  0.87040  Biso   1.000  C
  C19      1.0000 0.50000  0.56280  0.44440  Biso   1.000  C
  C20      1.0000 0.50000  0.63835  0.37040  Biso   1.000  C
  C21      1.0000 0.00000  0.43720  0.94440  Biso   1.000  C
  C22      1.0000 0.00000  0.36165  0.87040  Biso   1.000  C
  C23      1.0000 0.50000  0.93720  0.44440  Biso   1.000  C
  C24      1.0000 0.50000  0.86165  0.37040  Biso   1.000  C
  C25      1.0000 0.00000  0.56280  0.05560  Biso   1.000  C
  C26      1.0000 0.00000  0.63835  0.12960  Biso   1.000  C
  C27      1.0000 0.50000  0.06280  0.55560  Biso   1.000  C
  C28      1.0000 0.50000  0.13835  0.62960  Biso   1.000  C
  C29      1.0000 0.00000  0.93720  0.05560  Biso   1.000  C
  C30      1.0000 0.00000  0.86165  0.12960  Biso   1.000  C
  C31      1.0000 0.50000  0.43720  0.55560  Biso   1.000  C
  C32      1.0000 0.50000  0.36165  0.62960  Biso   1.000  C
