data_image0
_cell_length_a       6.5677
_cell_length_b       16.4042
_cell_length_c       13.1657
_cell_angle_alpha    90
_cell_angle_beta     90
_cell_angle_gamma    90

_symmetry_space_group_name_H-M    "P 1"
_symmetry_int_tables_number       1

loop_
  _symmetry_equiv_pos_as_xyz
  'x, y, z'

loop_
  _atom_site_label
  _atom_site_occupancy
  _atom_site_fract_x
  _atom_site_fract_y
  _atom_site_fract_z
  _atom_site_thermal_displace_type
  _atom_site_B_iso_or_equiv
  _atom_site_type_symbol
  O1       1.0000 0.17000  0.16765  0.83945  Biso   1.000  O
  C1       1.0000 0.80670  0.02870  0.95600  Biso   1.000  C
  O2       1.0000 0.67000  0.66765  0.33945  Biso   1.000  O
  C2       1.0000 0.30670  0.52870  0.45600  Biso   1.000  C
  O3       1.0000 0.83000  0.33235  0.83945  Biso   1.000  O
  C3       1.0000 0.19330  0.47130  0.95600  Biso   1.000  C
  O4       1.0000 0.33000  0.83235  0.33945  Biso   1.000  O
  C4       1.0000 0.69330  0.97130  0.45600  Biso   1.000  C
  O5       1.0000 0.83000  0.66765  0.16055  Biso   1.000  O
  C5       1.0000 0.19330  0.52870  0.04400  Biso   1.000  C
  O6       1.0000 0.33000  0.16765  0.66055  Biso   1.000  O
  C6       1.0000 0.69330  0.02870  0.54400  Biso   1.000  C
  O7       1.0000 0.17000  0.83235  0.16055  Biso   1.000  O
  C7       1.0000 0.80670  0.97130  0.04400  Biso   1.000  C
  O8       1.0000 0.67000  0.33235  0.66055  Biso   1.000  O
  C8       1.0000 0.30670  0.47130  0.54400  Biso   1.000  C
  O9       1.0000 0.83000  0.83235  0.16055  Biso   1.000  O
  C9       1.0000 0.19330  0.97130  0.04400  Biso   1.000  C
  O10      1.0000 0.33000  0.33235  0.66055  Biso   1.000  O
  C10      1.0000 0.69330  0.47130  0.54400  Biso   1.000  C
  O11      1.0000 0.17000  0.66765  0.16055  Biso   1.000  O
  C11      1.0000 0.80670  0.52870  0.04400  Biso   1.000  C
  O12      1.0000 0.67000  0.16765  0.66055  Biso   1.000  O
  C12      1.0000 0.30670  0.02870  0.54400  Biso   1.000  C
  O13      1.0000 0.17000  0.33235  0.83945  Biso   1.000  O
  C13      1.0000 0.80670  0.47130  0.95600  Biso   1.000  C
  O14      1.0000 0.67000  0.83235  0.33945  Biso   1.000  O
  C14      1.0000 0.30670  0.97130  0.45600  Biso   1.000  C
  O15      1.0000 0.83000  0.16765  0.83945  Biso   1.000  O
  C15      1.0000 0.19330  0.02870  0.95600  Biso   1.000  C
  O16      1.0000 0.33000  0.66765  0.33945  Biso   1.000  O
  C16      1.0000 0.69330  0.52870  0.45600  Biso   1.000  C
  Al1      1.0000 0.25000  0.25000  0.75000  Biso   1.000  Al
  Al2      1.0000 0.75000  0.25000  0.75000  Biso   1.000  Al
  Al3      1.0000 0.75000  0.75000  0.25000  Biso   1.000  Al
  Al4      1.0000 0.25000  0.75000  0.25000  Biso   1.000  Al
  F1       1.0000 0.00000  0.25000  0.69310  Biso   1.000  F
  F2       1.0000 0.50000  0.75000  0.19310  Biso   1.000  F
  F3       1.0000 0.00000  0.75000  0.30690  Biso   1.000  F
  F4       1.0000 0.50000  0.25000  0.80690  Biso   1.000  F
  C17      1.0000 0.00000  0.06330  0.94890  Biso   1.000  C
  C18      1.0000 0.00000  0.13800  0.87070  Biso   1.000  C
  C19      1.0000 0.50000  0.56330  0.44890  Biso   1.000  C
  C20      1.0000 0.50000  0.63800  0.37070  Biso   1.000  C
  C21      1.0000 0.00000  0.43670  0.94890  Biso   1.000  C
  C22      1.0000 0.00000  0.36200  0.87070  Biso   1.000  C
  C23      1.0000 0.50000  0.93670  0.44890  Biso   1.000  C
  C24      1.0000 0.50000  0.86200  0.37070  Biso   1.000  C
  C25      1.0000 0.00000  0.56330  0.05110  Biso   1.000  C
  C26      1.0000 0.00000  0.63800  0.12930  Biso   1.000  C
  C27      1.0000 0.50000  0.06330  0.55110  Biso   1.000  C
  C28      1.0000 0.50000  0.13800  0.62930  Biso   1.000  C
  C29      1.0000 0.00000  0.93670  0.05110  Biso   1.000  C
  C30      1.0000 0.00000  0.86200  0.12930  Biso   1.000  C
  C31      1.0000 0.50000  0.43670  0.55110  Biso   1.000  C
  C32      1.0000 0.50000  0.36200  0.62930  Biso   1.000  C
