data_image0
_cell_length_a       6.6302
_cell_length_b       16.77
_cell_length_c       12.7778
_cell_angle_alpha    90
_cell_angle_beta     90
_cell_angle_gamma    90

_symmetry_space_group_name_H-M    "P 1"
_symmetry_int_tables_number       1

loop_
  _symmetry_equiv_pos_as_xyz
  'x, y, z'

loop_
  _atom_site_label
  _atom_site_occupancy
  _atom_site_fract_x
  _atom_site_fract_y
  _atom_site_fract_z
  _atom_site_thermal_displace_type
  _atom_site_B_iso_or_equiv
  _atom_site_type_symbol
  O1       1.0000 0.16646  0.16815  0.84300  Biso   1.000  O
  C1       1.0000 0.80890  0.03535  0.96880  Biso   1.000  C
  O2       1.0000 0.66646  0.66815  0.34300  Biso   1.000  O
  C2       1.0000 0.30890  0.53535  0.46880  Biso   1.000  C
  O3       1.0000 0.83354  0.33185  0.84300  Biso   1.000  O
  C3       1.0000 0.19110  0.46465  0.96880  Biso   1.000  C
  O4       1.0000 0.33354  0.83185  0.34300  Biso   1.000  O
  C4       1.0000 0.69110  0.96465  0.46880  Biso   1.000  C
  O5       1.0000 0.83354  0.66815  0.15700  Biso   1.000  O
  C5       1.0000 0.19110  0.53535  0.03120  Biso   1.000  C
  O6       1.0000 0.33354  0.16815  0.65700  Biso   1.000  O
  C6       1.0000 0.69110  0.03535  0.53120  Biso   1.000  C
  O7       1.0000 0.16646  0.83185  0.15700  Biso   1.000  O
  C7       1.0000 0.80890  0.96465  0.03120  Biso   1.000  C
  O8       1.0000 0.66646  0.33185  0.65700  Biso   1.000  O
  C8       1.0000 0.30890  0.46465  0.53120  Biso   1.000  C
  O9       1.0000 0.83354  0.83185  0.15700  Biso   1.000  O
  C9       1.0000 0.19110  0.96465  0.03120  Biso   1.000  C
  O10      1.0000 0.33354  0.33185  0.65700  Biso   1.000  O
  C10      1.0000 0.69110  0.46465  0.53120  Biso   1.000  C
  O11      1.0000 0.16646  0.66815  0.15700  Biso   1.000  O
  C11      1.0000 0.80890  0.53535  0.03120  Biso   1.000  C
  O12      1.0000 0.66646  0.16815  0.65700  Biso   1.000  O
  C12      1.0000 0.30890  0.03535  0.53120  Biso   1.000  C
  O13      1.0000 0.16646  0.33185  0.84300  Biso   1.000  O
  C13      1.0000 0.80890  0.46465  0.96880  Biso   1.000  C
  O14      1.0000 0.66646  0.83185  0.34300  Biso   1.000  O
  C14      1.0000 0.30890  0.96465  0.46880  Biso   1.000  C
  O15      1.0000 0.83354  0.16815  0.84300  Biso   1.000  O
  C15      1.0000 0.19110  0.03535  0.96880  Biso   1.000  C
  O16      1.0000 0.33354  0.66815  0.34300  Biso   1.000  O
  C16      1.0000 0.69110  0.53535  0.46880  Biso   1.000  C
  Al1      1.0000 0.25000  0.25000  0.75000  Biso   1.000  Al
  Al2      1.0000 0.75000  0.25000  0.75000  Biso   1.000  Al
  Al3      1.0000 0.75000  0.75000  0.25000  Biso   1.000  Al
  Al4      1.0000 0.25000  0.75000  0.25000  Biso   1.000  Al
  O17      1.0000 0.00000  0.25000  0.68560  Biso   1.000  O
  O18      1.0000 0.50000  0.75000  0.18560  Biso   1.000  O
  O19      1.0000 0.00000  0.75000  0.31440  Biso   1.000  O
  O20      1.0000 0.50000  0.25000  0.81440  Biso   1.000  O
  C17      1.0000 0.00000  0.06300  0.94560  Biso   1.000  C
  C18      1.0000 0.00000  0.13718  0.87010  Biso   1.000  C
  C19      1.0000 0.50000  0.56300  0.44560  Biso   1.000  C
  C20      1.0000 0.50000  0.63718  0.37010  Biso   1.000  C
  C21      1.0000 0.00000  0.43700  0.94560  Biso   1.000  C
  C22      1.0000 0.00000  0.36282  0.87010  Biso   1.000  C
  C23      1.0000 0.50000  0.93700  0.44560  Biso   1.000  C
  C24      1.0000 0.50000  0.86282  0.37010  Biso   1.000  C
  C25      1.0000 0.00000  0.56300  0.05440  Biso   1.000  C
  C26      1.0000 0.00000  0.63718  0.12990  Biso   1.000  C
  C27      1.0000 0.50000  0.06300  0.55440  Biso   1.000  C
  C28      1.0000 0.50000  0.13718  0.62990  Biso   1.000  C
  C29      1.0000 0.00000  0.93700  0.05440  Biso   1.000  C
  C30      1.0000 0.00000  0.86282  0.12990  Biso   1.000  C
  C31      1.0000 0.50000  0.43700  0.55440  Biso   1.000  C
  C32      1.0000 0.50000  0.36282  0.62990  Biso   1.000  C
