data_image0
_cell_length_a       6.5688
_cell_length_b       16.3828
_cell_length_c       13.1723
_cell_angle_alpha    90
_cell_angle_beta     90
_cell_angle_gamma    90

_symmetry_space_group_name_H-M    "P 1"
_symmetry_int_tables_number       1

loop_
  _symmetry_equiv_pos_as_xyz
  'x, y, z'

loop_
  _atom_site_label
  _atom_site_occupancy
  _atom_site_fract_x
  _atom_site_fract_y
  _atom_site_fract_z
  _atom_site_thermal_displace_type
  _atom_site_B_iso_or_equiv
  _atom_site_type_symbol
  O1       1.0000 0.16930  0.16838  0.83985  Biso   1.000  O
  C1       1.0000 0.80640  0.02540  0.95430  Biso   1.000  C
  O2       1.0000 0.66930  0.66838  0.33985  Biso   1.000  O
  C2       1.0000 0.30640  0.52540  0.45430  Biso   1.000  C
  O3       1.0000 0.83070  0.33162  0.83985  Biso   1.000  O
  C3       1.0000 0.19360  0.47460  0.95430  Biso   1.000  C
  O4       1.0000 0.33070  0.83162  0.33985  Biso   1.000  O
  C4       1.0000 0.69360  0.97460  0.45430  Biso   1.000  C
  O5       1.0000 0.83070  0.66838  0.16015  Biso   1.000  O
  C5       1.0000 0.19360  0.52540  0.04570  Biso   1.000  C
  O6       1.0000 0.33070  0.16838  0.66015  Biso   1.000  O
  C6       1.0000 0.69360  0.02540  0.54570  Biso   1.000  C
  O7       1.0000 0.16930  0.83162  0.16015  Biso   1.000  O
  C7       1.0000 0.80640  0.97460  0.04570  Biso   1.000  C
  O8       1.0000 0.66930  0.33162  0.66015  Biso   1.000  O
  C8       1.0000 0.30640  0.47460  0.54570  Biso   1.000  C
  O9       1.0000 0.83070  0.83162  0.16015  Biso   1.000  O
  C9       1.0000 0.19360  0.97460  0.04570  Biso   1.000  C
  O10      1.0000 0.33070  0.33162  0.66015  Biso   1.000  O
  C10      1.0000 0.69360  0.47460  0.54570  Biso   1.000  C
  O11      1.0000 0.16930  0.66838  0.16015  Biso   1.000  O
  C11      1.0000 0.80640  0.52540  0.04570  Biso   1.000  C
  O12      1.0000 0.66930  0.16838  0.66015  Biso   1.000  O
  C12      1.0000 0.30640  0.02540  0.54570  Biso   1.000  C
  O13      1.0000 0.16930  0.33162  0.83985  Biso   1.000  O
  C13      1.0000 0.80640  0.47460  0.95430  Biso   1.000  C
  O14      1.0000 0.66930  0.83162  0.33985  Biso   1.000  O
  C14      1.0000 0.30640  0.97460  0.45430  Biso   1.000  C
  O15      1.0000 0.83070  0.16838  0.83985  Biso   1.000  O
  C15      1.0000 0.19360  0.02540  0.95430  Biso   1.000  C
  O16      1.0000 0.33070  0.66838  0.33985  Biso   1.000  O
  C16      1.0000 0.69360  0.52540  0.45430  Biso   1.000  C
  Al1      1.0000 0.25000  0.25000  0.75000  Biso   1.000  Al
  Al2      1.0000 0.75000  0.25000  0.75000  Biso   1.000  Al
  Al3      1.0000 0.75000  0.75000  0.25000  Biso   1.000  Al
  Al4      1.0000 0.25000  0.75000  0.25000  Biso   1.000  Al
  F1       1.0000 0.00000  0.25000  0.69090  Biso   1.000  F
  F2       1.0000 0.50000  0.75000  0.19090  Biso   1.000  F
  F3       1.0000 0.00000  0.75000  0.30910  Biso   1.000  F
  F4       1.0000 0.50000  0.25000  0.80910  Biso   1.000  F
  C17      1.0000 0.00000  0.06440  0.94510  Biso   1.000  C
  C18      1.0000 0.00000  0.13960  0.87330  Biso   1.000  C
  C19      1.0000 0.50000  0.56440  0.44510  Biso   1.000  C
  C20      1.0000 0.50000  0.63960  0.37330  Biso   1.000  C
  C21      1.0000 0.00000  0.43560  0.94510  Biso   1.000  C
  C22      1.0000 0.00000  0.36040  0.87330  Biso   1.000  C
  C23      1.0000 0.50000  0.93560  0.44510  Biso   1.000  C
  C24      1.0000 0.50000  0.86040  0.37330  Biso   1.000  C
  C25      1.0000 0.00000  0.56440  0.05490  Biso   1.000  C
  C26      1.0000 0.00000  0.63960  0.12670  Biso   1.000  C
  C27      1.0000 0.50000  0.06440  0.55490  Biso   1.000  C
  C28      1.0000 0.50000  0.13960  0.62670  Biso   1.000  C
  C29      1.0000 0.00000  0.93560  0.05490  Biso   1.000  C
  C30      1.0000 0.00000  0.86040  0.12670  Biso   1.000  C
  C31      1.0000 0.50000  0.43560  0.55490  Biso   1.000  C
  C32      1.0000 0.50000  0.36040  0.62670  Biso   1.000  C
