data_image0
_cell_length_a       6.5525
_cell_length_b       16.4362
_cell_length_c       13.1417
_cell_angle_alpha    90
_cell_angle_beta     90
_cell_angle_gamma    90.5819

_symmetry_space_group_name_H-M    "P 1"
_symmetry_int_tables_number       1

loop_
  _symmetry_equiv_pos_as_xyz
  'x, y, z'

loop_
  _atom_site_label
  _atom_site_occupancy
  _atom_site_fract_x
  _atom_site_fract_y
  _atom_site_fract_z
  _atom_site_thermal_displace_type
  _atom_site_B_iso_or_equiv
  _atom_site_type_symbol
  O1       1.0000 0.15680  0.17440  0.85480  Biso   1.000  O
  O2       1.0000 0.81830  0.65761  0.16780  Biso   1.000  O
  C1       1.0000 0.79700  0.02370  0.94980  Biso   1.000  C
  C2       1.0000 0.00280  0.06320  0.94550  Biso   1.000  C
  C3       1.0000 0.00050  0.13720  0.86590  Biso   1.000  C
  C4       1.0000 0.19460  0.54030  0.02540  Biso   1.000  C
  O3       1.0000 0.65680  0.67440  0.35480  Biso   1.000  O
  O4       1.0000 0.31830  0.15761  0.66780  Biso   1.000  O
  C5       1.0000 0.29700  0.52370  0.44980  Biso   1.000  C
  C6       1.0000 0.50280  0.56320  0.44550  Biso   1.000  C
  C7       1.0000 0.50050  0.63720  0.36590  Biso   1.000  C
  C8       1.0000 0.69460  0.04030  0.52540  Biso   1.000  C
  O5       1.0000 0.84320  0.32560  0.85480  Biso   1.000  O
  O6       1.0000 0.18170  0.84239  0.16780  Biso   1.000  O
  C9       1.0000 0.20300  0.47630  0.94980  Biso   1.000  C
  C10      1.0000 0.99720  0.43680  0.94550  Biso   1.000  C
  C11      1.0000 0.99950  0.36280  0.86590  Biso   1.000  C
  C12      1.0000 0.80540  0.95970  0.02540  Biso   1.000  C
  O7       1.0000 0.34320  0.82560  0.35480  Biso   1.000  O
  O8       1.0000 0.68170  0.34239  0.66780  Biso   1.000  O
  C13      1.0000 0.70300  0.97630  0.44980  Biso   1.000  C
  C14      1.0000 0.49720  0.93680  0.44550  Biso   1.000  C
  C15      1.0000 0.49950  0.86280  0.36590  Biso   1.000  C
  C16      1.0000 0.30540  0.45970  0.52540  Biso   1.000  C
  O9       1.0000 0.84320  0.82560  0.14520  Biso   1.000  O
  O10      1.0000 0.18170  0.34239  0.83220  Biso   1.000  O
  C17      1.0000 0.20300  0.97630  0.05020  Biso   1.000  C
  C18      1.0000 0.99720  0.93680  0.05450  Biso   1.000  C
  C19      1.0000 0.99950  0.86280  0.13410  Biso   1.000  C
  C20      1.0000 0.80540  0.45970  0.97460  Biso   1.000  C
  O11      1.0000 0.34320  0.32560  0.64520  Biso   1.000  O
  O12      1.0000 0.68170  0.84239  0.33220  Biso   1.000  O
  C21      1.0000 0.70300  0.47630  0.55020  Biso   1.000  C
  C22      1.0000 0.49720  0.43680  0.55450  Biso   1.000  C
  C23      1.0000 0.49950  0.36280  0.63410  Biso   1.000  C
  C24      1.0000 0.30540  0.95970  0.47460  Biso   1.000  C
  O13      1.0000 0.15680  0.67440  0.14520  Biso   1.000  O
  O14      1.0000 0.81830  0.15761  0.83220  Biso   1.000  O
  C25      1.0000 0.79700  0.52370  0.05020  Biso   1.000  C
  C26      1.0000 0.00280  0.56320  0.05450  Biso   1.000  C
  C27      1.0000 0.00050  0.63720  0.13410  Biso   1.000  C
  C28      1.0000 0.19460  0.04030  0.97460  Biso   1.000  C
  O15      1.0000 0.65680  0.17440  0.64520  Biso   1.000  O
  O16      1.0000 0.31830  0.65761  0.33220  Biso   1.000  O
  C29      1.0000 0.29700  0.02370  0.55020  Biso   1.000  C
  C30      1.0000 0.50280  0.06320  0.55450  Biso   1.000  C
  C31      1.0000 0.50050  0.13720  0.63410  Biso   1.000  C
  C32      1.0000 0.69460  0.54030  0.47460  Biso   1.000  C
  Al1      1.0000 0.25000  0.25000  0.75000  Biso   1.000  Al
  Al2      1.0000 0.75000  0.25000  0.75000  Biso   1.000  Al
  Al3      1.0000 0.75000  0.75000  0.25000  Biso   1.000  Al
  Al4      1.0000 0.25000  0.75000  0.25000  Biso   1.000  Al
  F1       1.0000 0.00000  0.25000  0.69020  Biso   1.000  F
  F2       1.0000 0.50000  0.75000  0.19020  Biso   1.000  F
  F3       1.0000 0.00000  0.75000  0.30980  Biso   1.000  F
  F4       1.0000 0.50000  0.25000  0.80980  Biso   1.000  F
