data_image0
_cell_length_a       6.5647
_cell_length_b       16.403
_cell_length_c       13.1762
_cell_angle_alpha    90
_cell_angle_beta     90
_cell_angle_gamma    90

_symmetry_space_group_name_H-M    "P 1"
_symmetry_int_tables_number       1

loop_
  _symmetry_equiv_pos_as_xyz
  'x, y, z'

loop_
  _atom_site_label
  _atom_site_occupancy
  _atom_site_fract_x
  _atom_site_fract_y
  _atom_site_fract_z
  _atom_site_thermal_displace_type
  _atom_site_B_iso_or_equiv
  _atom_site_type_symbol
  O1       1.0000 0.16900  0.16786  0.84176  Biso   1.000  O
  C1       1.0000 0.80620  0.03050  0.96070  Biso   1.000  C
  O2       1.0000 0.66900  0.66786  0.34176  Biso   1.000  O
  C2       1.0000 0.30620  0.53050  0.46070  Biso   1.000  C
  O3       1.0000 0.83100  0.33214  0.84176  Biso   1.000  O
  C3       1.0000 0.19380  0.46950  0.96070  Biso   1.000  C
  O4       1.0000 0.33100  0.83214  0.34176  Biso   1.000  O
  C4       1.0000 0.69380  0.96950  0.46070  Biso   1.000  C
  O5       1.0000 0.83100  0.66786  0.15824  Biso   1.000  O
  C5       1.0000 0.19380  0.53050  0.03930  Biso   1.000  C
  O6       1.0000 0.33100  0.16786  0.65824  Biso   1.000  O
  C6       1.0000 0.69380  0.03050  0.53930  Biso   1.000  C
  O7       1.0000 0.16900  0.83214  0.15824  Biso   1.000  O
  C7       1.0000 0.80620  0.96950  0.03930  Biso   1.000  C
  O8       1.0000 0.66900  0.33214  0.65824  Biso   1.000  O
  C8       1.0000 0.30620  0.46950  0.53930  Biso   1.000  C
  O9       1.0000 0.83100  0.83214  0.15824  Biso   1.000  O
  C9       1.0000 0.19380  0.96950  0.03930  Biso   1.000  C
  O10      1.0000 0.33100  0.33214  0.65824  Biso   1.000  O
  C10      1.0000 0.69380  0.46950  0.53930  Biso   1.000  C
  O11      1.0000 0.16900  0.66786  0.15824  Biso   1.000  O
  C11      1.0000 0.80620  0.53050  0.03930  Biso   1.000  C
  O12      1.0000 0.66900  0.16786  0.65824  Biso   1.000  O
  C12      1.0000 0.30620  0.03050  0.53930  Biso   1.000  C
  O13      1.0000 0.16900  0.33214  0.84176  Biso   1.000  O
  C13      1.0000 0.80620  0.46950  0.96070  Biso   1.000  C
  O14      1.0000 0.66900  0.83214  0.34176  Biso   1.000  O
  C14      1.0000 0.30620  0.96950  0.46070  Biso   1.000  C
  O15      1.0000 0.83100  0.16786  0.84176  Biso   1.000  O
  C15      1.0000 0.19380  0.03050  0.96070  Biso   1.000  C
  O16      1.0000 0.33100  0.66786  0.34176  Biso   1.000  O
  C16      1.0000 0.69380  0.53050  0.46070  Biso   1.000  C
  Al1      1.0000 0.25000  0.25000  0.75000  Biso   1.000  Al
  Al2      1.0000 0.75000  0.25000  0.75000  Biso   1.000  Al
  Al3      1.0000 0.75000  0.75000  0.25000  Biso   1.000  Al
  Al4      1.0000 0.25000  0.75000  0.25000  Biso   1.000  Al
  F1       1.0000 0.00000  0.25000  0.69080  Biso   1.000  F
  F2       1.0000 0.50000  0.75000  0.19080  Biso   1.000  F
  F3       1.0000 0.00000  0.75000  0.30920  Biso   1.000  F
  F4       1.0000 0.50000  0.25000  0.80920  Biso   1.000  F
  C17      1.0000 0.00000  0.06180  0.94630  Biso   1.000  C
  C18      1.0000 0.00000  0.13790  0.87160  Biso   1.000  C
  C19      1.0000 0.50000  0.56180  0.44630  Biso   1.000  C
  C20      1.0000 0.50000  0.63790  0.37160  Biso   1.000  C
  C21      1.0000 0.00000  0.43820  0.94630  Biso   1.000  C
  C22      1.0000 0.00000  0.36210  0.87160  Biso   1.000  C
  C23      1.0000 0.50000  0.93820  0.44630  Biso   1.000  C
  C24      1.0000 0.50000  0.86210  0.37160  Biso   1.000  C
  C25      1.0000 0.00000  0.56180  0.05370  Biso   1.000  C
  C26      1.0000 0.00000  0.63790  0.12840  Biso   1.000  C
  C27      1.0000 0.50000  0.06180  0.55370  Biso   1.000  C
  C28      1.0000 0.50000  0.13790  0.62840  Biso   1.000  C
  C29      1.0000 0.00000  0.93820  0.05370  Biso   1.000  C
  C30      1.0000 0.00000  0.86210  0.12840  Biso   1.000  C
  C31      1.0000 0.50000  0.43820  0.55370  Biso   1.000  C
  C32      1.0000 0.50000  0.36210  0.62840  Biso   1.000  C
