data_image0
_cell_length_a       6.6291
_cell_length_b       16.74
_cell_length_c       12.8172
_cell_angle_alpha    90
_cell_angle_beta     90
_cell_angle_gamma    90

_symmetry_space_group_name_H-M    "P 1"
_symmetry_int_tables_number       1

loop_
  _symmetry_equiv_pos_as_xyz
  'x, y, z'

loop_
  _atom_site_label
  _atom_site_occupancy
  _atom_site_fract_x
  _atom_site_fract_y
  _atom_site_fract_z
  _atom_site_thermal_displace_type
  _atom_site_B_iso_or_equiv
  _atom_site_type_symbol
  O1       1.0000 0.16551  0.16834  0.84281  Biso   1.000  O
  C1       1.0000 0.80920  0.03541  0.96730  Biso   1.000  C
  O2       1.0000 0.66551  0.66834  0.34281  Biso   1.000  O
  C2       1.0000 0.30920  0.53541  0.46730  Biso   1.000  C
  O3       1.0000 0.83449  0.33166  0.84281  Biso   1.000  O
  C3       1.0000 0.19080  0.46459  0.96730  Biso   1.000  C
  O4       1.0000 0.33449  0.83166  0.34281  Biso   1.000  O
  C4       1.0000 0.69080  0.96459  0.46730  Biso   1.000  C
  O5       1.0000 0.83449  0.66834  0.15719  Biso   1.000  O
  C5       1.0000 0.19080  0.53541  0.03270  Biso   1.000  C
  O6       1.0000 0.33449  0.16834  0.65719  Biso   1.000  O
  C6       1.0000 0.69080  0.03541  0.53270  Biso   1.000  C
  O7       1.0000 0.16551  0.83166  0.15719  Biso   1.000  O
  C7       1.0000 0.80920  0.96459  0.03270  Biso   1.000  C
  O8       1.0000 0.66551  0.33166  0.65719  Biso   1.000  O
  C8       1.0000 0.30920  0.46459  0.53270  Biso   1.000  C
  O9       1.0000 0.83449  0.83166  0.15719  Biso   1.000  O
  C9       1.0000 0.19080  0.96459  0.03270  Biso   1.000  C
  O10      1.0000 0.33449  0.33166  0.65719  Biso   1.000  O
  C10      1.0000 0.69080  0.46459  0.53270  Biso   1.000  C
  O11      1.0000 0.16551  0.66834  0.15719  Biso   1.000  O
  C11      1.0000 0.80920  0.53541  0.03270  Biso   1.000  C
  O12      1.0000 0.66551  0.16834  0.65719  Biso   1.000  O
  C12      1.0000 0.30920  0.03541  0.53270  Biso   1.000  C
  O13      1.0000 0.16551  0.33166  0.84281  Biso   1.000  O
  C13      1.0000 0.80920  0.46459  0.96730  Biso   1.000  C
  O14      1.0000 0.66551  0.83166  0.34281  Biso   1.000  O
  C14      1.0000 0.30920  0.96459  0.46730  Biso   1.000  C
  O15      1.0000 0.83449  0.16834  0.84281  Biso   1.000  O
  C15      1.0000 0.19080  0.03541  0.96730  Biso   1.000  C
  O16      1.0000 0.33449  0.66834  0.34281  Biso   1.000  O
  C16      1.0000 0.69080  0.53541  0.46730  Biso   1.000  C
  Al1      1.0000 0.25000  0.25000  0.75000  Biso   1.000  Al
  Al2      1.0000 0.75000  0.25000  0.75000  Biso   1.000  Al
  Al3      1.0000 0.75000  0.75000  0.25000  Biso   1.000  Al
  Al4      1.0000 0.25000  0.75000  0.25000  Biso   1.000  Al
  O17      1.0000 0.00000  0.25000  0.68630  Biso   1.000  O
  O18      1.0000 0.50000  0.75000  0.18630  Biso   1.000  O
  O19      1.0000 0.00000  0.75000  0.31370  Biso   1.000  O
  O20      1.0000 0.50000  0.25000  0.81370  Biso   1.000  O
  C17      1.0000 0.00000  0.06290  0.94590  Biso   1.000  C
  C18      1.0000 0.00000  0.13690  0.87030  Biso   1.000  C
  C19      1.0000 0.50000  0.56290  0.44590  Biso   1.000  C
  C20      1.0000 0.50000  0.63690  0.37030  Biso   1.000  C
  C21      1.0000 0.00000  0.43710  0.94590  Biso   1.000  C
  C22      1.0000 0.00000  0.36310  0.87030  Biso   1.000  C
  C23      1.0000 0.50000  0.93710  0.44590  Biso   1.000  C
  C24      1.0000 0.50000  0.86310  0.37030  Biso   1.000  C
  C25      1.0000 0.00000  0.56290  0.05410  Biso   1.000  C
  C26      1.0000 0.00000  0.63690  0.12970  Biso   1.000  C
  C27      1.0000 0.50000  0.06290  0.55410  Biso   1.000  C
  C28      1.0000 0.50000  0.13690  0.62970  Biso   1.000  C
  C29      1.0000 0.00000  0.93710  0.05410  Biso   1.000  C
  C30      1.0000 0.00000  0.86310  0.12970  Biso   1.000  C
  C31      1.0000 0.50000  0.43710  0.55410  Biso   1.000  C
  C32      1.0000 0.50000  0.36310  0.62970  Biso   1.000  C
