data_image0
_cell_length_a       6.5681
_cell_length_b       16.3927
_cell_length_c       13.1667
_cell_angle_alpha    90
_cell_angle_beta     90
_cell_angle_gamma    90

_symmetry_space_group_name_H-M    "P 1"
_symmetry_int_tables_number       1

loop_
  _symmetry_equiv_pos_as_xyz
  'x, y, z'

loop_
  _atom_site_label
  _atom_site_occupancy
  _atom_site_fract_x
  _atom_site_fract_y
  _atom_site_fract_z
  _atom_site_thermal_displace_type
  _atom_site_B_iso_or_equiv
  _atom_site_type_symbol
  O1       1.0000 0.16580  0.16882  0.83940  Biso   1.000  O
  C1       1.0000 0.80510  0.02660  0.95380  Biso   1.000  C
  O2       1.0000 0.66580  0.66882  0.33940  Biso   1.000  O
  C2       1.0000 0.30510  0.52660  0.45380  Biso   1.000  C
  O3       1.0000 0.83420  0.33118  0.83940  Biso   1.000  O
  C3       1.0000 0.19490  0.47340  0.95380  Biso   1.000  C
  O4       1.0000 0.33420  0.83118  0.33940  Biso   1.000  O
  C4       1.0000 0.69490  0.97340  0.45380  Biso   1.000  C
  O5       1.0000 0.83420  0.66882  0.16060  Biso   1.000  O
  C5       1.0000 0.19490  0.52660  0.04620  Biso   1.000  C
  O6       1.0000 0.33420  0.16882  0.66060  Biso   1.000  O
  C6       1.0000 0.69490  0.02660  0.54620  Biso   1.000  C
  O7       1.0000 0.16580  0.83118  0.16060  Biso   1.000  O
  C7       1.0000 0.80510  0.97340  0.04620  Biso   1.000  C
  O8       1.0000 0.66580  0.33118  0.66060  Biso   1.000  O
  C8       1.0000 0.30510  0.47340  0.54620  Biso   1.000  C
  O9       1.0000 0.83420  0.83118  0.16060  Biso   1.000  O
  C9       1.0000 0.19490  0.97340  0.04620  Biso   1.000  C
  O10      1.0000 0.33420  0.33118  0.66060  Biso   1.000  O
  C10      1.0000 0.69490  0.47340  0.54620  Biso   1.000  C
  O11      1.0000 0.16580  0.66882  0.16060  Biso   1.000  O
  C11      1.0000 0.80510  0.52660  0.04620  Biso   1.000  C
  O12      1.0000 0.66580  0.16882  0.66060  Biso   1.000  O
  C12      1.0000 0.30510  0.02660  0.54620  Biso   1.000  C
  O13      1.0000 0.16580  0.33118  0.83940  Biso   1.000  O
  C13      1.0000 0.80510  0.47340  0.95380  Biso   1.000  C
  O14      1.0000 0.66580  0.83118  0.33940  Biso   1.000  O
  C14      1.0000 0.30510  0.97340  0.45380  Biso   1.000  C
  O15      1.0000 0.83420  0.16882  0.83940  Biso   1.000  O
  C15      1.0000 0.19490  0.02660  0.95380  Biso   1.000  C
  O16      1.0000 0.33420  0.66882  0.33940  Biso   1.000  O
  C16      1.0000 0.69490  0.52660  0.45380  Biso   1.000  C
  Al1      1.0000 0.25000  0.25000  0.75000  Biso   1.000  Al
  Al2      1.0000 0.75000  0.25000  0.75000  Biso   1.000  Al
  Al3      1.0000 0.75000  0.75000  0.25000  Biso   1.000  Al
  Al4      1.0000 0.25000  0.75000  0.25000  Biso   1.000  Al
  F1       1.0000 0.00000  0.25000  0.69130  Biso   1.000  F
  F2       1.0000 0.50000  0.75000  0.19130  Biso   1.000  F
  F3       1.0000 0.00000  0.75000  0.30870  Biso   1.000  F
  F4       1.0000 0.50000  0.25000  0.80870  Biso   1.000  F
  C17      1.0000 0.00000  0.06310  0.95080  Biso   1.000  C
  C18      1.0000 0.00000  0.13630  0.87170  Biso   1.000  C
  C19      1.0000 0.50000  0.56310  0.45080  Biso   1.000  C
  C20      1.0000 0.50000  0.63630  0.37170  Biso   1.000  C
  C21      1.0000 0.00000  0.43690  0.95080  Biso   1.000  C
  C22      1.0000 0.00000  0.36370  0.87170  Biso   1.000  C
  C23      1.0000 0.50000  0.93690  0.45080  Biso   1.000  C
  C24      1.0000 0.50000  0.86370  0.37170  Biso   1.000  C
  C25      1.0000 0.00000  0.56310  0.04920  Biso   1.000  C
  C26      1.0000 0.00000  0.63630  0.12830  Biso   1.000  C
  C27      1.0000 0.50000  0.06310  0.54920  Biso   1.000  C
  C28      1.0000 0.50000  0.13630  0.62830  Biso   1.000  C
  C29      1.0000 0.00000  0.93690  0.04920  Biso   1.000  C
  C30      1.0000 0.00000  0.86370  0.12830  Biso   1.000  C
  C31      1.0000 0.50000  0.43690  0.54920  Biso   1.000  C
  C32      1.0000 0.50000  0.36370  0.62830  Biso   1.000  C
