data_image0
_cell_length_a       6.5678
_cell_length_b       16.4055
_cell_length_c       13.1687
_cell_angle_alpha    90
_cell_angle_beta     90
_cell_angle_gamma    90

_symmetry_space_group_name_H-M    "P 1"
_symmetry_int_tables_number       1

loop_
  _symmetry_equiv_pos_as_xyz
  'x, y, z'

loop_
  _atom_site_label
  _atom_site_occupancy
  _atom_site_fract_x
  _atom_site_fract_y
  _atom_site_fract_z
  _atom_site_thermal_displace_type
  _atom_site_B_iso_or_equiv
  _atom_site_type_symbol
  O1       1.0000 0.16940  0.16805  0.84015  Biso   1.000  O
  C1       1.0000 0.80680  0.02980  0.95910  Biso   1.000  C
  O2       1.0000 0.66940  0.66805  0.34015  Biso   1.000  O
  C2       1.0000 0.30680  0.52980  0.45910  Biso   1.000  C
  O3       1.0000 0.83060  0.33195  0.84015  Biso   1.000  O
  C3       1.0000 0.19320  0.47020  0.95910  Biso   1.000  C
  O4       1.0000 0.33060  0.83195  0.34015  Biso   1.000  O
  C4       1.0000 0.69320  0.97020  0.45910  Biso   1.000  C
  O5       1.0000 0.83060  0.66805  0.15985  Biso   1.000  O
  C5       1.0000 0.19320  0.52980  0.04090  Biso   1.000  C
  O6       1.0000 0.33060  0.16805  0.65985  Biso   1.000  O
  C6       1.0000 0.69320  0.02980  0.54090  Biso   1.000  C
  O7       1.0000 0.16940  0.83195  0.15985  Biso   1.000  O
  C7       1.0000 0.80680  0.97020  0.04090  Biso   1.000  C
  O8       1.0000 0.66940  0.33195  0.65985  Biso   1.000  O
  C8       1.0000 0.30680  0.47020  0.54090  Biso   1.000  C
  O9       1.0000 0.83060  0.83195  0.15985  Biso   1.000  O
  C9       1.0000 0.19320  0.97020  0.04090  Biso   1.000  C
  O10      1.0000 0.33060  0.33195  0.65985  Biso   1.000  O
  C10      1.0000 0.69320  0.47020  0.54090  Biso   1.000  C
  O11      1.0000 0.16940  0.66805  0.15985  Biso   1.000  O
  C11      1.0000 0.80680  0.52980  0.04090  Biso   1.000  C
  O12      1.0000 0.66940  0.16805  0.65985  Biso   1.000  O
  C12      1.0000 0.30680  0.02980  0.54090  Biso   1.000  C
  O13      1.0000 0.16940  0.33195  0.84015  Biso   1.000  O
  C13      1.0000 0.80680  0.47020  0.95910  Biso   1.000  C
  O14      1.0000 0.66940  0.83195  0.34015  Biso   1.000  O
  C14      1.0000 0.30680  0.97020  0.45910  Biso   1.000  C
  O15      1.0000 0.83060  0.16805  0.84015  Biso   1.000  O
  C15      1.0000 0.19320  0.02980  0.95910  Biso   1.000  C
  O16      1.0000 0.33060  0.66805  0.34015  Biso   1.000  O
  C16      1.0000 0.69320  0.52980  0.45910  Biso   1.000  C
  Al1      1.0000 0.25000  0.25000  0.75000  Biso   1.000  Al
  Al2      1.0000 0.75000  0.25000  0.75000  Biso   1.000  Al
  Al3      1.0000 0.75000  0.75000  0.25000  Biso   1.000  Al
  Al4      1.0000 0.25000  0.75000  0.25000  Biso   1.000  Al
  F1       1.0000 0.00000  0.25000  0.69390  Biso   1.000  F
  F2       1.0000 0.50000  0.75000  0.19390  Biso   1.000  F
  F3       1.0000 0.00000  0.75000  0.30610  Biso   1.000  F
  F4       1.0000 0.50000  0.25000  0.80610  Biso   1.000  F
  C17      1.0000 0.00000  0.06440  0.94790  Biso   1.000  C
  C18      1.0000 0.00000  0.13760  0.86980  Biso   1.000  C
  C19      1.0000 0.50000  0.56440  0.44790  Biso   1.000  C
  C20      1.0000 0.50000  0.63760  0.36980  Biso   1.000  C
  C21      1.0000 0.00000  0.43560  0.94790  Biso   1.000  C
  C22      1.0000 0.00000  0.36240  0.86980  Biso   1.000  C
  C23      1.0000 0.50000  0.93560  0.44790  Biso   1.000  C
  C24      1.0000 0.50000  0.86240  0.36980  Biso   1.000  C
  C25      1.0000 0.00000  0.56440  0.05210  Biso   1.000  C
  C26      1.0000 0.00000  0.63760  0.13020  Biso   1.000  C
  C27      1.0000 0.50000  0.06440  0.55210  Biso   1.000  C
  C28      1.0000 0.50000  0.13760  0.63020  Biso   1.000  C
  C29      1.0000 0.00000  0.93560  0.05210  Biso   1.000  C
  C30      1.0000 0.00000  0.86240  0.13020  Biso   1.000  C
  C31      1.0000 0.50000  0.43560  0.55210  Biso   1.000  C
  C32      1.0000 0.50000  0.36240  0.63020  Biso   1.000  C
