data_image0
_cell_length_a       6.5581
_cell_length_b       16.425
_cell_length_c       13.1592
_cell_angle_alpha    90
_cell_angle_beta     90
_cell_angle_gamma    90.5028

_symmetry_space_group_name_H-M    "P 1"
_symmetry_int_tables_number       1

loop_
  _symmetry_equiv_pos_as_xyz
  'x, y, z'

loop_
  _atom_site_label
  _atom_site_occupancy
  _atom_site_fract_x
  _atom_site_fract_y
  _atom_site_fract_z
  _atom_site_thermal_displace_type
  _atom_site_B_iso_or_equiv
  _atom_site_type_symbol
  O1       1.0000 0.16050  0.17310  0.84840  Biso   1.000  O
  O2       1.0000 0.81980  0.66140  0.16820  Biso   1.000  O
  C1       1.0000 0.80710  0.02480  0.95240  Biso   1.000  C
  C2       1.0000 0.00450  0.06600  0.94360  Biso   1.000  C
  C3       1.0000 0.99190  0.13500  0.86550  Biso   1.000  C
  C4       1.0000 0.19770  0.53990  0.02430  Biso   1.000  C
  O3       1.0000 0.66050  0.67310  0.34840  Biso   1.000  O
  O4       1.0000 0.31980  0.16140  0.66820  Biso   1.000  O
  C5       1.0000 0.30710  0.52480  0.45240  Biso   1.000  C
  C6       1.0000 0.50450  0.56600  0.44360  Biso   1.000  C
  C7       1.0000 0.49190  0.63500  0.36550  Biso   1.000  C
  C8       1.0000 0.69770  0.03990  0.52430  Biso   1.000  C
  O5       1.0000 0.83950  0.32690  0.84840  Biso   1.000  O
  O6       1.0000 0.18020  0.83860  0.16820  Biso   1.000  O
  C9       1.0000 0.19290  0.47520  0.95240  Biso   1.000  C
  C10      1.0000 0.99550  0.43400  0.94360  Biso   1.000  C
  C11      1.0000 0.00810  0.36500  0.86550  Biso   1.000  C
  C12      1.0000 0.80230  0.96010  0.02430  Biso   1.000  C
  O7       1.0000 0.33950  0.82690  0.34840  Biso   1.000  O
  O8       1.0000 0.68020  0.33860  0.66820  Biso   1.000  O
  C13      1.0000 0.69290  0.97520  0.45240  Biso   1.000  C
  C14      1.0000 0.49550  0.93400  0.44360  Biso   1.000  C
  C15      1.0000 0.50810  0.86500  0.36550  Biso   1.000  C
  C16      1.0000 0.30230  0.46010  0.52430  Biso   1.000  C
  O9       1.0000 0.83950  0.82690  0.15160  Biso   1.000  O
  O10      1.0000 0.18020  0.33860  0.83180  Biso   1.000  O
  C17      1.0000 0.19290  0.97520  0.04760  Biso   1.000  C
  C18      1.0000 0.99550  0.93400  0.05640  Biso   1.000  C
  C19      1.0000 0.00810  0.86500  0.13450  Biso   1.000  C
  C20      1.0000 0.80230  0.46010  0.97570  Biso   1.000  C
  O11      1.0000 0.33950  0.32690  0.65160  Biso   1.000  O
  O12      1.0000 0.68020  0.83860  0.33180  Biso   1.000  O
  C21      1.0000 0.69290  0.47520  0.54760  Biso   1.000  C
  C22      1.0000 0.49550  0.43400  0.55640  Biso   1.000  C
  C23      1.0000 0.50810  0.36500  0.63450  Biso   1.000  C
  C24      1.0000 0.30230  0.96010  0.47570  Biso   1.000  C
  O13      1.0000 0.16050  0.67310  0.15160  Biso   1.000  O
  O14      1.0000 0.81980  0.16140  0.83180  Biso   1.000  O
  C25      1.0000 0.80710  0.52480  0.04760  Biso   1.000  C
  C26      1.0000 0.00450  0.56600  0.05640  Biso   1.000  C
  C27      1.0000 0.99190  0.63500  0.13450  Biso   1.000  C
  C28      1.0000 0.19770  0.03990  0.97570  Biso   1.000  C
  O15      1.0000 0.66050  0.17310  0.65160  Biso   1.000  O
  O16      1.0000 0.31980  0.66140  0.33180  Biso   1.000  O
  C29      1.0000 0.30710  0.02480  0.54760  Biso   1.000  C
  C30      1.0000 0.50450  0.06600  0.55640  Biso   1.000  C
  C31      1.0000 0.49190  0.13500  0.63450  Biso   1.000  C
  C32      1.0000 0.69770  0.53990  0.47570  Biso   1.000  C
  Al1      1.0000 0.25000  0.25000  0.75000  Biso   1.000  Al
  Al2      1.0000 0.75000  0.25000  0.75000  Biso   1.000  Al
  Al3      1.0000 0.75000  0.75000  0.25000  Biso   1.000  Al
  Al4      1.0000 0.25000  0.75000  0.25000  Biso   1.000  Al
  F1       1.0000 0.00000  0.25000  0.69120  Biso   1.000  F
  F2       1.0000 0.50000  0.75000  0.19120  Biso   1.000  F
  F3       1.0000 0.00000  0.75000  0.30880  Biso   1.000  F
  F4       1.0000 0.50000  0.25000  0.80880  Biso   1.000  F
