data_image0
_cell_length_a       6.5677
_cell_length_b       16.4037
_cell_length_c       13.174
_cell_angle_alpha    90
_cell_angle_beta     90
_cell_angle_gamma    90

_symmetry_space_group_name_H-M    "P 1"
_symmetry_int_tables_number       1

loop_
  _symmetry_equiv_pos_as_xyz
  'x, y, z'

loop_
  _atom_site_label
  _atom_site_occupancy
  _atom_site_fract_x
  _atom_site_fract_y
  _atom_site_fract_z
  _atom_site_thermal_displace_type
  _atom_site_B_iso_or_equiv
  _atom_site_type_symbol
  O1       1.0000 0.16870  0.16826  0.83890  Biso   1.000  O
  C1       1.0000 0.80650  0.02980  0.95830  Biso   1.000  C
  O2       1.0000 0.66870  0.66826  0.33890  Biso   1.000  O
  C2       1.0000 0.30650  0.52980  0.45830  Biso   1.000  C
  O3       1.0000 0.83130  0.33174  0.83890  Biso   1.000  O
  C3       1.0000 0.19350  0.47020  0.95830  Biso   1.000  C
  O4       1.0000 0.33130  0.83174  0.33890  Biso   1.000  O
  C4       1.0000 0.69350  0.97020  0.45830  Biso   1.000  C
  O5       1.0000 0.83130  0.66826  0.16110  Biso   1.000  O
  C5       1.0000 0.19350  0.52980  0.04170  Biso   1.000  C
  O6       1.0000 0.33130  0.16826  0.66110  Biso   1.000  O
  C6       1.0000 0.69350  0.02980  0.54170  Biso   1.000  C
  O7       1.0000 0.16870  0.83174  0.16110  Biso   1.000  O
  C7       1.0000 0.80650  0.97020  0.04170  Biso   1.000  C
  O8       1.0000 0.66870  0.33174  0.66110  Biso   1.000  O
  C8       1.0000 0.30650  0.47020  0.54170  Biso   1.000  C
  O9       1.0000 0.83130  0.83174  0.16110  Biso   1.000  O
  C9       1.0000 0.19350  0.97020  0.04170  Biso   1.000  C
  O10      1.0000 0.33130  0.33174  0.66110  Biso   1.000  O
  C10      1.0000 0.69350  0.47020  0.54170  Biso   1.000  C
  O11      1.0000 0.16870  0.66826  0.16110  Biso   1.000  O
  C11      1.0000 0.80650  0.52980  0.04170  Biso   1.000  C
  O12      1.0000 0.66870  0.16826  0.66110  Biso   1.000  O
  C12      1.0000 0.30650  0.02980  0.54170  Biso   1.000  C
  O13      1.0000 0.16870  0.33174  0.83890  Biso   1.000  O
  C13      1.0000 0.80650  0.47020  0.95830  Biso   1.000  C
  O14      1.0000 0.66870  0.83174  0.33890  Biso   1.000  O
  C14      1.0000 0.30650  0.97020  0.45830  Biso   1.000  C
  O15      1.0000 0.83130  0.16826  0.83890  Biso   1.000  O
  C15      1.0000 0.19350  0.02980  0.95830  Biso   1.000  C
  O16      1.0000 0.33130  0.66826  0.33890  Biso   1.000  O
  C16      1.0000 0.69350  0.52980  0.45830  Biso   1.000  C
  Al1      1.0000 0.25000  0.25000  0.75000  Biso   1.000  Al
  Al2      1.0000 0.75000  0.25000  0.75000  Biso   1.000  Al
  Al3      1.0000 0.75000  0.75000  0.25000  Biso   1.000  Al
  Al4      1.0000 0.25000  0.75000  0.25000  Biso   1.000  Al
  F1       1.0000 0.00000  0.25000  0.69400  Biso   1.000  F
  F2       1.0000 0.50000  0.75000  0.19400  Biso   1.000  F
  F3       1.0000 0.00000  0.75000  0.30600  Biso   1.000  F
  F4       1.0000 0.50000  0.25000  0.80600  Biso   1.000  F
  C17      1.0000 0.00000  0.06220  0.94610  Biso   1.000  C
  C18      1.0000 0.00000  0.13870  0.87240  Biso   1.000  C
  C19      1.0000 0.50000  0.56220  0.44610  Biso   1.000  C
  C20      1.0000 0.50000  0.63870  0.37240  Biso   1.000  C
  C21      1.0000 0.00000  0.43780  0.94610  Biso   1.000  C
  C22      1.0000 0.00000  0.36130  0.87240  Biso   1.000  C
  C23      1.0000 0.50000  0.93780  0.44610  Biso   1.000  C
  C24      1.0000 0.50000  0.86130  0.37240  Biso   1.000  C
  C25      1.0000 0.00000  0.56220  0.05390  Biso   1.000  C
  C26      1.0000 0.00000  0.63870  0.12760  Biso   1.000  C
  C27      1.0000 0.50000  0.06220  0.55390  Biso   1.000  C
  C28      1.0000 0.50000  0.13870  0.62760  Biso   1.000  C
  C29      1.0000 0.00000  0.93780  0.05390  Biso   1.000  C
  C30      1.0000 0.00000  0.86130  0.12760  Biso   1.000  C
  C31      1.0000 0.50000  0.43780  0.55390  Biso   1.000  C
  C32      1.0000 0.50000  0.36130  0.62760  Biso   1.000  C
