data_image0
_cell_length_a       13.1395
_cell_length_b       16.4144
_cell_length_c       13.3141
_cell_angle_alpha    89.9984
_cell_angle_beta     90.0035
_cell_angle_gamma    90.6047

_symmetry_space_group_name_H-M    "P 1"
_symmetry_int_tables_number       1

loop_
  _symmetry_equiv_pos_as_xyz
  'x, y, z'

loop_
  _atom_site_label
  _atom_site_occupancy
  _atom_site_fract_x
  _atom_site_fract_y
  _atom_site_fract_z
  _atom_site_thermal_displace_type
  _atom_site_B_iso_or_equiv
  _atom_site_type_symbol
  H1       1.0000 0.41196  0.45984  0.58096  Biso   1.000  H
  H2       1.0000 0.40778  0.58121  0.46586  Biso   1.000  H
  H3       1.0000 0.08819  0.54026  0.41589  Biso   1.000  H
  H4       1.0000 0.09237  0.41891  0.53101  Biso   1.000  H
  H5       1.0000 0.40776  0.08115  0.53073  Biso   1.000  H
  H6       1.0000 0.08814  0.04028  0.58057  Biso   1.000  H
  H7       1.0000 0.15774  0.08054  0.96500  Biso   1.000  H
  H8       1.0000 0.34231  0.91818  0.02982  Biso   1.000  H
  H9       1.0000 0.16186  0.95913  0.08003  Biso   1.000  H
  H10      1.0000 0.33821  0.03958  0.91477  Biso   1.000  H
  H11      1.0000 0.34225  0.41822  0.96645  Biso   1.000  H
  H12      1.0000 0.16187  0.45917  0.91663  Biso   1.000  H
  H13      1.0000 0.09229  0.91899  0.46537  Biso   1.000  H
  H14      1.0000 0.41190  0.95985  0.41553  Biso   1.000  H
  H15      1.0000 0.15764  0.58051  0.03175  Biso   1.000  H
  H16      1.0000 0.33804  0.53955  0.08159  Biso   1.000  H
  H17      1.0000 0.91203  0.45993  0.58104  Biso   1.000  H
  H18      1.0000 0.90785  0.58130  0.46596  Biso   1.000  H
  H19      1.0000 0.58826  0.54038  0.41601  Biso   1.000  H
  H20      1.0000 0.59243  0.41901  0.53111  Biso   1.000  H
  H21      1.0000 0.90785  0.08124  0.53064  Biso   1.000  H
  H22      1.0000 0.58822  0.04040  0.58045  Biso   1.000  H
  H23      1.0000 0.65784  0.08036  0.96474  Biso   1.000  H
  H24      1.0000 0.84237  0.91803  0.02960  Biso   1.000  H
  H25      1.0000 0.66193  0.95896  0.07978  Biso   1.000  H
  H26      1.0000 0.83825  0.03943  0.91457  Biso   1.000  H
  H27      1.0000 0.84231  0.41812  0.96660  Biso   1.000  H
  H28      1.0000 0.66191  0.45903  0.91682  Biso   1.000  H
  H29      1.0000 0.59236  0.91910  0.46525  Biso   1.000  H
  H30      1.0000 0.91198  0.95995  0.41543  Biso   1.000  H
  H31      1.0000 0.65771  0.58037  0.03196  Biso   1.000  H
  H32      1.0000 0.83809  0.53946  0.08174  Biso   1.000  H
  C1       1.0000 0.40850  0.02144  0.95148  Biso   1.000  C
  C2       1.0000 0.99778  0.06680  0.93342  Biso   1.000  C
  C3       1.0000 0.49570  0.13873  0.86498  Biso   1.000  C
  C4       1.0000 0.08928  0.54434  0.01705  Biso   1.000  C
  C5       1.0000 0.15848  0.52218  0.45263  Biso   1.000  C
  C6       1.0000 0.24777  0.56752  0.43446  Biso   1.000  C
  C7       1.0000 0.24566  0.63928  0.36575  Biso   1.000  C
  C8       1.0000 0.33935  0.04504  0.51597  Biso   1.000  C
  C9       1.0000 0.09157  0.47723  0.95336  Biso   1.000  C
  C10      1.0000 0.50227  0.43191  0.93511  Biso   1.000  C
  C11      1.0000 0.00433  0.36040  0.86602  Biso   1.000  C
  C12      1.0000 0.41072  0.95430  0.01514  Biso   1.000  C
  C13      1.0000 0.34160  0.97796  0.45223  Biso   1.000  C
  C14      1.0000 0.25228  0.93268  0.43396  Biso   1.000  C
  C15      1.0000 0.25433  0.86096  0.36517  Biso   1.000  C
  C16      1.0000 0.16076  0.45506  0.51631  Biso   1.000  C
  C17      1.0000 0.09160  0.97720  0.04322  Biso   1.000  C
  C18      1.0000 0.50230  0.93185  0.06133  Biso   1.000  C
  C19      1.0000 0.00431  0.86033  0.13041  Biso   1.000  C
  C20      1.0000 0.41065  0.45434  0.98123  Biso   1.000  C
  C21      1.0000 0.34166  0.47794  0.54425  Biso   1.000  C
  C22      1.0000 0.25235  0.43263  0.56248  Biso   1.000  C
  C23      1.0000 0.25439  0.36092  0.63127  Biso   1.000  C
  C24      1.0000 0.16069  0.95511  0.48011  Biso   1.000  C
  C25      1.0000 0.40837  0.52144  0.04494  Biso   1.000  C
  C26      1.0000 0.99765  0.56679  0.06312  Biso   1.000  C
  C27      1.0000 0.49557  0.63870  0.13160  Biso   1.000  C
  C28      1.0000 0.08936  0.04434  0.97958  Biso   1.000  C
  C29      1.0000 0.15844  0.02220  0.54384  Biso   1.000  C
  C30      1.0000 0.24774  0.06750  0.56208  Biso   1.000  C
  C31      1.0000 0.24567  0.13923  0.63083  Biso   1.000  C
  C32      1.0000 0.33938  0.54507  0.48058  Biso   1.000  C
  C33      1.0000 0.90852  0.02136  0.95137  Biso   1.000  C
  C34      1.0000 0.49780  0.06679  0.93340  Biso   1.000  C
  C35      1.0000 0.99567  0.13875  0.86501  Biso   1.000  C
  C36      1.0000 0.58931  0.54425  0.01718  Biso   1.000  C
  C37      1.0000 0.65855  0.52228  0.45274  Biso   1.000  C
  C38      1.0000 0.74784  0.56762  0.43457  Biso   1.000  C
  C39      1.0000 0.74571  0.63936  0.36583  Biso   1.000  C
  C40      1.0000 0.83943  0.04513  0.51587  Biso   1.000  C
  C41      1.0000 0.59159  0.47715  0.95348  Biso   1.000  C
  C42      1.0000 0.00228  0.43193  0.93509  Biso   1.000  C
  C43      1.0000 0.50432  0.36039  0.86602  Biso   1.000  C
  C44      1.0000 0.91076  0.95422  0.01502  Biso   1.000  C
  C45      1.0000 0.84168  0.97805  0.45213  Biso   1.000  C
  C46      1.0000 0.75236  0.93277  0.43386  Biso   1.000  C
  C47      1.0000 0.75439  0.86104  0.36509  Biso   1.000  C
  C48      1.0000 0.66082  0.45516  0.51641  Biso   1.000  C
  C49      1.0000 0.59164  0.97710  0.04308  Biso   1.000  C
  C50      1.0000 0.00230  0.93186  0.06134  Biso   1.000  C
  C51      1.0000 0.50429  0.86034  0.13043  Biso   1.000  C
  C52      1.0000 0.91069  0.45428  0.98131  Biso   1.000  C
  C53      1.0000 0.84172  0.47803  0.54435  Biso   1.000  C
  C54      1.0000 0.75242  0.43272  0.56256  Biso   1.000  C
  C55      1.0000 0.75444  0.36099  0.63134  Biso   1.000  C
  C56      1.0000 0.66076  0.95522  0.47999  Biso   1.000  C
  C57      1.0000 0.90839  0.52139  0.04501  Biso   1.000  C
  C58      1.0000 0.49766  0.56677  0.06315  Biso   1.000  C
  C59      1.0000 0.99555  0.63871  0.13158  Biso   1.000  C
  C60      1.0000 0.58942  0.04424  0.97942  Biso   1.000  C
  C61      1.0000 0.65852  0.02230  0.54373  Biso   1.000  C
  C62      1.0000 0.74782  0.06760  0.56197  Biso   1.000  C
  C63      1.0000 0.74573  0.13931  0.63075  Biso   1.000  C
  C64      1.0000 0.83945  0.54516  0.48067  Biso   1.000  C
  O1       1.0000 0.08023  0.17480  0.84735  Biso   1.000  O
  O2       1.0000 0.40947  0.65928  0.16719  Biso   1.000  O
  O3       1.0000 0.33021  0.67528  0.34789  Biso   1.000  O
  O4       1.0000 0.15958  0.15973  0.66651  Biso   1.000  O
  O5       1.0000 0.41972  0.32454  0.84793  Biso   1.000  O
  O6       1.0000 0.09036  0.83999  0.16632  Biso   1.000  O
  O7       1.0000 0.16974  0.82502  0.34733  Biso   1.000  O
  O8       1.0000 0.34047  0.34041  0.66699  Biso   1.000  O
  O9       1.0000 0.41968  0.82450  0.14851  Biso   1.000  O
  O10      1.0000 0.09040  0.34005  0.83016  Biso   1.000  O
  O11      1.0000 0.16978  0.32502  0.64916  Biso   1.000  O
  O12      1.0000 0.34041  0.84049  0.32942  Biso   1.000  O
  O13      1.0000 0.08012  0.67477  0.14923  Biso   1.000  O
  O14      1.0000 0.40959  0.15933  0.82942  Biso   1.000  O
  O15      1.0000 0.33025  0.17518  0.64874  Biso   1.000  O
  O16      1.0000 0.15957  0.65972  0.33002  Biso   1.000  O
  O17      1.0000 0.58027  0.17477  0.84728  Biso   1.000  O
  O18      1.0000 0.90947  0.65926  0.16722  Biso   1.000  O
  O19      1.0000 0.83026  0.67536  0.34795  Biso   1.000  O
  O20      1.0000 0.65964  0.15979  0.66643  Biso   1.000  O
  O21      1.0000 0.91974  0.32452  0.84798  Biso   1.000  O
  O22      1.0000 0.59036  0.83996  0.16628  Biso   1.000  O
  O23      1.0000 0.66980  0.82509  0.34728  Biso   1.000  O
  O24      1.0000 0.84051  0.34047  0.66706  Biso   1.000  O
  O25      1.0000 0.91971  0.82445  0.14844  Biso   1.000  O
  O26      1.0000 0.59039  0.34003  0.83018  Biso   1.000  O
  O27      1.0000 0.66983  0.32508  0.64919  Biso   1.000  O
  O28      1.0000 0.84046  0.84056  0.32934  Biso   1.000  O
  O29      1.0000 0.58014  0.67472  0.14929  Biso   1.000  O
  O30      1.0000 0.90957  0.15932  0.82940  Biso   1.000  O
  O31      1.0000 0.83031  0.17525  0.64869  Biso   1.000  O
  O32      1.0000 0.65961  0.65980  0.33011  Biso   1.000  O
  F1       1.0000 0.00002  0.25004  0.68787  Biso   1.000  F
  F2       1.0000 0.24996  0.74986  0.18784  Biso   1.000  F
  F3       1.0000 0.49998  0.75006  0.30867  Biso   1.000  F
  F4       1.0000 0.25001  0.24987  0.80868  Biso   1.000  F
  F5       1.0000 0.50002  0.25004  0.68786  Biso   1.000  F
  F6       1.0000 0.74997  0.74985  0.18785  Biso   1.000  F
  F7       1.0000 0.99998  0.75006  0.30866  Biso   1.000  F
  F8       1.0000 0.75002  0.24988  0.80867  Biso   1.000  F
  Al1      1.0000 0.12501  0.24993  0.74828  Biso   1.000  Al
  Al2      1.0000 0.37496  0.74993  0.24825  Biso   1.000  Al
  Al3      1.0000 0.37501  0.24991  0.74828  Biso   1.000  Al
  Al4      1.0000 0.12496  0.74991  0.24824  Biso   1.000  Al
  Al5      1.0000 0.62502  0.24995  0.74825  Biso   1.000  Al
  Al6      1.0000 0.87498  0.74995  0.24824  Biso   1.000  Al
  Al7      1.0000 0.87503  0.24993  0.74829  Biso   1.000  Al
  Al8      1.0000 0.62498  0.74993  0.24826  Biso   1.000  Al
