data_image0
_cell_length_a       6.5685
_cell_length_b       16.4032
_cell_length_c       13.1796
_cell_angle_alpha    90
_cell_angle_beta     90
_cell_angle_gamma    90

_symmetry_space_group_name_H-M    "P 1"
_symmetry_int_tables_number       1

loop_
  _symmetry_equiv_pos_as_xyz
  'x, y, z'

loop_
  _atom_site_label
  _atom_site_occupancy
  _atom_site_fract_x
  _atom_site_fract_y
  _atom_site_fract_z
  _atom_site_thermal_displace_type
  _atom_site_B_iso_or_equiv
  _atom_site_type_symbol
  O1       1.0000 0.17030  0.16798  0.83950  Biso   1.000  O
  C1       1.0000 0.80510  0.02940  0.95770  Biso   1.000  C
  O2       1.0000 0.67030  0.66798  0.33950  Biso   1.000  O
  C2       1.0000 0.30510  0.52940  0.45770  Biso   1.000  C
  O3       1.0000 0.82970  0.33202  0.83950  Biso   1.000  O
  C3       1.0000 0.19490  0.47060  0.95770  Biso   1.000  C
  O4       1.0000 0.32970  0.83202  0.33950  Biso   1.000  O
  C4       1.0000 0.69490  0.97060  0.45770  Biso   1.000  C
  O5       1.0000 0.82970  0.66798  0.16050  Biso   1.000  O
  C5       1.0000 0.19490  0.52940  0.04230  Biso   1.000  C
  O6       1.0000 0.32970  0.16798  0.66050  Biso   1.000  O
  C6       1.0000 0.69490  0.02940  0.54230  Biso   1.000  C
  O7       1.0000 0.17030  0.83202  0.16050  Biso   1.000  O
  C7       1.0000 0.80510  0.97060  0.04230  Biso   1.000  C
  O8       1.0000 0.67030  0.33202  0.66050  Biso   1.000  O
  C8       1.0000 0.30510  0.47060  0.54230  Biso   1.000  C
  O9       1.0000 0.82970  0.83202  0.16050  Biso   1.000  O
  C9       1.0000 0.19490  0.97060  0.04230  Biso   1.000  C
  O10      1.0000 0.32970  0.33202  0.66050  Biso   1.000  O
  C10      1.0000 0.69490  0.47060  0.54230  Biso   1.000  C
  O11      1.0000 0.17030  0.66798  0.16050  Biso   1.000  O
  C11      1.0000 0.80510  0.52940  0.04230  Biso   1.000  C
  O12      1.0000 0.67030  0.16798  0.66050  Biso   1.000  O
  C12      1.0000 0.30510  0.02940  0.54230  Biso   1.000  C
  O13      1.0000 0.17030  0.33202  0.83950  Biso   1.000  O
  C13      1.0000 0.80510  0.47060  0.95770  Biso   1.000  C
  O14      1.0000 0.67030  0.83202  0.33950  Biso   1.000  O
  C14      1.0000 0.30510  0.97060  0.45770  Biso   1.000  C
  O15      1.0000 0.82970  0.16798  0.83950  Biso   1.000  O
  C15      1.0000 0.19490  0.02940  0.95770  Biso   1.000  C
  O16      1.0000 0.32970  0.66798  0.33950  Biso   1.000  O
  C16      1.0000 0.69490  0.52940  0.45770  Biso   1.000  C
  Al1      1.0000 0.25000  0.25000  0.75000  Biso   1.000  Al
  Al2      1.0000 0.75000  0.25000  0.75000  Biso   1.000  Al
  Al3      1.0000 0.75000  0.75000  0.25000  Biso   1.000  Al
  Al4      1.0000 0.25000  0.75000  0.25000  Biso   1.000  Al
  F1       1.0000 0.00000  0.25000  0.69460  Biso   1.000  F
  F2       1.0000 0.50000  0.75000  0.19460  Biso   1.000  F
  F3       1.0000 0.00000  0.75000  0.30540  Biso   1.000  F
  F4       1.0000 0.50000  0.25000  0.80540  Biso   1.000  F
  C17      1.0000 0.00000  0.06320  0.94390  Biso   1.000  C
  C18      1.0000 0.00000  0.13880  0.86860  Biso   1.000  C
  C19      1.0000 0.50000  0.56320  0.44390  Biso   1.000  C
  C20      1.0000 0.50000  0.63880  0.36860  Biso   1.000  C
  C21      1.0000 0.00000  0.43680  0.94390  Biso   1.000  C
  C22      1.0000 0.00000  0.36120  0.86860  Biso   1.000  C
  C23      1.0000 0.50000  0.93680  0.44390  Biso   1.000  C
  C24      1.0000 0.50000  0.86120  0.36860  Biso   1.000  C
  C25      1.0000 0.00000  0.56320  0.05610  Biso   1.000  C
  C26      1.0000 0.00000  0.63880  0.13140  Biso   1.000  C
  C27      1.0000 0.50000  0.06320  0.55610  Biso   1.000  C
  C28      1.0000 0.50000  0.13880  0.63140  Biso   1.000  C
  C29      1.0000 0.00000  0.93680  0.05610  Biso   1.000  C
  C30      1.0000 0.00000  0.86120  0.13140  Biso   1.000  C
  C31      1.0000 0.50000  0.43680  0.55610  Biso   1.000  C
  C32      1.0000 0.50000  0.36120  0.63140  Biso   1.000  C
