data_image0
_cell_length_a       13.3413
_cell_length_b       16.8336
_cell_length_c       12.973
_cell_angle_alpha    90
_cell_angle_beta     90
_cell_angle_gamma    90

_symmetry_space_group_name_H-M    "P 1"
_symmetry_int_tables_number       1

loop_
  _symmetry_equiv_pos_as_xyz
  'x, y, z'

loop_
  _atom_site_label
  _atom_site_occupancy
  _atom_site_fract_x
  _atom_site_fract_y
  _atom_site_fract_z
  _atom_site_thermal_displace_type
  _atom_site_B_iso_or_equiv
  _atom_site_type_symbol
  H1       1.0000 0.41028  0.45177  0.57492  Biso   1.000  H
  H2       1.0000 0.40992  0.57365  0.46371  Biso   1.000  H
  H3       1.0000 0.09193  0.55086  0.42232  Biso   1.000  H
  H4       1.0000 0.09224  0.42857  0.53324  Biso   1.000  H
  H5       1.0000 0.40754  0.07230  0.53484  Biso   1.000  H
  H6       1.0000 0.08900  0.05069  0.57253  Biso   1.000  H
  H7       1.0000 0.15709  0.07073  0.95813  Biso   1.000  H
  H8       1.0000 0.34448  0.92508  0.03211  Biso   1.000  H
  H9       1.0000 0.15748  0.94879  0.07039  Biso   1.000  H
  H10      1.0000 0.34152  0.04649  0.91884  Biso   1.000  H
  H11      1.0000 0.34214  0.42374  0.96709  Biso   1.000  H
  H12      1.0000 0.15993  0.45016  0.92225  Biso   1.000  H
  H13      1.0000 0.08919  0.92970  0.45912  Biso   1.000  H
  H14      1.0000 0.40791  0.95102  0.42132  Biso   1.000  H
  H15      1.0000 0.15966  0.57142  0.03465  Biso   1.000  H
  H16      1.0000 0.33943  0.54559  0.07837  Biso   1.000  H
  H17      1.0000 0.90720  0.45438  0.57661  Biso   1.000  H
  H18      1.0000 0.90435  0.57601  0.46422  Biso   1.000  H
  H19      1.0000 0.58897  0.54324  0.41343  Biso   1.000  H
  H20      1.0000 0.59175  0.42188  0.52567  Biso   1.000  H
  H21      1.0000 0.90735  0.07552  0.53166  Biso   1.000  H
  H22      1.0000 0.59119  0.04483  0.57880  Biso   1.000  H
  H23      1.0000 0.65779  0.07720  0.96524  Biso   1.000  H
  H24      1.0000 0.83898  0.92711  0.03154  Biso   1.000  H
  H25      1.0000 0.66081  0.95619  0.07880  Biso   1.000  H
  H26      1.0000 0.83869  0.04870  0.91933  Biso   1.000  H
  H27      1.0000 0.84189  0.42678  0.96378  Biso   1.000  H
  H28      1.0000 0.65765  0.45586  0.91614  Biso   1.000  H
  H29      1.0000 0.59411  0.92296  0.46644  Biso   1.000  H
  H30      1.0000 0.91027  0.95400  0.41909  Biso   1.000  H
  H31      1.0000 0.65479  0.57798  0.02757  Biso   1.000  H
  H32      1.0000 0.84160  0.54844  0.07591  Biso   1.000  H
  C1       1.0000 0.41083  0.02604  0.95439  Biso   1.000  C
  C2       1.0000 0.99783  0.06671  0.93269  Biso   1.000  C
  C3       1.0000 0.49773  0.14027  0.86793  Biso   1.000  C
  C4       1.0000 0.09054  0.53929  0.01876  Biso   1.000  C
  C5       1.0000 0.16110  0.52849  0.45619  Biso   1.000  C
  C6       1.0000 0.25085  0.56933  0.43653  Biso   1.000  C
  C7       1.0000 0.24982  0.64182  0.36967  Biso   1.000  C
  C8       1.0000 0.33846  0.04046  0.51761  Biso   1.000  C
  C9       1.0000 0.09078  0.47188  0.95681  Biso   1.000  C
  C10      1.0000 0.50015  0.43237  0.93541  Biso   1.000  C
  C11      1.0000 0.00189  0.35872  0.87010  Biso   1.000  C
  C12      1.0000 0.41249  0.95888  0.01680  Biso   1.000  C
  C13      1.0000 0.33867  0.97338  0.45503  Biso   1.000  C
  C14      1.0000 0.24863  0.93337  0.43389  Biso   1.000  C
  C15      1.0000 0.24946  0.86166  0.36613  Biso   1.000  C
  C16      1.0000 0.16142  0.46068  0.51748  Biso   1.000  C
  C17      1.0000 0.08826  0.97123  0.03674  Biso   1.000  C
  C18      1.0000 0.50289  0.93343  0.06122  Biso   1.000  C
  C19      1.0000 0.99935  0.85875  0.12471  Biso   1.000  C
  C20      1.0000 0.41019  0.45787  0.98068  Biso   1.000  C
  C21      1.0000 0.34108  0.47363  0.54060  Biso   1.000  C
  C22      1.0000 0.25141  0.43259  0.56000  Biso   1.000  C
  C23      1.0000 0.25213  0.35983  0.62630  Biso   1.000  C
  C24      1.0000 0.15845  0.96130  0.47611  Biso   1.000  C
  C25      1.0000 0.40858  0.52563  0.04204  Biso   1.000  C
  C26      1.0000 0.00056  0.56691  0.06170  Biso   1.000  C
  C27      1.0000 0.49533  0.64174  0.12537  Biso   1.000  C
  C28      1.0000 0.08803  0.03869  0.97481  Biso   1.000  C
  C29      1.0000 0.15819  0.02835  0.53870  Biso   1.000  C
  C30      1.0000 0.24821  0.06834  0.55970  Biso   1.000  C
  C31      1.0000 0.24767  0.14012  0.62740  Biso   1.000  C
  C32      1.0000 0.34079  0.54141  0.47925  Biso   1.000  C
  C33      1.0000 0.90792  0.02636  0.95310  Biso   1.000  C
  C34      1.0000 0.49949  0.06858  0.93578  Biso   1.000  C
  C35      1.0000 0.99735  0.13895  0.86570  Biso   1.000  C
  C36      1.0000 0.58691  0.54363  0.01374  Biso   1.000  C
  C37      1.0000 0.65810  0.52348  0.44998  Biso   1.000  C
  C38      1.0000 0.74644  0.56681  0.43293  Biso   1.000  C
  C39      1.0000 0.74504  0.63909  0.36608  Biso   1.000  C
  C40      1.0000 0.83938  0.04153  0.51692  Biso   1.000  C
  C41      1.0000 0.58847  0.47583  0.95239  Biso   1.000  C
  C42      1.0000 0.00107  0.43103  0.93710  Biso   1.000  C
  C43      1.0000 0.50203  0.35975  0.86886  Biso   1.000  C
  C44      1.0000 0.90822  0.95893  0.01508  Biso   1.000  C
  C45      1.0000 0.84096  0.97408  0.45497  Biso   1.000  C
  C46      1.0000 0.75245  0.93116  0.43697  Biso   1.000  C
  C47      1.0000 0.75400  0.85879  0.37007  Biso   1.000  C
  C48      1.0000 0.65975  0.45601  0.51184  Biso   1.000  C
  C49      1.0000 0.59148  0.97614  0.04284  Biso   1.000  C
  C50      1.0000 0.99833  0.93087  0.05734  Biso   1.000  C
  C51      1.0000 0.50437  0.86144  0.12846  Biso   1.000  C
  C52      1.0000 0.91105  0.45882  0.97985  Biso   1.000  C
  C53      1.0000 0.83806  0.47421  0.54015  Biso   1.000  C
  C54      1.0000 0.74974  0.43083  0.55732  Biso   1.000  C
  C55      1.0000 0.75174  0.35862  0.62450  Biso   1.000  C
  C56      1.0000 0.66214  0.95685  0.48137  Biso   1.000  C
  C57      1.0000 0.91074  0.52627  0.04177  Biso   1.000  C
  C58      1.0000 0.49687  0.56907  0.05888  Biso   1.000  C
  C59      1.0000 0.99975  0.63894  0.12903  Biso   1.000  C
  C60      1.0000 0.58984  0.04329  0.98038  Biso   1.000  C
  C61      1.0000 0.66050  0.02431  0.54331  Biso   1.000  C
  C62      1.0000 0.74912  0.06703  0.56154  Biso   1.000  C
  C63      1.0000 0.74748  0.13912  0.62880  Biso   1.000  C
  C64      1.0000 0.83651  0.54168  0.47830  Biso   1.000  C
  O1       1.0000 0.08137  0.17181  0.84682  Biso   1.000  O
  O2       1.0000 0.40968  0.66516  0.15725  Biso   1.000  O
  O3       1.0000 0.33392  0.67507  0.35059  Biso   1.000  O
  O4       1.0000 0.16277  0.16370  0.66001  Biso   1.000  O
  O5       1.0000 0.41830  0.32621  0.84962  Biso   1.000  O
  O6       1.0000 0.08445  0.83570  0.15715  Biso   1.000  O
  O7       1.0000 0.16538  0.82856  0.34657  Biso   1.000  O
  O8       1.0000 0.33758  0.33549  0.65715  Biso   1.000  O
  O9       1.0000 0.42073  0.82857  0.14822  Biso   1.000  O
  O10      1.0000 0.08740  0.33470  0.83911  Biso   1.000  O
  O11      1.0000 0.16783  0.32765  0.64665  Biso   1.000  O
  O12      1.0000 0.33427  0.83851  0.33317  Biso   1.000  O
  O13      1.0000 0.08384  0.67207  0.14816  Biso   1.000  O
  O14      1.0000 0.41274  0.16237  0.83385  Biso   1.000  O
  O15      1.0000 0.33171  0.17263  0.64700  Biso   1.000  O
  O16      1.0000 0.16474  0.66475  0.33716  Biso   1.000  O
  O17      1.0000 0.58114  0.17427  0.84964  Biso   1.000  O
  O18      1.0000 0.91496  0.66204  0.16198  Biso   1.000  O
  O19      1.0000 0.82874  0.67186  0.34655  Biso   1.000  O
  O20      1.0000 0.66261  0.16133  0.66313  Biso   1.000  O
  O21      1.0000 0.91766  0.32663  0.84935  Biso   1.000  O
  O22      1.0000 0.58978  0.83789  0.16083  Biso   1.000  O
  O23      1.0000 0.67032  0.82584  0.35047  Biso   1.000  O
  O24      1.0000 0.83742  0.33604  0.65679  Biso   1.000  O
  O25      1.0000 0.91523  0.82561  0.14435  Biso   1.000  O
  O26      1.0000 0.58765  0.33686  0.83666  Biso   1.000  O
  O27      1.0000 0.66809  0.32514  0.64415  Biso   1.000  O
  O28      1.0000 0.83964  0.83534  0.33804  Biso   1.000  O
  O29      1.0000 0.57903  0.67467  0.14470  Biso   1.000  O
  O30      1.0000 0.91253  0.16263  0.83290  Biso   1.000  O
  O31      1.0000 0.83090  0.17336  0.64642  Biso   1.000  O
  O32      1.0000 0.65965  0.66269  0.33389  Biso   1.000  O
  O33      1.0000 0.00017  0.25109  0.68429  Biso   1.000  O
  O34      1.0000 0.24964  0.75146  0.18386  Biso   1.000  O
  O35      1.0000 0.49956  0.75158  0.31064  Biso   1.000  O
  O36      1.0000 0.25025  0.25030  0.81042  Biso   1.000  O
  O37      1.0000 0.50032  0.25021  0.68461  Biso   1.000  O
  O38      1.0000 0.74980  0.74914  0.18419  Biso   1.000  O
  O39      1.0000 0.99971  0.74926  0.31106  Biso   1.000  O
  O40      1.0000 0.75024  0.25110  0.81047  Biso   1.000  O
  Al1      1.0000 0.12495  0.24906  0.74800  Biso   1.000  Al
  Al2      1.0000 0.37461  0.75213  0.24721  Biso   1.000  Al
  Al3      1.0000 0.37511  0.24884  0.74704  Biso   1.000  Al
  Al4      1.0000 0.12463  0.75047  0.24731  Biso   1.000  Al
  Al5      1.0000 0.62503  0.24900  0.74820  Biso   1.000  Al
  Al6      1.0000 0.87473  0.74879  0.24774  Biso   1.000  Al
  Al7      1.0000 0.87488  0.24921  0.74658  Biso   1.000  Al
  Al8      1.0000 0.62471  0.75048  0.24750  Biso   1.000  Al
  H33      1.0000 0.24966  0.72405  0.11816  Biso   1.000  H
  H34      1.0000 0.75060  0.77684  0.11868  Biso   1.000  H
  H35      1.0000 0.49883  0.72551  0.37725  Biso   1.000  H
  H36      1.0000 0.99979  0.77823  0.37566  Biso   1.000  H
  H37      1.0000 0.25074  0.27314  0.87895  Biso   1.000  H
  H38      1.0000 0.75098  0.27624  0.87764  Biso   1.000  H
  H39      1.0000 0.50088  0.27347  0.61632  Biso   1.000  H
  H40      1.0000 0.00082  0.27594  0.61694  Biso   1.000  H
