data_image0
_cell_length_a       6.568
_cell_length_b       16.4018
_cell_length_c       13.183
_cell_angle_alpha    90
_cell_angle_beta     90
_cell_angle_gamma    90

_symmetry_space_group_name_H-M    "P 1"
_symmetry_int_tables_number       1

loop_
  _symmetry_equiv_pos_as_xyz
  'x, y, z'

loop_
  _atom_site_label
  _atom_site_occupancy
  _atom_site_fract_x
  _atom_site_fract_y
  _atom_site_fract_z
  _atom_site_thermal_displace_type
  _atom_site_B_iso_or_equiv
  _atom_site_type_symbol
  O1       1.0000 0.16990  0.16825  0.84130  Biso   1.000  O
  C1       1.0000 0.80410  0.02910  0.95670  Biso   1.000  C
  O2       1.0000 0.66990  0.66825  0.34130  Biso   1.000  O
  C2       1.0000 0.30410  0.52910  0.45670  Biso   1.000  C
  O3       1.0000 0.83010  0.33175  0.84130  Biso   1.000  O
  C3       1.0000 0.19590  0.47090  0.95670  Biso   1.000  C
  O4       1.0000 0.33010  0.83175  0.34130  Biso   1.000  O
  C4       1.0000 0.69590  0.97090  0.45670  Biso   1.000  C
  O5       1.0000 0.83010  0.66825  0.15870  Biso   1.000  O
  C5       1.0000 0.19590  0.52910  0.04330  Biso   1.000  C
  O6       1.0000 0.33010  0.16825  0.65870  Biso   1.000  O
  C6       1.0000 0.69590  0.02910  0.54330  Biso   1.000  C
  O7       1.0000 0.16990  0.83175  0.15870  Biso   1.000  O
  C7       1.0000 0.80410  0.97090  0.04330  Biso   1.000  C
  O8       1.0000 0.66990  0.33175  0.65870  Biso   1.000  O
  C8       1.0000 0.30410  0.47090  0.54330  Biso   1.000  C
  O9       1.0000 0.83010  0.83175  0.15870  Biso   1.000  O
  C9       1.0000 0.19590  0.97090  0.04330  Biso   1.000  C
  O10      1.0000 0.33010  0.33175  0.65870  Biso   1.000  O
  C10      1.0000 0.69590  0.47090  0.54330  Biso   1.000  C
  O11      1.0000 0.16990  0.66825  0.15870  Biso   1.000  O
  C11      1.0000 0.80410  0.52910  0.04330  Biso   1.000  C
  O12      1.0000 0.66990  0.16825  0.65870  Biso   1.000  O
  C12      1.0000 0.30410  0.02910  0.54330  Biso   1.000  C
  O13      1.0000 0.16990  0.33175  0.84130  Biso   1.000  O
  C13      1.0000 0.80410  0.47090  0.95670  Biso   1.000  C
  O14      1.0000 0.66990  0.83175  0.34130  Biso   1.000  O
  C14      1.0000 0.30410  0.97090  0.45670  Biso   1.000  C
  O15      1.0000 0.83010  0.16825  0.84130  Biso   1.000  O
  C15      1.0000 0.19590  0.02910  0.95670  Biso   1.000  C
  O16      1.0000 0.33010  0.66825  0.34130  Biso   1.000  O
  C16      1.0000 0.69590  0.52910  0.45670  Biso   1.000  C
  Al1      1.0000 0.25000  0.25000  0.75000  Biso   1.000  Al
  Al2      1.0000 0.75000  0.25000  0.75000  Biso   1.000  Al
  Al3      1.0000 0.75000  0.75000  0.25000  Biso   1.000  Al
  Al4      1.0000 0.25000  0.75000  0.25000  Biso   1.000  Al
  F1       1.0000 0.00000  0.25000  0.69460  Biso   1.000  F
  F2       1.0000 0.50000  0.75000  0.19460  Biso   1.000  F
  F3       1.0000 0.00000  0.75000  0.30540  Biso   1.000  F
  F4       1.0000 0.50000  0.25000  0.80540  Biso   1.000  F
  C17      1.0000 0.00000  0.06290  0.94640  Biso   1.000  C
  C18      1.0000 0.00000  0.13720  0.86620  Biso   1.000  C
  C19      1.0000 0.50000  0.56290  0.44640  Biso   1.000  C
  C20      1.0000 0.50000  0.63720  0.36620  Biso   1.000  C
  C21      1.0000 0.00000  0.43710  0.94640  Biso   1.000  C
  C22      1.0000 0.00000  0.36280  0.86620  Biso   1.000  C
  C23      1.0000 0.50000  0.93710  0.44640  Biso   1.000  C
  C24      1.0000 0.50000  0.86280  0.36620  Biso   1.000  C
  C25      1.0000 0.00000  0.56290  0.05360  Biso   1.000  C
  C26      1.0000 0.00000  0.63720  0.13380  Biso   1.000  C
  C27      1.0000 0.50000  0.06290  0.55360  Biso   1.000  C
  C28      1.0000 0.50000  0.13720  0.63380  Biso   1.000  C
  C29      1.0000 0.00000  0.93710  0.05360  Biso   1.000  C
  C30      1.0000 0.00000  0.86280  0.13380  Biso   1.000  C
  C31      1.0000 0.50000  0.43710  0.55360  Biso   1.000  C
  C32      1.0000 0.50000  0.36280  0.63380  Biso   1.000  C
