data_image0
_cell_length_a       13.51
_cell_length_b       27.37
_cell_length_c       27.991
_cell_angle_alpha    90
_cell_angle_beta     90
_cell_angle_gamma    90

_symmetry_space_group_name_H-M    P 1
_symmetry_int_tables_number       1

loop_
  _symmetry_equiv_pos_as_xyz
  'x, y, z'

loop_
  _atom_site_label
  _atom_site_occupancy
  _atom_site_fract_x
  _atom_site_fract_y
  _atom_site_fract_z
  _atom_site_thermal_displace_type
  _atom_site_B_iso_or_equiv
  _atom_site_type_symbol
  Zn1      1.0000 0.38402  0.50370  0.04142  Biso   1.000  Zn
  Zn2      1.0000 0.59191  0.46380  0.97295  Biso   1.000  Zn
  Zn3      1.0000 0.26001  0.68700  0.74480  Biso   1.000  Zn
  Zn4      1.0000 0.06382  0.76478  0.78483  Biso   1.000  Zn
  Zn5      1.0000 0.11598  0.49630  0.54142  Biso   1.000  Zn
  Zn6      1.0000 0.90809  0.53620  0.47295  Biso   1.000  Zn
  Zn7      1.0000 0.23999  0.31300  0.24480  Biso   1.000  Zn
  Zn8      1.0000 0.43618  0.23522  0.28483  Biso   1.000  Zn
  Zn9      1.0000 0.61598  0.00370  0.45858  Biso   1.000  Zn
  Zn10     1.0000 0.40809  0.96380  0.52705  Biso   1.000  Zn
  Zn11     1.0000 0.73999  0.18700  0.75520  Biso   1.000  Zn
  Zn12     1.0000 0.93618  0.26478  0.71517  Biso   1.000  Zn
  Zn13     1.0000 0.88402  0.99630  0.95858  Biso   1.000  Zn
  Zn14     1.0000 0.09191  0.03620  0.02705  Biso   1.000  Zn
  Zn15     1.0000 0.76001  0.81300  0.25520  Biso   1.000  Zn
  Zn16     1.0000 0.56382  0.73522  0.21517  Biso   1.000  Zn
  H1       1.0000 0.02300  0.68100  0.90700  Biso   1.000  H
  H2       1.0000 0.28040  0.61170  0.87900  Biso   1.000  H
  H3       1.0000 0.13160  0.58900  0.00260  Biso   1.000  H
  H4       1.0000 0.69110  0.37430  0.07540  Biso   1.000  H
  H5       1.0000 0.43370  0.38970  0.14550  Biso   1.000  H
  H6       1.0000 0.62760  0.28280  0.17960  Biso   1.000  H
  H7       1.0000 0.74590  0.58470  0.99020  Biso   1.000  H
  H8       1.0000 0.56920  0.62210  0.10010  Biso   1.000  H
  H9       1.0000 0.84000  0.68360  0.08420  Biso   1.000  H
  H10      1.0000 0.50560  0.20680  0.85110  Biso   1.000  H
  H11      1.0000 0.64840  0.32980  0.89270  Biso   1.000  H
  H12      1.0000 0.37190  0.29870  0.93780  Biso   1.000  H
  H13      1.0000 0.29410  0.60100  0.08700  Biso   1.000  H
  H14      1.0000 0.19970  0.56760  0.09930  Biso   1.000  H
  H15      1.0000 0.21480  0.58140  0.18140  Biso   1.000  H
  H16      1.0000 0.26960  0.63080  0.16410  Biso   1.000  H
  H17      1.0000 0.41740  0.60070  0.17790  Biso   1.000  H
  H18      1.0000 0.35930  0.56470  0.21360  Biso   1.000  H
  H19      1.0000 0.38080  0.50270  0.16680  Biso   1.000  H
  H20      1.0000 0.46070  0.53570  0.13940  Biso   1.000  H
  H21      1.0000 0.65060  0.42670  0.86350  Biso   1.000  H
  H22      1.0000 0.53480  0.43650  0.85490  Biso   1.000  H
  H23      1.0000 0.69520  0.48860  0.81270  Biso   1.000  H
  H24      1.0000 0.60030  0.46500  0.78570  Biso   1.000  H
  H25      1.0000 0.58310  0.55290  0.80950  Biso   1.000  H
  H26      1.0000 0.49230  0.51750  0.82300  Biso   1.000  H
  H27      1.0000 0.52380  0.54840  0.89660  Biso   1.000  H
  H28      1.0000 0.64070  0.55430  0.88600  Biso   1.000  H
  H29      1.0000 0.78710  0.49670  0.02710  Biso   1.000  H
  H30      1.0000 0.82590  0.44140  0.02850  Biso   1.000  H
  H31      1.0000 0.96860  0.47470  0.00910  Biso   1.000  H
  H32      1.0000 0.91660  0.52210  0.98530  Biso   1.000  H
  H33      1.0000 0.95820  0.47610  0.91970  Biso   1.000  H
  H34      1.0000 0.92440  0.42600  0.94570  Biso   1.000  H
  H35      1.0000 0.78830  0.45260  0.90130  Biso   1.000  H
  H36      1.0000 0.79860  0.50680  0.92310  Biso   1.000  H
  H37      1.0000 0.23350  0.58770  0.67650  Biso   1.000  H
  H38      1.0000 0.33050  0.61660  0.65940  Biso   1.000  H
  H39      1.0000 0.31620  0.52040  0.67260  Biso   1.000  H
  H40      1.0000 0.41590  0.55000  0.66010  Biso   1.000  H
  H41      1.0000 0.37690  0.50710  0.74340  Biso   1.000  H
  H42      1.0000 0.46850  0.54330  0.73330  Biso   1.000  H
  H43      1.0000 0.39440  0.59280  0.78370  Biso   1.000  H
  H44      1.0000 0.29060  0.56460  0.77890  Biso   1.000  H
  H45      1.0000 0.08080  0.89660  0.76170  Biso   1.000  H
  H46      1.0000 0.17900  0.86410  0.75540  Biso   1.000  H
  H47      1.0000 0.18200  0.87440  0.67700  Biso   1.000  H
  H48      1.0000 0.13390  0.92590  0.69290  Biso   1.000  H
  H49      1.0000 0.04050  0.87240  0.63620  Biso   1.000  H
  H50      1.0000 0.98080  0.90090  0.67750  Biso   1.000  H
  H51      1.0000 0.02940  0.80260  0.67270  Biso   1.000  H
  H52      1.0000 0.93380  0.82760  0.69660  Biso   1.000  H
  H53      1.0000 0.47700  0.31900  0.40700  Biso   1.000  H
  H54      1.0000 0.21960  0.38830  0.37900  Biso   1.000  H
  H55      1.0000 0.36840  0.41100  0.50260  Biso   1.000  H
  H56      1.0000 0.80890  0.62570  0.57540  Biso   1.000  H
  H57      1.0000 0.06630  0.61030  0.64550  Biso   1.000  H
  H58      1.0000 0.87240  0.71720  0.67960  Biso   1.000  H
  H59      1.0000 0.75410  0.41530  0.49020  Biso   1.000  H
  H60      1.0000 0.93080  0.37790  0.60010  Biso   1.000  H
  H61      1.0000 0.66000  0.31640  0.58420  Biso   1.000  H
  H62      1.0000 0.99440  0.79320  0.35110  Biso   1.000  H
  H63      1.0000 0.85160  0.67020  0.39270  Biso   1.000  H
  H64      1.0000 0.12810  0.70130  0.43780  Biso   1.000  H
  H65      1.0000 0.20590  0.39900  0.58700  Biso   1.000  H
  H66      1.0000 0.30030  0.43240  0.59930  Biso   1.000  H
  H67      1.0000 0.28520  0.41860  0.68140  Biso   1.000  H
  H68      1.0000 0.23040  0.36920  0.66410  Biso   1.000  H
  H69      1.0000 0.08260  0.39930  0.67790  Biso   1.000  H
  H70      1.0000 0.14070  0.43530  0.71360  Biso   1.000  H
  H71      1.0000 0.11920  0.49730  0.66680  Biso   1.000  H
  H72      1.0000 0.03930  0.46430  0.63940  Biso   1.000  H
  H73      1.0000 0.84940  0.57330  0.36350  Biso   1.000  H
  H74      1.0000 0.96520  0.56350  0.35490  Biso   1.000  H
  H75      1.0000 0.80480  0.51140  0.31270  Biso   1.000  H
  H76      1.0000 0.89970  0.53500  0.28570  Biso   1.000  H
  H77      1.0000 0.91690  0.44710  0.30950  Biso   1.000  H
  H78      1.0000 0.00770  0.48250  0.32300  Biso   1.000  H
  H79      1.0000 0.97620  0.45160  0.39660  Biso   1.000  H
  H80      1.0000 0.85930  0.44570  0.38600  Biso   1.000  H
  H81      1.0000 0.71290  0.50330  0.52710  Biso   1.000  H
  H82      1.0000 0.67410  0.55860  0.52850  Biso   1.000  H
  H83      1.0000 0.53140  0.52530  0.50910  Biso   1.000  H
  H84      1.0000 0.58340  0.47790  0.48530  Biso   1.000  H
  H85      1.0000 0.54180  0.52390  0.41970  Biso   1.000  H
  H86      1.0000 0.57560  0.57400  0.44570  Biso   1.000  H
  H87      1.0000 0.71170  0.54740  0.40130  Biso   1.000  H
  H88      1.0000 0.70140  0.49320  0.42310  Biso   1.000  H
  H89      1.0000 0.26650  0.41230  0.17650  Biso   1.000  H
  H90      1.0000 0.16950  0.38340  0.15940  Biso   1.000  H
  H91      1.0000 0.18380  0.47960  0.17260  Biso   1.000  H
  H92      1.0000 0.08410  0.45000  0.16010  Biso   1.000  H
  H93      1.0000 0.12310  0.49290  0.24340  Biso   1.000  H
  H94      1.0000 0.03150  0.45670  0.23330  Biso   1.000  H
  H95      1.0000 0.10560  0.40720  0.28370  Biso   1.000  H
  H96      1.0000 0.20940  0.43540  0.27890  Biso   1.000  H
  H97      1.0000 0.41920  0.10340  0.26170  Biso   1.000  H
  H98      1.0000 0.32100  0.13590  0.25540  Biso   1.000  H
  H99      1.0000 0.31800  0.12560  0.17700  Biso   1.000  H
  H100     1.0000 0.36610  0.07410  0.19290  Biso   1.000  H
  H101     1.0000 0.45950  0.12760  0.13620  Biso   1.000  H
  H102     1.0000 0.51920  0.09910  0.17750  Biso   1.000  H
  H103     1.0000 0.47060  0.19740  0.17270  Biso   1.000  H
  H104     1.0000 0.56620  0.17240  0.19660  Biso   1.000  H
  H105     1.0000 0.97700  0.18100  0.59300  Biso   1.000  H
  H106     1.0000 0.71960  0.11170  0.62100  Biso   1.000  H
  H107     1.0000 0.86840  0.08900  0.49740  Biso   1.000  H
  H108     1.0000 0.30890  0.87430  0.42460  Biso   1.000  H
  H109     1.0000 0.56630  0.88970  0.35450  Biso   1.000  H
  H110     1.0000 0.37240  0.78280  0.32040  Biso   1.000  H
  H111     1.0000 0.25410  0.08470  0.50980  Biso   1.000  H
  H112     1.0000 0.43080  0.12210  0.39990  Biso   1.000  H
  H113     1.0000 0.16000  0.18360  0.41580  Biso   1.000  H
  H114     1.0000 0.49440  0.70680  0.64890  Biso   1.000  H
  H115     1.0000 0.35160  0.82980  0.60730  Biso   1.000  H
  H116     1.0000 0.62810  0.79870  0.56220  Biso   1.000  H
  H117     1.0000 0.70590  0.10100  0.41300  Biso   1.000  H
  H118     1.0000 0.80030  0.06760  0.40070  Biso   1.000  H
  H119     1.0000 0.78520  0.08140  0.31860  Biso   1.000  H
  H120     1.0000 0.73040  0.13080  0.33590  Biso   1.000  H
  H121     1.0000 0.58260  0.10070  0.32210  Biso   1.000  H
  H122     1.0000 0.64070  0.06470  0.28640  Biso   1.000  H
  H123     1.0000 0.61920  0.00270  0.33320  Biso   1.000  H
  H124     1.0000 0.53930  0.03570  0.36060  Biso   1.000  H
  H125     1.0000 0.34940  0.92670  0.63650  Biso   1.000  H
  H126     1.0000 0.46520  0.93650  0.64510  Biso   1.000  H
  H127     1.0000 0.30480  0.98860  0.68730  Biso   1.000  H
  H128     1.0000 0.39970  0.96500  0.71430  Biso   1.000  H
  H129     1.0000 0.41690  0.05290  0.69050  Biso   1.000  H
  H130     1.0000 0.50770  0.01750  0.67700  Biso   1.000  H
  H131     1.0000 0.47620  0.04840  0.60340  Biso   1.000  H
  H132     1.0000 0.35930  0.05430  0.61400  Biso   1.000  H
  H133     1.0000 0.21290  0.99670  0.47290  Biso   1.000  H
  H134     1.0000 0.17410  0.94140  0.47150  Biso   1.000  H
  H135     1.0000 0.03140  0.97470  0.49090  Biso   1.000  H
  H136     1.0000 0.08340  0.02210  0.51470  Biso   1.000  H
  H137     1.0000 0.04180  0.97610  0.58030  Biso   1.000  H
  H138     1.0000 0.07560  0.92600  0.55430  Biso   1.000  H
  H139     1.0000 0.21170  0.95260  0.59870  Biso   1.000  H
  H140     1.0000 0.20140  0.00680  0.57690  Biso   1.000  H
  H141     1.0000 0.76650  0.08770  0.82350  Biso   1.000  H
  H142     1.0000 0.66950  0.11660  0.84060  Biso   1.000  H
  H143     1.0000 0.68380  0.02040  0.82740  Biso   1.000  H
  H144     1.0000 0.58410  0.05000  0.83990  Biso   1.000  H
  H145     1.0000 0.62310  0.00710  0.75660  Biso   1.000  H
  H146     1.0000 0.53150  0.04330  0.76670  Biso   1.000  H
  H147     1.0000 0.60560  0.09280  0.71630  Biso   1.000  H
  H148     1.0000 0.70940  0.06460  0.72110  Biso   1.000  H
  H149     1.0000 0.91920  0.39660  0.73830  Biso   1.000  H
  H150     1.0000 0.82100  0.36410  0.74460  Biso   1.000  H
  H151     1.0000 0.81800  0.37440  0.82300  Biso   1.000  H
  H152     1.0000 0.86610  0.42590  0.80710  Biso   1.000  H
  H153     1.0000 0.95950  0.37240  0.86380  Biso   1.000  H
  H154     1.0000 0.01920  0.40090  0.82250  Biso   1.000  H
  H155     1.0000 0.97060  0.30260  0.82730  Biso   1.000  H
  H156     1.0000 0.06620  0.32760  0.80340  Biso   1.000  H
  H157     1.0000 0.52300  0.81900  0.09300  Biso   1.000  H
  H158     1.0000 0.78040  0.88830  0.12100  Biso   1.000  H
  H159     1.0000 0.63160  0.91100  0.99740  Biso   1.000  H
  H160     1.0000 0.19110  0.12570  0.92460  Biso   1.000  H
  H161     1.0000 0.93370  0.11030  0.85450  Biso   1.000  H
  H162     1.0000 0.12760  0.21720  0.82040  Biso   1.000  H
  H163     1.0000 0.24590  0.91530  0.00980  Biso   1.000  H
  H164     1.0000 0.06920  0.87790  0.89990  Biso   1.000  H
  H165     1.0000 0.34000  0.81640  0.91580  Biso   1.000  H
  H166     1.0000 0.00560  0.29320  0.14890  Biso   1.000  H
  H167     1.0000 0.14840  0.17020  0.10730  Biso   1.000  H
  H168     1.0000 0.87190  0.20130  0.06220  Biso   1.000  H
  H169     1.0000 0.79410  0.89900  0.91300  Biso   1.000  H
  H170     1.0000 0.69970  0.93240  0.90070  Biso   1.000  H
  H171     1.0000 0.71480  0.91860  0.81860  Biso   1.000  H
  H172     1.0000 0.76960  0.86920  0.83590  Biso   1.000  H
  H173     1.0000 0.91740  0.89930  0.82210  Biso   1.000  H
  H174     1.0000 0.85930  0.93530  0.78640  Biso   1.000  H
  H175     1.0000 0.88080  0.99730  0.83320  Biso   1.000  H
  H176     1.0000 0.96070  0.96430  0.86060  Biso   1.000  H
  H177     1.0000 0.15060  0.07330  0.13650  Biso   1.000  H
  H178     1.0000 0.03480  0.06350  0.14510  Biso   1.000  H
  H179     1.0000 0.19520  0.01140  0.18730  Biso   1.000  H
  H180     1.0000 0.10030  0.03500  0.21430  Biso   1.000  H
  H181     1.0000 0.08310  0.94710  0.19050  Biso   1.000  H
  H182     1.0000 0.99230  0.98250  0.17700  Biso   1.000  H
  H183     1.0000 0.02380  0.95160  0.10340  Biso   1.000  H
  H184     1.0000 0.14070  0.94570  0.11400  Biso   1.000  H
  H185     1.0000 0.28710  0.00330  0.97290  Biso   1.000  H
  H186     1.0000 0.32590  0.05860  0.97150  Biso   1.000  H
  H187     1.0000 0.46860  0.02530  0.99090  Biso   1.000  H
  H188     1.0000 0.41660  0.97790  0.01470  Biso   1.000  H
  H189     1.0000 0.45820  0.02390  0.08030  Biso   1.000  H
  H190     1.0000 0.42440  0.07400  0.05430  Biso   1.000  H
  H191     1.0000 0.28830  0.04740  0.09870  Biso   1.000  H
  H192     1.0000 0.29860  0.99320  0.07690  Biso   1.000  H
  H193     1.0000 0.73350  0.91230  0.32350  Biso   1.000  H
  H194     1.0000 0.83050  0.88340  0.34060  Biso   1.000  H
  H195     1.0000 0.81620  0.97960  0.32740  Biso   1.000  H
  H196     1.0000 0.91590  0.95000  0.33990  Biso   1.000  H
  H197     1.0000 0.87690  0.99290  0.25660  Biso   1.000  H
  H198     1.0000 0.96850  0.95670  0.26670  Biso   1.000  H
  H199     1.0000 0.89440  0.90720  0.21630  Biso   1.000  H
  H200     1.0000 0.79060  0.93540  0.22110  Biso   1.000  H
  H201     1.0000 0.58080  0.60340  0.23830  Biso   1.000  H
  H202     1.0000 0.67900  0.63590  0.24460  Biso   1.000  H
  H203     1.0000 0.68200  0.62560  0.32300  Biso   1.000  H
  H204     1.0000 0.63390  0.57410  0.30710  Biso   1.000  H
  H205     1.0000 0.54050  0.62760  0.36380  Biso   1.000  H
  H206     1.0000 0.48080  0.59910  0.32250  Biso   1.000  H
  H207     1.0000 0.52940  0.69740  0.32730  Biso   1.000  H
  H208     1.0000 0.43380  0.67240  0.30340  Biso   1.000  H
  Pd1      1.0000 0.93492  0.63725  0.99568  Biso   1.000  Pd
  Pd2      1.0000 0.79978  0.28868  0.11457  Biso   1.000  Pd
  Pd3      1.0000 0.56508  0.36275  0.49568  Biso   1.000  Pd
  Pd4      1.0000 0.70022  0.71132  0.61457  Biso   1.000  Pd
  Pd5      1.0000 0.06508  0.13725  0.50432  Biso   1.000  Pd
  Pd6      1.0000 0.20022  0.78868  0.38543  Biso   1.000  Pd
  Pd7      1.0000 0.43492  0.86275  0.00432  Biso   1.000  Pd
  Pd8      1.0000 0.29978  0.21132  0.88543  Biso   1.000  Pd
  C1       1.0000 0.07260  0.65820  0.91610  Biso   1.000  C
  C2       1.0000 0.15230  0.65120  0.88590  Biso   1.000  C
  C3       1.0000 0.22600  0.61830  0.89950  Biso   1.000  C
  C4       1.0000 0.21810  0.59550  0.94350  Biso   1.000  C
  C5       1.0000 0.13600  0.60430  0.97230  Biso   1.000  C
  C6       1.0000 0.15660  0.67730  0.83850  Biso   1.000  C
  C7       1.0000 0.29630  0.55940  0.96130  Biso   1.000  C
  C8       1.0000 0.64670  0.36350  0.09940  Biso   1.000  C
  C9       1.0000 0.55640  0.38800  0.10590  Biso   1.000  C
  C10      1.0000 0.49440  0.37290  0.14040  Biso   1.000  C
  C11      1.0000 0.51850  0.33290  0.16850  Biso   1.000  C
  C12      1.0000 0.60920  0.30990  0.16050  Biso   1.000  C
  C13      1.0000 0.53120  0.43060  0.07350  Biso   1.000  C
  C14      1.0000 0.45230  0.31240  0.20690  Biso   1.000  C
  C15      1.0000 0.73500  0.60360  0.01820  Biso   1.000  C
  C16      1.0000 0.64730  0.59780  0.04260  Biso   1.000  C
  C17      1.0000 0.62960  0.62520  0.08300  Biso   1.000  C
  C18      1.0000 0.70280  0.65790  0.09810  Biso   1.000  C
  C19      1.0000 0.79000  0.66200  0.07310  Biso   1.000  C
  C20      1.0000 0.69070  0.68700  0.14370  Biso   1.000  C
  C21      1.0000 0.57570  0.55930  0.02460  Biso   1.000  C
  C22      1.0000 0.50690  0.23650  0.86870  Biso   1.000  C
  C23      1.0000 0.59190  0.26600  0.86760  Biso   1.000  C
  C24      1.0000 0.59240  0.30880  0.89350  Biso   1.000  C
  C25      1.0000 0.51100  0.32090  0.92080  Biso   1.000  C
  C26      1.0000 0.42880  0.29020  0.91970  Biso   1.000  C
  C27      1.0000 0.67450  0.25330  0.83300  Biso   1.000  C
  C28      1.0000 0.50480  0.36860  0.94740  Biso   1.000  C
  C29      1.0000 0.26830  0.57560  0.10890  Biso   1.000  C
  C30      1.0000 0.27100  0.59460  0.16270  Biso   1.000  C
  C31      1.0000 0.36540  0.57540  0.17990  Biso   1.000  C
  C32      1.0000 0.39030  0.53360  0.14890  Biso   1.000  C
  C33      1.0000 0.60010  0.45240  0.85860  Biso   1.000  C
  C34      1.0000 0.62400  0.48090  0.81530  Biso   1.000  C
  C35      1.0000 0.56300  0.52410  0.82870  Biso   1.000  C
  C36      1.0000 0.58190  0.53320  0.88100  Biso   1.000  C
  C37      1.0000 0.81630  0.47010  0.00750  Biso   1.000  C
  C38      1.0000 0.91310  0.48620  0.98880  Biso   1.000  C
  C39      1.0000 0.91120  0.46140  0.94270  Biso   1.000  C
  C40      1.0000 0.80760  0.47160  0.93000  Biso   1.000  C
  C41      1.0000 0.30400  0.59400  0.68380  Biso   1.000  C
  C42      1.0000 0.36000  0.54770  0.68260  Biso   1.000  C
  C43      1.0000 0.39600  0.54000  0.73180  Biso   1.000  C
  C44      1.0000 0.34700  0.57860  0.76080  Biso   1.000  C
  C45      1.0000 0.11360  0.87180  0.74140  Biso   1.000  C
  C46      1.0000 0.12500  0.89000  0.69320  Biso   1.000  C
  C47      1.0000 0.03200  0.87610  0.67120  Biso   1.000  C
  C48      1.0000 0.00650  0.83010  0.69290  Biso   1.000  C
  C49      1.0000 0.42740  0.34180  0.41610  Biso   1.000  C
  C50      1.0000 0.34770  0.34880  0.38590  Biso   1.000  C
  C51      1.0000 0.27400  0.38170  0.39950  Biso   1.000  C
  C52      1.0000 0.28190  0.40450  0.44350  Biso   1.000  C
  C53      1.0000 0.36400  0.39570  0.47230  Biso   1.000  C
  C54      1.0000 0.34340  0.32270  0.33850  Biso   1.000  C
  C55      1.0000 0.20370  0.44060  0.46130  Biso   1.000  C
  C56      1.0000 0.85330  0.63650  0.59940  Biso   1.000  C
  C57      1.0000 0.94360  0.61200  0.60590  Biso   1.000  C
  C58      1.0000 0.00560  0.62710  0.64040  Biso   1.000  C
  C59      1.0000 0.98150  0.66710  0.66850  Biso   1.000  C
  C60      1.0000 0.89080  0.69010  0.66050  Biso   1.000  C
  C61      1.0000 0.96880  0.56940  0.57350  Biso   1.000  C
  C62      1.0000 0.04770  0.68760  0.70690  Biso   1.000  C
  C63      1.0000 0.76500  0.39640  0.51820  Biso   1.000  C
  C64      1.0000 0.85270  0.40220  0.54260  Biso   1.000  C
  C65      1.0000 0.87040  0.37480  0.58300  Biso   1.000  C
  C66      1.0000 0.79720  0.34210  0.59810  Biso   1.000  C
  C67      1.0000 0.71000  0.33800  0.57310  Biso   1.000  C
  C68      1.0000 0.80930  0.31300  0.64370  Biso   1.000  C
  C69      1.0000 0.92430  0.44070  0.52460  Biso   1.000  C
  C70      1.0000 0.99310  0.76350  0.36870  Biso   1.000  C
  C71      1.0000 0.90810  0.73400  0.36760  Biso   1.000  C
  C72      1.0000 0.90760  0.69120  0.39350  Biso   1.000  C
  C73      1.0000 0.98900  0.67910  0.42080  Biso   1.000  C
  C74      1.0000 0.07120  0.70980  0.41970  Biso   1.000  C
  C75      1.0000 0.82550  0.74670  0.33300  Biso   1.000  C
  C76      1.0000 0.99520  0.63140  0.44740  Biso   1.000  C
  C77      1.0000 0.23170  0.42440  0.60890  Biso   1.000  C
  C78      1.0000 0.22900  0.40540  0.66270  Biso   1.000  C
  C79      1.0000 0.13460  0.42460  0.67990  Biso   1.000  C
  C80      1.0000 0.10970  0.46640  0.64890  Biso   1.000  C
  C81      1.0000 0.89990  0.54760  0.35860  Biso   1.000  C
  C82      1.0000 0.87600  0.51910  0.31530  Biso   1.000  C
  C83      1.0000 0.93700  0.47590  0.32870  Biso   1.000  C
  C84      1.0000 0.91810  0.46680  0.38100  Biso   1.000  C
  C85      1.0000 0.68370  0.52990  0.50750  Biso   1.000  C
  C86      1.0000 0.58690  0.51380  0.48880  Biso   1.000  C
  C87      1.0000 0.58880  0.53860  0.44270  Biso   1.000  C
  C88      1.0000 0.69240  0.52840  0.43000  Biso   1.000  C
  C89      1.0000 0.19600  0.40600  0.18380  Biso   1.000  C
  C90      1.0000 0.14000  0.45230  0.18260  Biso   1.000  C
  C91      1.0000 0.10400  0.46000  0.23180  Biso   1.000  C
  C92      1.0000 0.15300  0.42140  0.26080  Biso   1.000  C
  C93      1.0000 0.38640  0.12820  0.24140  Biso   1.000  C
  C94      1.0000 0.37500  0.11000  0.19320  Biso   1.000  C
  C95      1.0000 0.46800  0.12390  0.17120  Biso   1.000  C
  C96      1.0000 0.49350  0.16990  0.19290  Biso   1.000  C
  C97      1.0000 0.92740  0.15820  0.58390  Biso   1.000  C
  C98      1.0000 0.84770  0.15120  0.61410  Biso   1.000  C
  C99      1.0000 0.77400  0.11830  0.60050  Biso   1.000  C
  C100     1.0000 0.78190  0.09550  0.55650  Biso   1.000  C
  C101     1.0000 0.86400  0.10430  0.52770  Biso   1.000  C
  C102     1.0000 0.84340  0.17730  0.66150  Biso   1.000  C
  C103     1.0000 0.70370  0.05940  0.53870  Biso   1.000  C
  C104     1.0000 0.35330  0.86350  0.40060  Biso   1.000  C
  C105     1.0000 0.44360  0.88800  0.39410  Biso   1.000  C
  C106     1.0000 0.50560  0.87290  0.35960  Biso   1.000  C
  C107     1.0000 0.48150  0.83290  0.33150  Biso   1.000  C
  C108     1.0000 0.39080  0.80990  0.33950  Biso   1.000  C
  C109     1.0000 0.46880  0.93060  0.42650  Biso   1.000  C
  C110     1.0000 0.54770  0.81240  0.29310  Biso   1.000  C
  C111     1.0000 0.26500  0.10360  0.48180  Biso   1.000  C
  C112     1.0000 0.35270  0.09780  0.45740  Biso   1.000  C
  C113     1.0000 0.37040  0.12520  0.41700  Biso   1.000  C
  C114     1.0000 0.29720  0.15790  0.40190  Biso   1.000  C
  C115     1.0000 0.21000  0.16200  0.42690  Biso   1.000  C
  C116     1.0000 0.30930  0.18700  0.35630  Biso   1.000  C
  C117     1.0000 0.42430  0.05930  0.47540  Biso   1.000  C
  C118     1.0000 0.49310  0.73650  0.63130  Biso   1.000  C
  C119     1.0000 0.40810  0.76600  0.63240  Biso   1.000  C
  C120     1.0000 0.40760  0.80880  0.60650  Biso   1.000  C
  C121     1.0000 0.48900  0.82090  0.57920  Biso   1.000  C
  C122     1.0000 0.57120  0.79020  0.58030  Biso   1.000  C
  C123     1.0000 0.32550  0.75330  0.66700  Biso   1.000  C
  C124     1.0000 0.49520  0.86860  0.55260  Biso   1.000  C
  C125     1.0000 0.73170  0.07560  0.39110  Biso   1.000  C
  C126     1.0000 0.72900  0.09460  0.33730  Biso   1.000  C
  C127     1.0000 0.63460  0.07540  0.32010  Biso   1.000  C
  C128     1.0000 0.60970  0.03360  0.35110  Biso   1.000  C
  C129     1.0000 0.39990  0.95240  0.64140  Biso   1.000  C
  C130     1.0000 0.37600  0.98090  0.68470  Biso   1.000  C
  C131     1.0000 0.43700  0.02410  0.67130  Biso   1.000  C
  C132     1.0000 0.41810  0.03320  0.61900  Biso   1.000  C
  C133     1.0000 0.18370  0.97010  0.49250  Biso   1.000  C
  C134     1.0000 0.08690  0.98620  0.51120  Biso   1.000  C
  C135     1.0000 0.08880  0.96140  0.55730  Biso   1.000  C
  C136     1.0000 0.19240  0.97160  0.57000  Biso   1.000  C
  C137     1.0000 0.69600  0.09400  0.81620  Biso   1.000  C
  C138     1.0000 0.64000  0.04770  0.81740  Biso   1.000  C
  C139     1.0000 0.60400  0.04000  0.76820  Biso   1.000  C
  C140     1.0000 0.65300  0.07860  0.73920  Biso   1.000  C
  C141     1.0000 0.88640  0.37180  0.75860  Biso   1.000  C
  C142     1.0000 0.87500  0.39000  0.80680  Biso   1.000  C
  C143     1.0000 0.96800  0.37610  0.82880  Biso   1.000  C
  C144     1.0000 0.99350  0.33010  0.80710  Biso   1.000  C
  C145     1.0000 0.57260  0.84180  0.08390  Biso   1.000  C
  C146     1.0000 0.65230  0.84880  0.11410  Biso   1.000  C
  C147     1.0000 0.72600  0.88170  0.10050  Biso   1.000  C
  C148     1.0000 0.71810  0.90450  0.05650  Biso   1.000  C
  C149     1.0000 0.63600  0.89570  0.02770  Biso   1.000  C
  C150     1.0000 0.65660  0.82270  0.16150  Biso   1.000  C
  C151     1.0000 0.79630  0.94060  0.03870  Biso   1.000  C
  C152     1.0000 0.14670  0.13650  0.90060  Biso   1.000  C
  C153     1.0000 0.05640  0.11200  0.89410  Biso   1.000  C
  C154     1.0000 0.99440  0.12710  0.85960  Biso   1.000  C
  C155     1.0000 0.01850  0.16710  0.83150  Biso   1.000  C
  C156     1.0000 0.10920  0.19010  0.83950  Biso   1.000  C
  C157     1.0000 0.03120  0.06940  0.92650  Biso   1.000  C
  C158     1.0000 0.95230  0.18760  0.79310  Biso   1.000  C
  C159     1.0000 0.23500  0.89640  0.98180  Biso   1.000  C
  C160     1.0000 0.14730  0.90220  0.95740  Biso   1.000  C
  C161     1.0000 0.12960  0.87480  0.91700  Biso   1.000  C
  C162     1.0000 0.20280  0.84210  0.90190  Biso   1.000  C
  C163     1.0000 0.29000  0.83800  0.92690  Biso   1.000  C
  C164     1.0000 0.19070  0.81300  0.85630  Biso   1.000  C
  C165     1.0000 0.07570  0.94070  0.97540  Biso   1.000  C
  C166     1.0000 0.00690  0.26350  0.13130  Biso   1.000  C
  C167     1.0000 0.09190  0.23400  0.13240  Biso   1.000  C
  C168     1.0000 0.09240  0.19120  0.10650  Biso   1.000  C
  C169     1.0000 0.01100  0.17910  0.07920  Biso   1.000  C
  C170     1.0000 0.92880  0.20980  0.08030  Biso   1.000  C
  C171     1.0000 0.17450  0.24670  0.16700  Biso   1.000  C
  C172     1.0000 0.00480  0.13140  0.05260  Biso   1.000  C
  C173     1.0000 0.76830  0.92440  0.89110  Biso   1.000  C
  C174     1.0000 0.77100  0.90540  0.83730  Biso   1.000  C
  C175     1.0000 0.86540  0.92460  0.82010  Biso   1.000  C
  C176     1.0000 0.89030  0.96640  0.85110  Biso   1.000  C
  C177     1.0000 0.10010  0.04760  0.14140  Biso   1.000  C
  C178     1.0000 0.12400  0.01910  0.18470  Biso   1.000  C
  C179     1.0000 0.06300  0.97590  0.17130  Biso   1.000  C
  C180     1.0000 0.08190  0.96680  0.11900  Biso   1.000  C
  C181     1.0000 0.31630  0.02990  0.99250  Biso   1.000  C
  C182     1.0000 0.41310  0.01380  0.01120  Biso   1.000  C
  C183     1.0000 0.41120  0.03860  0.05730  Biso   1.000  C
  C184     1.0000 0.30760  0.02840  0.07000  Biso   1.000  C
  C185     1.0000 0.80400  0.90600  0.31620  Biso   1.000  C
  C186     1.0000 0.86000  0.95230  0.31740  Biso   1.000  C
  C187     1.0000 0.89600  0.96000  0.26820  Biso   1.000  C
  C188     1.0000 0.84700  0.92140  0.23920  Biso   1.000  C
  C189     1.0000 0.61360  0.62820  0.25860  Biso   1.000  C
  C190     1.0000 0.62500  0.61000  0.30680  Biso   1.000  C
  C191     1.0000 0.53200  0.62390  0.32880  Biso   1.000  C
  C192     1.0000 0.50650  0.66990  0.30710  Biso   1.000  C
  N1       1.0000 0.06170  0.63450  0.95760  Biso   1.000  N
  N2       1.0000 0.80580  0.63500  0.03210  Biso   1.000  N
  N3       1.0000 0.67090  0.32560  0.12600  Biso   1.000  N
  N4       1.0000 0.42750  0.24970  0.89440  Biso   1.000  N
  N5       1.0000 0.43830  0.36550  0.45760  Biso   1.000  N
  N6       1.0000 0.69420  0.36500  0.53210  Biso   1.000  N
  N7       1.0000 0.82910  0.67440  0.62600  Biso   1.000  N
  N8       1.0000 0.07250  0.75030  0.39440  Biso   1.000  N
  N9       1.0000 0.93830  0.13450  0.54240  Biso   1.000  N
  N10      1.0000 0.19420  0.13500  0.46790  Biso   1.000  N
  N11      1.0000 0.32910  0.82560  0.37400  Biso   1.000  N
  N12      1.0000 0.57250  0.74970  0.60560  Biso   1.000  N
  N13      1.0000 0.56170  0.86550  0.04240  Biso   1.000  N
  N14      1.0000 0.30580  0.86500  0.96790  Biso   1.000  N
  N15      1.0000 0.17090  0.17440  0.87400  Biso   1.000  N
  N16      1.0000 0.92750  0.25030  0.10560  Biso   1.000  N
  Cl1      1.0000 0.84764  0.63218  0.92452  Biso   1.000  Cl
  Cl2      1.0000 0.02173  0.64039  0.06591  Biso   1.000  Cl
  Cl3      1.0000 0.88307  0.36110  0.10584  Biso   1.000  Cl
  Cl4      1.0000 0.71810  0.21626  0.12452  Biso   1.000  Cl
  Cl5      1.0000 0.65236  0.36782  0.42452  Biso   1.000  Cl
  Cl6      1.0000 0.47827  0.35961  0.56591  Biso   1.000  Cl
  Cl7      1.0000 0.61693  0.63890  0.60584  Biso   1.000  Cl
  Cl8      1.0000 0.78190  0.78374  0.62452  Biso   1.000  Cl
  Cl9      1.0000 0.15236  0.13218  0.57548  Biso   1.000  Cl
  Cl10     1.0000 0.97827  0.14039  0.43409  Biso   1.000  Cl
  Cl11     1.0000 0.11693  0.86110  0.39416  Biso   1.000  Cl
  Cl12     1.0000 0.28190  0.71626  0.37548  Biso   1.000  Cl
  Cl13     1.0000 0.34764  0.86782  0.07548  Biso   1.000  Cl
  Cl14     1.0000 0.52173  0.85961  0.93409  Biso   1.000  Cl
  Cl15     1.0000 0.38307  0.13890  0.89416  Biso   1.000  Cl
  Cl16     1.0000 0.21810  0.28374  0.87548  Biso   1.000  Cl
  O1       1.0000 0.08780  0.70710  0.83100  Biso   1.000  O
  O2       1.0000 0.22520  0.66480  0.81111  Biso   1.000  O
  O3       1.0000 0.29380  0.54980  0.00430  Biso   1.000  O
  O4       1.0000 0.35430  0.54300  0.93090  Biso   1.000  O
  O5       1.0000 0.45100  0.45090  0.08066  Biso   1.000  O
  O6       1.0000 0.59690  0.44210  0.04284  Biso   1.000  O
  O7       1.0000 0.36860  0.33270  0.21110  Biso   1.000  O
  O8       1.0000 0.48490  0.27690  0.22970  Biso   1.000  O
  O9       1.0000 0.60610  0.68780  0.16210  Biso   1.000  O
  O10      1.0000 0.76640  0.70820  0.15900  Biso   1.000  O
  O11      1.0000 0.49790  0.55380  0.04700  Biso   1.000  O
  O12      1.0000 0.60550  0.53570  0.98883  Biso   1.000  O
  O13      1.0000 0.67320  0.21100  0.81680  Biso   1.000  O
  O14      1.0000 0.73070  0.28740  0.82250  Biso   1.000  O
  O15      1.0000 0.42170  0.37940  0.96540  Biso   1.000  O
  O16      1.0000 0.58160  0.39380  0.94940  Biso   1.000  O
  O17      1.0000 0.32860  0.53330  0.10690  Biso   1.000  O
  O18      1.0000 0.59870  0.48480  0.89840  Biso   1.000  O
  O19      1.0000 0.74920  0.45770  0.96960  Biso   1.000  O
  O20      1.0000 0.31240  0.61500  0.72890  Biso   1.000  O
  O21      1.0000 0.40410  0.70260  0.77570  Biso   1.000  O
  O22      1.0000 0.05350  0.82830  0.73850  Biso   1.000  O
  O23      1.0000 0.91950  0.77520  0.80490  Biso   1.000  O
  O24      1.0000 0.43640  0.47220  0.97557  Biso   1.000  O
  O25      1.0000 0.21180  0.75900  0.76040  Biso   1.000  O
  O26      1.0000 0.41220  0.29290  0.33100  Biso   1.000  O
  O27      1.0000 0.27480  0.33520  0.31111  Biso   1.000  O
  O28      1.0000 0.20620  0.45020  0.50430  Biso   1.000  O
  O29      1.0000 0.14570  0.45700  0.43090  Biso   1.000  O
  O30      1.0000 0.04900  0.54910  0.58066  Biso   1.000  O
  O31      1.0000 0.90310  0.55790  0.54284  Biso   1.000  O
  O32      1.0000 0.13140  0.66730  0.71110  Biso   1.000  O
  O33      1.0000 0.01510  0.72310  0.72970  Biso   1.000  O
  O34      1.0000 0.89390  0.31220  0.66210  Biso   1.000  O
  O35      1.0000 0.73360  0.29180  0.65900  Biso   1.000  O
  O36      1.0000 0.00210  0.44620  0.54700  Biso   1.000  O
  O37      1.0000 0.89450  0.46430  0.48883  Biso   1.000  O
  O38      1.0000 0.82680  0.78900  0.31680  Biso   1.000  O
  O39      1.0000 0.76930  0.71260  0.32250  Biso   1.000  O
  O40      1.0000 0.07830  0.62060  0.46540  Biso   1.000  O
  O41      1.0000 0.91840  0.60620  0.44940  Biso   1.000  O
  O42      1.0000 0.17140  0.46670  0.60690  Biso   1.000  O
  O43      1.0000 0.90130  0.51520  0.39840  Biso   1.000  O
  O44      1.0000 0.75080  0.54230  0.46960  Biso   1.000  O
  O45      1.0000 0.18760  0.38500  0.22890  Biso   1.000  O
  O46      1.0000 0.09590  0.29740  0.27570  Biso   1.000  O
  O47      1.0000 0.44650  0.17170  0.23850  Biso   1.000  O
  O48      1.0000 0.58050  0.22480  0.30490  Biso   1.000  O
  O49      1.0000 0.06360  0.52780  0.47557  Biso   1.000  O
  O50      1.0000 0.28820  0.24100  0.26040  Biso   1.000  O
  O51      1.0000 0.91220  0.20710  0.66900  Biso   1.000  O
  O52      1.0000 0.77480  0.16480  0.68889  Biso   1.000  O
  O53      1.0000 0.70620  0.04980  0.49570  Biso   1.000  O
  O54      1.0000 0.64570  0.04300  0.56910  Biso   1.000  O
  O55      1.0000 0.54900  0.95090  0.41934  Biso   1.000  O
  O56      1.0000 0.40310  0.94210  0.45716  Biso   1.000  O
  O57      1.0000 0.63140  0.83270  0.28890  Biso   1.000  O
  O58      1.0000 0.51510  0.77690  0.27030  Biso   1.000  O
  O59      1.0000 0.39390  0.18780  0.33790  Biso   1.000  O
  O60      1.0000 0.23360  0.20820  0.34100  Biso   1.000  O
  O61      1.0000 0.50210  0.05380  0.45300  Biso   1.000  O
  O62      1.0000 0.39450  0.03570  0.51117  Biso   1.000  O
  O63      1.0000 0.32680  0.71100  0.68320  Biso   1.000  O
  O64      1.0000 0.26930  0.78740  0.67750  Biso   1.000  O
  O65      1.0000 0.57830  0.87940  0.53460  Biso   1.000  O
  O66      1.0000 0.41840  0.89380  0.55060  Biso   1.000  O
  O67      1.0000 0.67140  0.03330  0.39310  Biso   1.000  O
  O68      1.0000 0.40130  0.98480  0.60160  Biso   1.000  O
  O69      1.0000 0.25080  0.95770  0.53040  Biso   1.000  O
  O70      1.0000 0.68760  0.11500  0.77110  Biso   1.000  O
  O71      1.0000 0.59590  0.20260  0.72430  Biso   1.000  O
  O72      1.0000 0.94650  0.32830  0.76150  Biso   1.000  O
  O73      1.0000 0.08050  0.27520  0.69510  Biso   1.000  O
  O74      1.0000 0.56360  0.97220  0.52443  Biso   1.000  O
  O75      1.0000 0.78820  0.25900  0.73960  Biso   1.000  O
  O76      1.0000 0.58780  0.79290  0.16900  Biso   1.000  O
  O77      1.0000 0.72520  0.83520  0.18889  Biso   1.000  O
  O78      1.0000 0.79380  0.95020  0.99570  Biso   1.000  O
  O79      1.0000 0.85430  0.95700  0.06910  Biso   1.000  O
  O80      1.0000 0.95100  0.04910  0.91934  Biso   1.000  O
  O81      1.0000 0.09690  0.05790  0.95716  Biso   1.000  O
  O82      1.0000 0.86860  0.16730  0.78890  Biso   1.000  O
  O83      1.0000 0.98490  0.22310  0.77030  Biso   1.000  O
  O84      1.0000 0.10610  0.81220  0.83790  Biso   1.000  O
  O85      1.0000 0.26640  0.79180  0.84100  Biso   1.000  O
  O86      1.0000 0.99790  0.94620  0.95300  Biso   1.000  O
  O87      1.0000 0.10550  0.96430  0.01117  Biso   1.000  O
  O88      1.0000 0.17320  0.28900  0.18320  Biso   1.000  O
  O89      1.0000 0.23070  0.21260  0.17750  Biso   1.000  O
  O90      1.0000 0.92170  0.12060  0.03460  Biso   1.000  O
  O91      1.0000 0.08160  0.10620  0.05060  Biso   1.000  O
  O92      1.0000 0.82860  0.96670  0.89310  Biso   1.000  O
  O93      1.0000 0.09870  0.01520  0.10160  Biso   1.000  O
  O94      1.0000 0.24920  0.04230  0.03040  Biso   1.000  O
  O95      1.0000 0.81240  0.88500  0.27110  Biso   1.000  O
  O96      1.0000 0.90410  0.79740  0.22430  Biso   1.000  O
  O97      1.0000 0.55350  0.67170  0.26150  Biso   1.000  O
  O98      1.0000 0.41950  0.72480  0.19510  Biso   1.000  O
  O99      1.0000 0.93640  0.02780  0.02443  Biso   1.000  O
  O100     1.0000 0.71180  0.74100  0.23960  Biso   1.000  O
