data_image0
_cell_length_a       10.022
_cell_length_b       14.335
_cell_length_c       14.636
_cell_angle_alpha    90
_cell_angle_beta     90
_cell_angle_gamma    90

_symmetry_space_group_name_H-M    "P 1"
_symmetry_int_tables_number       1

loop_
  _symmetry_equiv_pos_as_xyz
  'x, y, z'

loop_
  _atom_site_label
  _atom_site_occupancy
  _atom_site_fract_x
  _atom_site_fract_y
  _atom_site_fract_z
  _atom_site_thermal_displace_type
  _atom_site_B_iso_or_equiv
  _atom_site_type_symbol
  O1       1.0000 0.82960  0.97210  0.45450  Biso   1.000  O
  O2       1.0000 0.76050  0.09500  0.34330  Biso   1.000  O
  O3       1.0000 0.82960  0.47210  0.95450  Biso   1.000  O
  O4       1.0000 0.76050  0.59500  0.84330  Biso   1.000  O
  O5       1.0000 0.32960  0.97210  0.95450  Biso   1.000  O
  O6       1.0000 0.26050  0.09500  0.84330  Biso   1.000  O
  O7       1.0000 0.32960  0.47210  0.45450  Biso   1.000  O
  O8       1.0000 0.26050  0.59500  0.34330  Biso   1.000  O
  O9       1.0000 0.92040  0.77790  0.45450  Biso   1.000  O
  O10      1.0000 0.98950  0.65500  0.34330  Biso   1.000  O
  O11      1.0000 0.92040  0.27790  0.95450  Biso   1.000  O
  O12      1.0000 0.98950  0.15500  0.84330  Biso   1.000  O
  O13      1.0000 0.42040  0.77790  0.95450  Biso   1.000  O
  O14      1.0000 0.48950  0.65500  0.84330  Biso   1.000  O
  O15      1.0000 0.42040  0.27790  0.45450  Biso   1.000  O
  O16      1.0000 0.48950  0.15500  0.34330  Biso   1.000  O
  O17      1.0000 0.92040  0.97210  0.29550  Biso   1.000  O
  O18      1.0000 0.98950  0.09500  0.40670  Biso   1.000  O
  O19      1.0000 0.92040  0.47210  0.79550  Biso   1.000  O
  O20      1.0000 0.98950  0.59500  0.90670  Biso   1.000  O
  O21      1.0000 0.42040  0.97210  0.79550  Biso   1.000  O
  O22      1.0000 0.48950  0.09500  0.90670  Biso   1.000  O
  O23      1.0000 0.42040  0.47210  0.29550  Biso   1.000  O
  O24      1.0000 0.48950  0.59500  0.40670  Biso   1.000  O
  O25      1.0000 0.82960  0.77790  0.29550  Biso   1.000  O
  O26      1.0000 0.76050  0.65500  0.40670  Biso   1.000  O
  O27      1.0000 0.82960  0.27790  0.79550  Biso   1.000  O
  O28      1.0000 0.76050  0.15500  0.90670  Biso   1.000  O
  O29      1.0000 0.32960  0.77790  0.79550  Biso   1.000  O
  O30      1.0000 0.26050  0.65500  0.90670  Biso   1.000  O
  O31      1.0000 0.32960  0.27790  0.29550  Biso   1.000  O
  O32      1.0000 0.26050  0.15500  0.40670  Biso   1.000  O
  O33      1.0000 0.17040  0.02790  0.54550  Biso   1.000  O
  O34      1.0000 0.23950  0.90500  0.65670  Biso   1.000  O
  O35      1.0000 0.17040  0.52790  0.04550  Biso   1.000  O
  O36      1.0000 0.23950  0.40500  0.15670  Biso   1.000  O
  O37      1.0000 0.67040  0.02790  0.04550  Biso   1.000  O
  O38      1.0000 0.73950  0.90500  0.15670  Biso   1.000  O
  O39      1.0000 0.67040  0.52790  0.54550  Biso   1.000  O
  O40      1.0000 0.73950  0.40500  0.65670  Biso   1.000  O
  O41      1.0000 0.07960  0.22210  0.54550  Biso   1.000  O
  O42      1.0000 0.01050  0.34500  0.65670  Biso   1.000  O
  O43      1.0000 0.07960  0.72210  0.04550  Biso   1.000  O
  O44      1.0000 0.01050  0.84500  0.15670  Biso   1.000  O
  O45      1.0000 0.57960  0.22210  0.04550  Biso   1.000  O
  O46      1.0000 0.51050  0.34500  0.15670  Biso   1.000  O
  O47      1.0000 0.57960  0.72210  0.54550  Biso   1.000  O
  O48      1.0000 0.51050  0.84500  0.65670  Biso   1.000  O
  O49      1.0000 0.07960  0.02790  0.70450  Biso   1.000  O
  O50      1.0000 0.01050  0.90500  0.59330  Biso   1.000  O
  O51      1.0000 0.07960  0.52790  0.20450  Biso   1.000  O
  O52      1.0000 0.01050  0.40500  0.09330  Biso   1.000  O
  O53      1.0000 0.57960  0.02790  0.20450  Biso   1.000  O
  O54      1.0000 0.51050  0.90500  0.09330  Biso   1.000  O
  O55      1.0000 0.57960  0.52790  0.70450  Biso   1.000  O
  O56      1.0000 0.51050  0.40500  0.59330  Biso   1.000  O
  O57      1.0000 0.17040  0.22210  0.70450  Biso   1.000  O
  O58      1.0000 0.23950  0.34500  0.59330  Biso   1.000  O
  O59      1.0000 0.17040  0.72210  0.20450  Biso   1.000  O
  O60      1.0000 0.23950  0.84500  0.09330  Biso   1.000  O
  O61      1.0000 0.67040  0.22210  0.20450  Biso   1.000  O
  O62      1.0000 0.73950  0.34500  0.09330  Biso   1.000  O
  O63      1.0000 0.67040  0.72210  0.70450  Biso   1.000  O
  O64      1.0000 0.73950  0.84500  0.59330  Biso   1.000  O
  P1       1.0000 0.87500  0.03280  0.37500  Biso   1.000  P
  P2       1.0000 0.87500  0.53280  0.87500  Biso   1.000  P
  P3       1.0000 0.37500  0.03280  0.87500  Biso   1.000  P
  P4       1.0000 0.37500  0.53280  0.37500  Biso   1.000  P
  P5       1.0000 0.87500  0.71720  0.37500  Biso   1.000  P
  P6       1.0000 0.87500  0.21720  0.87500  Biso   1.000  P
  P7       1.0000 0.37500  0.71720  0.87500  Biso   1.000  P
  P8       1.0000 0.37500  0.21720  0.37500  Biso   1.000  P
  P9       1.0000 0.12500  0.96720  0.62500  Biso   1.000  P
  P10      1.0000 0.12500  0.46720  0.12500  Biso   1.000  P
  P11      1.0000 0.62500  0.96720  0.12500  Biso   1.000  P
  P12      1.0000 0.62500  0.46720  0.62500  Biso   1.000  P
  P13      1.0000 0.12500  0.28280  0.62500  Biso   1.000  P
  P14      1.0000 0.12500  0.78280  0.12500  Biso   1.000  P
  P15      1.0000 0.62500  0.28280  0.12500  Biso   1.000  P
  P16      1.0000 0.62500  0.78280  0.62500  Biso   1.000  P
  Mg1      1.0000 0.87500  0.87500  0.52370  Biso   1.000  Mg
  Mg2      1.0000 0.87500  0.37500  0.02370  Biso   1.000  Mg
  Mg3      1.0000 0.37500  0.87500  0.02370  Biso   1.000  Mg
  Mg4      1.0000 0.37500  0.37500  0.52370  Biso   1.000  Mg
  Mg5      1.0000 0.87500  0.87500  0.22630  Biso   1.000  Mg
  Mg6      1.0000 0.87500  0.37500  0.72630  Biso   1.000  Mg
  Mg7      1.0000 0.37500  0.87500  0.72630  Biso   1.000  Mg
  Mg8      1.0000 0.37500  0.37500  0.22630  Biso   1.000  Mg
  Mg9      1.0000 0.12500  0.12500  0.47630  Biso   1.000  Mg
  Mg10     1.0000 0.12500  0.62500  0.97630  Biso   1.000  Mg
  Mg11     1.0000 0.62500  0.12500  0.97630  Biso   1.000  Mg
  Mg12     1.0000 0.62500  0.62500  0.47630  Biso   1.000  Mg
  Mg13     1.0000 0.12500  0.12500  0.77370  Biso   1.000  Mg
  Mg14     1.0000 0.12500  0.62500  0.27370  Biso   1.000  Mg
  Mg15     1.0000 0.62500  0.12500  0.27370  Biso   1.000  Mg
  Mg16     1.0000 0.62500  0.62500  0.77370  Biso   1.000  Mg
