data_image0
_cell_length_a       13.709
_cell_length_b       13.709
_cell_length_c       15.436
_cell_angle_alpha    90
_cell_angle_beta     90
_cell_angle_gamma    120

_symmetry_space_group_name_H-M    "P 1"
_symmetry_int_tables_number       1

loop_
  _symmetry_equiv_pos_as_xyz
  'x, y, z'

loop_
  _atom_site_label
  _atom_site_occupancy
  _atom_site_fract_x
  _atom_site_fract_y
  _atom_site_fract_z
  _atom_site_thermal_displace_type
  _atom_site_B_iso_or_equiv
  _atom_site_type_symbol
  Al1      1.0000 0.42950  0.10340  0.23870  Biso   1.000  Al
  P1       1.0000 0.65830  0.09610  0.22730  Biso   1.000  P
  O1       1.0000 0.54800  0.08990  0.20770  Biso   1.000  O
  O2       1.0000 0.75260  0.21620  0.22030  Biso   1.000  O
  O3       1.0000 0.65630  0.05000  0.31770  Biso   1.000  O
  O4       1.0000 0.67240  0.02250  0.16190  Biso   1.000  O
  Al2      1.0000 0.09617  0.43673  0.57203  Biso   1.000  Al
  P2       1.0000 0.32497  0.42943  0.56063  Biso   1.000  P
  O5       1.0000 0.21467  0.42323  0.54103  Biso   1.000  O
  O6       1.0000 0.41927  0.54953  0.55363  Biso   1.000  O
  O7       1.0000 0.32297  0.38333  0.65103  Biso   1.000  O
  O8       1.0000 0.33907  0.35583  0.49523  Biso   1.000  O
  Al3      1.0000 0.76283  0.77007  0.90537  Biso   1.000  Al
  P3       1.0000 0.99163  0.76277  0.89397  Biso   1.000  P
  O9       1.0000 0.88133  0.75657  0.87437  Biso   1.000  O
  O10      1.0000 0.08593  0.88287  0.88697  Biso   1.000  O
  O11      1.0000 0.98963  0.71667  0.98437  Biso   1.000  O
  O12      1.0000 0.00573  0.68917  0.82857  Biso   1.000  O
  Al4      1.0000 0.89660  0.32610  0.23870  Biso   1.000  Al
  P4       1.0000 0.90390  0.56220  0.22730  Biso   1.000  P
  O13      1.0000 0.91010  0.45810  0.20770  Biso   1.000  O
  O14      1.0000 0.78380  0.53640  0.22030  Biso   1.000  O
  O15      1.0000 0.95000  0.60630  0.31770  Biso   1.000  O
  O16      1.0000 0.97750  0.64990  0.16190  Biso   1.000  O
  Al5      1.0000 0.56327  0.65943  0.57203  Biso   1.000  Al
  P5       1.0000 0.57057  0.89553  0.56063  Biso   1.000  P
  O17      1.0000 0.57677  0.79143  0.54103  Biso   1.000  O
  O18      1.0000 0.45047  0.86973  0.55363  Biso   1.000  O
  O19      1.0000 0.61667  0.93963  0.65103  Biso   1.000  O
  O20      1.0000 0.64417  0.98323  0.49523  Biso   1.000  O
  Al6      1.0000 0.22993  0.99277  0.90537  Biso   1.000  Al
  P6       1.0000 0.23723  0.22887  0.89397  Biso   1.000  P
  O21      1.0000 0.24343  0.12477  0.87437  Biso   1.000  O
  O22      1.0000 0.11713  0.20307  0.88697  Biso   1.000  O
  O23      1.0000 0.28333  0.27297  0.98437  Biso   1.000  O
  O24      1.0000 0.31083  0.31657  0.82857  Biso   1.000  O
  Al7      1.0000 0.67390  0.57050  0.23870  Biso   1.000  Al
  P7       1.0000 0.43780  0.34170  0.22730  Biso   1.000  P
  O25      1.0000 0.54190  0.45200  0.20770  Biso   1.000  O
  O26      1.0000 0.46360  0.24740  0.22030  Biso   1.000  O
  O27      1.0000 0.39370  0.34370  0.31770  Biso   1.000  O
  O28      1.0000 0.35010  0.32760  0.16190  Biso   1.000  O
  Al8      1.0000 0.34057  0.90383  0.57203  Biso   1.000  Al
  P8       1.0000 0.10447  0.67503  0.56063  Biso   1.000  P
  O29      1.0000 0.20857  0.78533  0.54103  Biso   1.000  O
  O30      1.0000 0.13027  0.58073  0.55363  Biso   1.000  O
  O31      1.0000 0.06037  0.67703  0.65103  Biso   1.000  O
  O32      1.0000 0.01677  0.66093  0.49523  Biso   1.000  O
  Al9      1.0000 0.00723  0.23717  0.90537  Biso   1.000  Al
  P9       1.0000 0.77113  0.00837  0.89397  Biso   1.000  P
  O33      1.0000 0.87523  0.11867  0.87437  Biso   1.000  O
  O34      1.0000 0.79693  0.91407  0.88697  Biso   1.000  O
  O35      1.0000 0.72703  0.01037  0.98437  Biso   1.000  O
  O36      1.0000 0.68343  0.99427  0.82857  Biso   1.000  O
  Al10     1.0000 0.57050  0.89660  0.76130  Biso   1.000  Al
  P10      1.0000 0.34170  0.90390  0.77270  Biso   1.000  P
  O37      1.0000 0.45200  0.91010  0.79230  Biso   1.000  O
  O38      1.0000 0.24740  0.78380  0.77970  Biso   1.000  O
  O39      1.0000 0.34370  0.95000  0.68230  Biso   1.000  O
  O40      1.0000 0.32760  0.97750  0.83810  Biso   1.000  O
  Al11     1.0000 0.23717  0.22993  0.09463  Biso   1.000  Al
  P11      1.0000 0.00837  0.23723  0.10603  Biso   1.000  P
  O41      1.0000 0.11867  0.24343  0.12563  Biso   1.000  O
  O42      1.0000 0.91407  0.11713  0.11303  Biso   1.000  O
  O43      1.0000 0.01037  0.28333  0.01563  Biso   1.000  O
  O44      1.0000 0.99427  0.31083  0.17143  Biso   1.000  O
  Al12     1.0000 0.90383  0.56327  0.42797  Biso   1.000  Al
  P12      1.0000 0.67503  0.57057  0.43937  Biso   1.000  P
  O45      1.0000 0.78533  0.57677  0.45897  Biso   1.000  O
  O46      1.0000 0.58073  0.45047  0.44637  Biso   1.000  O
  O47      1.0000 0.67703  0.61667  0.34897  Biso   1.000  O
  O48      1.0000 0.66093  0.64417  0.50477  Biso   1.000  O
  Al13     1.0000 0.10340  0.67390  0.76130  Biso   1.000  Al
  P13      1.0000 0.09610  0.43780  0.77270  Biso   1.000  P
  O49      1.0000 0.08990  0.54190  0.79230  Biso   1.000  O
  O50      1.0000 0.21620  0.46360  0.77970  Biso   1.000  O
  O51      1.0000 0.05000  0.39370  0.68230  Biso   1.000  O
  O52      1.0000 0.02250  0.35010  0.83810  Biso   1.000  O
  Al14     1.0000 0.77007  0.00723  0.09463  Biso   1.000  Al
  P14      1.0000 0.76277  0.77113  0.10603  Biso   1.000  P
  O53      1.0000 0.75657  0.87523  0.12563  Biso   1.000  O
  O54      1.0000 0.88287  0.79693  0.11303  Biso   1.000  O
  O55      1.0000 0.71667  0.72703  0.01563  Biso   1.000  O
  O56      1.0000 0.68917  0.68343  0.17143  Biso   1.000  O
  Al15     1.0000 0.43673  0.34057  0.42797  Biso   1.000  Al
  P15      1.0000 0.42943  0.10447  0.43937  Biso   1.000  P
  O57      1.0000 0.42323  0.20857  0.45897  Biso   1.000  O
  O58      1.0000 0.54953  0.13027  0.44637  Biso   1.000  O
  O59      1.0000 0.38333  0.06037  0.34897  Biso   1.000  O
  O60      1.0000 0.35583  0.01677  0.50477  Biso   1.000  O
  Al16     1.0000 0.32610  0.42950  0.76130  Biso   1.000  Al
  P16      1.0000 0.56220  0.65830  0.77270  Biso   1.000  P
  O61      1.0000 0.45810  0.54800  0.79230  Biso   1.000  O
  O62      1.0000 0.53640  0.75260  0.77970  Biso   1.000  O
  O63      1.0000 0.60630  0.65630  0.68230  Biso   1.000  O
  O64      1.0000 0.64990  0.67240  0.83810  Biso   1.000  O
  Al17     1.0000 0.99277  0.76283  0.09463  Biso   1.000  Al
  P17      1.0000 0.22887  0.99163  0.10603  Biso   1.000  P
  O65      1.0000 0.12477  0.88133  0.12563  Biso   1.000  O
  O66      1.0000 0.20307  0.08593  0.11303  Biso   1.000  O
  O67      1.0000 0.27297  0.98963  0.01563  Biso   1.000  O
  O68      1.0000 0.31657  0.00573  0.17143  Biso   1.000  O
  Al18     1.0000 0.65943  0.09617  0.42797  Biso   1.000  Al
  P18      1.0000 0.89553  0.32497  0.43937  Biso   1.000  P
  O69      1.0000 0.79143  0.21467  0.45897  Biso   1.000  O
  O70      1.0000 0.86973  0.41927  0.44637  Biso   1.000  O
  O71      1.0000 0.93963  0.32297  0.34897  Biso   1.000  O
  O72      1.0000 0.98323  0.33907  0.50477  Biso   1.000  O
