data_image0
_cell_length_a       9.1304
_cell_length_b       9.13042
_cell_length_c       14.7099
_cell_angle_alpha    100.169
_cell_angle_beta     100.169
_cell_angle_gamma    115.539

_symmetry_space_group_name_H-M    P 1
_symmetry_int_tables_number       1

loop_
  _symmetry_equiv_pos_as_xyz
  'x, y, z'

loop_
  _atom_site_label
  _atom_site_occupancy
  _atom_site_fract_x
  _atom_site_fract_y
  _atom_site_fract_z
  _atom_site_thermal_displace_type
  _atom_site_B_iso_or_equiv
  _atom_site_type_symbol
  Nd1      1.0000 0.74060  0.99060  0.98120  Biso   1.000  Nd
  Nd2      1.0000 0.50940  0.75940  0.51880  Biso   1.000  Nd
  Nd3      1.0000 0.25940  0.00940  0.01880  Biso   1.000  Nd
  Nd4      1.0000 0.49060  0.24060  0.48120  Biso   1.000  Nd
  H1       1.0000 0.30200  0.36400  0.92600  Biso   1.000  H
  H2       1.0000 0.12400  0.56200  0.92600  Biso   1.000  H
  H3       1.0000 0.13600  0.19800  0.57400  Biso   1.000  H
  H4       1.0000 0.93800  0.37600  0.57400  Biso   1.000  H
  H5       1.0000 0.69800  0.63600  0.07400  Biso   1.000  H
  H6       1.0000 0.87600  0.43800  0.07400  Biso   1.000  H
  H7       1.0000 0.86400  0.80200  0.42600  Biso   1.000  H
  H8       1.0000 0.06200  0.62400  0.42600  Biso   1.000  H
  C1       1.0000 0.06092  0.24792  0.94164  Biso   1.000  C
  C2       1.0000 0.21371  0.39411  0.93502  Biso   1.000  C
  C3       1.0000 0.38072  0.69372  0.94164  Biso   1.000  C
  C4       1.0000 0.22131  0.54091  0.93502  Biso   1.000  C
  C5       1.0000 0.25208  0.43908  0.55836  Biso   1.000  C
  C6       1.0000 0.10589  0.28629  0.56498  Biso   1.000  C
  C7       1.0000 0.80628  0.11928  0.55836  Biso   1.000  C
  C8       1.0000 0.95909  0.27869  0.56498  Biso   1.000  C
  C9       1.0000 0.93908  0.75208  0.05836  Biso   1.000  C
  C10      1.0000 0.78629  0.60589  0.06498  Biso   1.000  C
  C11      1.0000 0.61928  0.30628  0.05836  Biso   1.000  C
  C12      1.0000 0.77869  0.45909  0.06498  Biso   1.000  C
  C13      1.0000 0.74792  0.56092  0.44164  Biso   1.000  C
  C14      1.0000 0.89411  0.71371  0.43502  Biso   1.000  C
  C15      1.0000 0.19372  0.88072  0.44164  Biso   1.000  C
  C16      1.0000 0.04091  0.72131  0.43502  Biso   1.000  C
  C17      1.0000 0.67530  0.82470  0.75000  Biso   1.000  C
  C18      1.0000 0.57470  0.92530  0.75000  Biso   1.000  C
  C19      1.0000 0.32470  0.17530  0.25000  Biso   1.000  C
  C20      1.0000 0.42530  0.07470  0.25000  Biso   1.000  C
  O1       1.0000 0.76229  0.83907  0.82996  Biso   1.000  O
  O2       1.0000 0.91736  0.23942  0.92398  Biso   1.000  O
  O3       1.0000 0.66600  0.91060  0.12940  Biso   1.000  O
  O4       1.0000 0.08431  0.13427  0.96738  Biso   1.000  O
  O5       1.0000 0.56767  0.99089  0.82996  Biso   1.000  O
  O6       1.0000 0.50662  0.68456  0.92398  Biso   1.000  O
  O7       1.0000 0.96340  0.21880  0.12940  Biso   1.000  O
  O8       1.0000 0.38307  0.83311  0.96738  Biso   1.000  O
  O9       1.0000 0.66093  0.73771  0.67004  Biso   1.000  O
  O10      1.0000 0.26058  0.58264  0.57602  Biso   1.000  O
  O11      1.0000 0.58940  0.83400  0.37060  Biso   1.000  O
  O12      1.0000 0.36573  0.41569  0.53262  Biso   1.000  O
  O13      1.0000 0.50911  0.93233  0.67004  Biso   1.000  O
  O14      1.0000 0.81544  0.99338  0.57602  Biso   1.000  O
  O15      1.0000 0.28120  0.53660  0.37060  Biso   1.000  O
  O16      1.0000 0.66689  0.11693  0.53262  Biso   1.000  O
  O17      1.0000 0.23771  0.16093  0.17004  Biso   1.000  O
  O18      1.0000 0.08264  0.76058  0.07602  Biso   1.000  O
  O19      1.0000 0.33400  0.08940  0.87060  Biso   1.000  O
  O20      1.0000 0.91569  0.86573  0.03262  Biso   1.000  O
  O21      1.0000 0.43233  0.00911  0.17004  Biso   1.000  O
  O22      1.0000 0.49338  0.31544  0.07602  Biso   1.000  O
  O23      1.0000 0.03660  0.78120  0.87060  Biso   1.000  O
  O24      1.0000 0.61693  0.16689  0.03262  Biso   1.000  O
  O25      1.0000 0.33907  0.26229  0.32996  Biso   1.000  O
  O26      1.0000 0.73942  0.41736  0.42398  Biso   1.000  O
  O27      1.0000 0.41060  0.16600  0.62940  Biso   1.000  O
  O28      1.0000 0.63427  0.58431  0.46738  Biso   1.000  O
  O29      1.0000 0.49089  0.06767  0.32996  Biso   1.000  O
  O30      1.0000 0.18456  0.00662  0.42398  Biso   1.000  O
  O31      1.0000 0.71880  0.46340  0.62940  Biso   1.000  O
  O32      1.0000 0.33311  0.88307  0.46738  Biso   1.000  O
