data_image0
_cell_length_a       9.1432
_cell_length_b       9.14324
_cell_length_c       14.773
_cell_angle_alpha    100.121
_cell_angle_beta     100.122
_cell_angle_gamma    115.602

_symmetry_space_group_name_H-M    P 1
_symmetry_int_tables_number       1

loop_
  _symmetry_equiv_pos_as_xyz
  'x, y, z'

loop_
  _atom_site_label
  _atom_site_occupancy
  _atom_site_fract_x
  _atom_site_fract_y
  _atom_site_fract_z
  _atom_site_thermal_displace_type
  _atom_site_B_iso_or_equiv
  _atom_site_type_symbol
  Pr1      1.0000 0.50919  0.25919  0.51838  Biso   1.000  Pr
  Pr2      1.0000 0.74081  0.49081  0.98162  Biso   1.000  Pr
  Pr3      1.0000 0.49081  0.74081  0.48162  Biso   1.000  Pr
  Pr4      1.0000 0.25919  0.50919  0.01838  Biso   1.000  Pr
  H1       1.0000 0.86800  0.31200  0.43000  Biso   1.000  H
  H2       1.0000 0.06200  0.11800  0.43000  Biso   1.000  H
  H3       1.0000 0.68800  0.13200  0.07000  Biso   1.000  H
  H4       1.0000 0.88200  0.93800  0.07000  Biso   1.000  H
  H5       1.0000 0.13200  0.68800  0.57000  Biso   1.000  H
  H6       1.0000 0.93800  0.88200  0.57000  Biso   1.000  H
  H7       1.0000 0.31200  0.86800  0.93000  Biso   1.000  H
  H8       1.0000 0.11800  0.06200  0.93000  Biso   1.000  H
  C1       1.0000 0.74899  0.06039  0.44158  Biso   1.000  C
  C2       1.0000 0.89398  0.21378  0.43516  Biso   1.000  C
  C3       1.0000 0.19259  0.38119  0.44158  Biso   1.000  C
  C4       1.0000 0.04118  0.22138  0.43516  Biso   1.000  C
  C5       1.0000 0.93961  0.25101  0.05842  Biso   1.000  C
  C6       1.0000 0.78622  0.10602  0.06484  Biso   1.000  C
  C7       1.0000 0.61881  0.80741  0.05842  Biso   1.000  C
  C8       1.0000 0.77862  0.95882  0.06484  Biso   1.000  C
  C9       1.0000 0.25101  0.93961  0.55842  Biso   1.000  C
  C10      1.0000 0.10602  0.78622  0.56484  Biso   1.000  C
  C11      1.0000 0.80741  0.61881  0.55842  Biso   1.000  C
  C12      1.0000 0.95882  0.77862  0.56484  Biso   1.000  C
  C13      1.0000 0.06039  0.74899  0.94158  Biso   1.000  C
  C14      1.0000 0.21378  0.89398  0.93516  Biso   1.000  C
  C15      1.0000 0.38119  0.19259  0.94158  Biso   1.000  C
  C16      1.0000 0.22138  0.04118  0.93516  Biso   1.000  C
  C17      1.0000 0.67550  0.32450  0.75000  Biso   1.000  C
  C18      1.0000 0.57450  0.42550  0.75000  Biso   1.000  C
  C19      1.0000 0.32450  0.67550  0.25000  Biso   1.000  C
  C20      1.0000 0.42550  0.57450  0.25000  Biso   1.000  C
  O1       1.0000 0.66071  0.23791  0.67042  Biso   1.000  O
  O2       1.0000 0.63375  0.08169  0.46684  Biso   1.000  O
  O3       1.0000 0.27985  0.03583  0.36948  Biso   1.000  O
  O4       1.0000 0.74221  0.91735  0.42416  Biso   1.000  O
  O5       1.0000 0.50971  0.43251  0.67042  Biso   1.000  O
  O6       1.0000 0.33309  0.38515  0.46684  Biso   1.000  O
  O7       1.0000 0.58963  0.33365  0.36948  Biso   1.000  O
  O8       1.0000 0.18195  0.50681  0.42416  Biso   1.000  O
  O9       1.0000 0.76209  0.33929  0.82958  Biso   1.000  O
  O10      1.0000 0.91831  0.36625  0.03316  Biso   1.000  O
  O11      1.0000 0.96417  0.72015  0.13052  Biso   1.000  O
  O12      1.0000 0.08265  0.25779  0.07584  Biso   1.000  O
  O13      1.0000 0.56749  0.49029  0.82958  Biso   1.000  O
  O14      1.0000 0.61485  0.66691  0.03316  Biso   1.000  O
  O15      1.0000 0.66635  0.41037  0.13052  Biso   1.000  O
  O16      1.0000 0.49319  0.81805  0.07584  Biso   1.000  O
  O17      1.0000 0.33929  0.76209  0.32958  Biso   1.000  O
  O18      1.0000 0.36625  0.91831  0.53316  Biso   1.000  O
  O19      1.0000 0.72015  0.96417  0.63052  Biso   1.000  O
  O20      1.0000 0.25779  0.08265  0.57584  Biso   1.000  O
  O21      1.0000 0.49029  0.56749  0.32958  Biso   1.000  O
  O22      1.0000 0.66691  0.61485  0.53316  Biso   1.000  O
  O23      1.0000 0.41037  0.66635  0.63052  Biso   1.000  O
  O24      1.0000 0.81805  0.49319  0.57584  Biso   1.000  O
  O25      1.0000 0.23791  0.66071  0.17042  Biso   1.000  O
  O26      1.0000 0.08169  0.63375  0.96684  Biso   1.000  O
  O27      1.0000 0.03583  0.27985  0.86948  Biso   1.000  O
  O28      1.0000 0.91735  0.74221  0.92416  Biso   1.000  O
  O29      1.0000 0.43251  0.50971  0.17042  Biso   1.000  O
  O30      1.0000 0.38515  0.33309  0.96684  Biso   1.000  O
  O31      1.0000 0.33365  0.58963  0.86948  Biso   1.000  O
  O32      1.0000 0.50681  0.18195  0.92416  Biso   1.000  O
