data_image0
_cell_length_a       13.5393
_cell_length_b       13.5393
_cell_length_c       15.0443
_cell_angle_alpha    90
_cell_angle_beta     90
_cell_angle_gamma    120

_symmetry_space_group_name_H-M    "P 1"
_symmetry_int_tables_number       1

loop_
  _symmetry_equiv_pos_as_xyz
  'x, y, z'

loop_
  _atom_site_label
  _atom_site_occupancy
  _atom_site_fract_x
  _atom_site_fract_y
  _atom_site_fract_z
  _atom_site_thermal_displace_type
  _atom_site_B_iso_or_equiv
  _atom_site_type_symbol
  Zn1      1.0000 0.08880  0.63793  0.07900  Biso   1.000  Zn
  P1       1.0000 0.12850  0.44093  0.05675  Biso   1.000  P
  O1       1.0000 0.18620  0.56650  0.08710  Biso   1.000  O
  O2       1.0000 0.19420  0.78230  0.02700  Biso   1.000  O
  O3       1.0000 0.03360  0.64160  0.19900  Biso   1.000  O
  O4       1.0000 0.94530  0.57350  0.02380  Biso   1.000  O
  Zn2      1.0000 0.75547  0.97126  0.41233  Biso   1.000  Zn
  P2       1.0000 0.79517  0.77426  0.39008  Biso   1.000  P
  O5       1.0000 0.85287  0.89983  0.42043  Biso   1.000  O
  O6       1.0000 0.86087  0.11563  0.36033  Biso   1.000  O
  O7       1.0000 0.70027  0.97493  0.53233  Biso   1.000  O
  O8       1.0000 0.61197  0.90683  0.35713  Biso   1.000  O
  Zn3      1.0000 0.42213  0.30460  0.74567  Biso   1.000  Zn
  P3       1.0000 0.46183  0.10760  0.72342  Biso   1.000  P
  O9       1.0000 0.51953  0.23317  0.75377  Biso   1.000  O
  O10      1.0000 0.52753  0.44897  0.69367  Biso   1.000  O
  O11      1.0000 0.36693  0.30827  0.86567  Biso   1.000  O
  O12      1.0000 0.27863  0.24017  0.69047  Biso   1.000  O
  Zn4      1.0000 0.36207  0.45087  0.07900  Biso   1.000  Zn
  P4       1.0000 0.55907  0.68757  0.05675  Biso   1.000  P
  O13      1.0000 0.43350  0.61970  0.08710  Biso   1.000  O
  O14      1.0000 0.21770  0.41190  0.02700  Biso   1.000  O
  O15      1.0000 0.35840  0.39200  0.19900  Biso   1.000  O
  O16      1.0000 0.42650  0.37180  0.02380  Biso   1.000  O
  Zn5      1.0000 0.02874  0.78420  0.41233  Biso   1.000  Zn
  P5       1.0000 0.22574  0.02090  0.39008  Biso   1.000  P
  O17      1.0000 0.10017  0.95303  0.42043  Biso   1.000  O
  O18      1.0000 0.88437  0.74523  0.36033  Biso   1.000  O
  O19      1.0000 0.02507  0.72533  0.53233  Biso   1.000  O
  O20      1.0000 0.09317  0.70513  0.35713  Biso   1.000  O
  Zn6      1.0000 0.69540  0.11754  0.74567  Biso   1.000  Zn
  P6       1.0000 0.89240  0.35424  0.72342  Biso   1.000  P
  O21      1.0000 0.76683  0.28637  0.75377  Biso   1.000  O
  O22      1.0000 0.55103  0.07857  0.69367  Biso   1.000  O
  O23      1.0000 0.69173  0.05867  0.86567  Biso   1.000  O
  O24      1.0000 0.75983  0.03847  0.69047  Biso   1.000  O
  Zn7      1.0000 0.54913  0.91120  0.07900  Biso   1.000  Zn
  P7       1.0000 0.31243  0.87150  0.05675  Biso   1.000  P
  O25      1.0000 0.38030  0.81380  0.08710  Biso   1.000  O
  O26      1.0000 0.58810  0.80580  0.02700  Biso   1.000  O
  O27      1.0000 0.60800  0.96640  0.19900  Biso   1.000  O
  O28      1.0000 0.62820  0.05470  0.02380  Biso   1.000  O
  Zn8      1.0000 0.21580  0.24453  0.41233  Biso   1.000  Zn
  P8       1.0000 0.97910  0.20483  0.39008  Biso   1.000  P
  O29      1.0000 0.04697  0.14713  0.42043  Biso   1.000  O
  O30      1.0000 0.25477  0.13913  0.36033  Biso   1.000  O
  O31      1.0000 0.27467  0.29973  0.53233  Biso   1.000  O
  O32      1.0000 0.29487  0.38803  0.35713  Biso   1.000  O
  Zn9      1.0000 0.88246  0.57787  0.74567  Biso   1.000  Zn
  P9       1.0000 0.64576  0.53817  0.72342  Biso   1.000  P
  O33      1.0000 0.71363  0.48047  0.75377  Biso   1.000  O
  O34      1.0000 0.92143  0.47247  0.69367  Biso   1.000  O
  O35      1.0000 0.94133  0.63307  0.86567  Biso   1.000  O
  O36      1.0000 0.96153  0.72137  0.69047  Biso   1.000  O
  Zn10     1.0000 0.91120  0.36207  0.92100  Biso   1.000  Zn
  P10      1.0000 0.87150  0.55907  0.94325  Biso   1.000  P
  O37      1.0000 0.81380  0.43350  0.91290  Biso   1.000  O
  O38      1.0000 0.80580  0.21770  0.97300  Biso   1.000  O
  O39      1.0000 0.96640  0.35840  0.80100  Biso   1.000  O
  O40      1.0000 0.05470  0.42650  0.97620  Biso   1.000  O
  Zn11     1.0000 0.57787  0.69540  0.25433  Biso   1.000  Zn
  P11      1.0000 0.53817  0.89240  0.27658  Biso   1.000  P
  O41      1.0000 0.48047  0.76683  0.24623  Biso   1.000  O
  O42      1.0000 0.47247  0.55103  0.30633  Biso   1.000  O
  O43      1.0000 0.63307  0.69173  0.13433  Biso   1.000  O
  O44      1.0000 0.72137  0.75983  0.30953  Biso   1.000  O
  Zn12     1.0000 0.24453  0.02874  0.58767  Biso   1.000  Zn
  P12      1.0000 0.20483  0.22574  0.60992  Biso   1.000  P
  O45      1.0000 0.14713  0.10017  0.57957  Biso   1.000  O
  O46      1.0000 0.13913  0.88437  0.63967  Biso   1.000  O
  O47      1.0000 0.29973  0.02507  0.46767  Biso   1.000  O
  O48      1.0000 0.38803  0.09317  0.64287  Biso   1.000  O
  Zn13     1.0000 0.63793  0.54913  0.92100  Biso   1.000  Zn
  P13      1.0000 0.44093  0.31243  0.94325  Biso   1.000  P
  O49      1.0000 0.56650  0.38030  0.91290  Biso   1.000  O
  O50      1.0000 0.78230  0.58810  0.97300  Biso   1.000  O
  O51      1.0000 0.64160  0.60800  0.80100  Biso   1.000  O
  O52      1.0000 0.57350  0.62820  0.97620  Biso   1.000  O
  Zn14     1.0000 0.30460  0.88246  0.25433  Biso   1.000  Zn
  P14      1.0000 0.10760  0.64576  0.27658  Biso   1.000  P
  O53      1.0000 0.23317  0.71363  0.24623  Biso   1.000  O
  O54      1.0000 0.44897  0.92143  0.30633  Biso   1.000  O
  O55      1.0000 0.30827  0.94133  0.13433  Biso   1.000  O
  O56      1.0000 0.24017  0.96153  0.30953  Biso   1.000  O
  Zn15     1.0000 0.97126  0.21580  0.58767  Biso   1.000  Zn
  P15      1.0000 0.77426  0.97910  0.60992  Biso   1.000  P
  O57      1.0000 0.89983  0.04697  0.57957  Biso   1.000  O
  O58      1.0000 0.11563  0.25477  0.63967  Biso   1.000  O
  O59      1.0000 0.97493  0.27467  0.46767  Biso   1.000  O
  O60      1.0000 0.90683  0.29487  0.64287  Biso   1.000  O
  Zn16     1.0000 0.45087  0.08880  0.92100  Biso   1.000  Zn
  P16      1.0000 0.68757  0.12850  0.94325  Biso   1.000  P
  O61      1.0000 0.61970  0.18620  0.91290  Biso   1.000  O
  O62      1.0000 0.41190  0.19420  0.97300  Biso   1.000  O
  O63      1.0000 0.39200  0.03360  0.80100  Biso   1.000  O
  O64      1.0000 0.37180  0.94530  0.97620  Biso   1.000  O
  Zn17     1.0000 0.11754  0.42213  0.25433  Biso   1.000  Zn
  P17      1.0000 0.35424  0.46183  0.27658  Biso   1.000  P
  O65      1.0000 0.28637  0.51953  0.24623  Biso   1.000  O
  O66      1.0000 0.07857  0.52753  0.30633  Biso   1.000  O
  O67      1.0000 0.05867  0.36693  0.13433  Biso   1.000  O
  O68      1.0000 0.03847  0.27863  0.30953  Biso   1.000  O
  Zn18     1.0000 0.78420  0.75547  0.58767  Biso   1.000  Zn
  P18      1.0000 0.02090  0.79517  0.60992  Biso   1.000  P
  O69      1.0000 0.95303  0.85287  0.57957  Biso   1.000  O
  O70      1.0000 0.74523  0.86087  0.63967  Biso   1.000  O
  O71      1.0000 0.72533  0.70027  0.46767  Biso   1.000  O
  O72      1.0000 0.70513  0.61197  0.64287  Biso   1.000  O
  Co1      1.0000 0.33333  0.66667  0.16667  Biso   1.000  Co
  Co2      1.0000 0.00000  0.00000  0.50000  Biso   1.000  Co
  Co3      1.0000 0.66667  0.33333  0.83333  Biso   1.000  Co
