data_image0
_cell_length_a       9.4592
_cell_length_b       41.254
_cell_length_c       18.4138
_cell_angle_alpha    98.645
_cell_angle_beta     90
_cell_angle_gamma    90

_symmetry_space_group_name_H-M    P 1
_symmetry_int_tables_number       1

loop_
  _symmetry_equiv_pos_as_xyz
  'x, y, z'

loop_
  _atom_site_label
  _atom_site_occupancy
  _atom_site_fract_x
  _atom_site_fract_y
  _atom_site_fract_z
  _atom_site_thermal_displace_type
  _atom_site_B_iso_or_equiv
  _atom_site_type_symbol
  Zn1      1.0000 0.45639  0.57981  0.52950  Biso   1.000  Zn
  Zn2      1.0000 0.04269  0.92025  0.46925  Biso   1.000  Zn
  Zn3      1.0000 0.95639  0.42019  0.97050  Biso   1.000  Zn
  Zn4      1.0000 0.54269  0.07975  0.03075  Biso   1.000  Zn
  Zn5      1.0000 0.54361  0.42019  0.47050  Biso   1.000  Zn
  Zn6      1.0000 0.95731  0.07975  0.53075  Biso   1.000  Zn
  Zn7      1.0000 0.04361  0.57981  0.02950  Biso   1.000  Zn
  Zn8      1.0000 0.45731  0.92025  0.96925  Biso   1.000  Zn
  Zn9      1.0000 0.50000  0.50000  0.50000  Biso   1.000  Zn
  Zn10     1.0000 0.00000  0.50000  0.00000  Biso   1.000  Zn
  Zn11     1.0000 0.00000  0.00000  0.50000  Biso   1.000  Zn
  Zn12     1.0000 0.50000  0.00000  0.00000  Biso   1.000  Zn
  Cu1      1.0000 0.19145  0.74992  0.53204  Biso   1.000  Cu
  Cu2      1.0000 0.69145  0.25008  0.96796  Biso   1.000  Cu
  Cu3      1.0000 0.80855  0.25008  0.46796  Biso   1.000  Cu
  Cu4      1.0000 0.30855  0.74992  0.03204  Biso   1.000  Cu
  H1       1.0000 0.74280  0.59910  0.36200  Biso   1.000  H
  H2       1.0000 0.84320  0.60160  0.24760  Biso   1.000  H
  H3       1.0000 0.85160  0.50320  0.20720  Biso   1.000  H
  H4       1.0000 0.75170  0.50060  0.32080  Biso   1.000  H
  H5       1.0000 0.19400  0.49720  0.41660  Biso   1.000  H
  H6       1.0000 0.00100  0.54000  0.59820  Biso   1.000  H
  H7       1.0000 0.83630  0.90100  0.26220  Biso   1.000  H
  H8       1.0000 0.73540  0.90050  0.14620  Biso   1.000  H
  H9       1.0000 0.75020  0.99910  0.17270  Biso   1.000  H
  H10      1.0000 0.85900  0.99950  0.28590  Biso   1.000  H
  H11      1.0000 0.51440  0.62510  0.42410  Biso   1.000  H
  H12      1.0000 0.26200  0.62990  0.58300  Biso   1.000  H
  H13      1.0000 0.54990  0.66430  0.34840  Biso   1.000  H
  H14      1.0000 0.54420  0.70080  0.39230  Biso   1.000  H
  H15      1.0000 0.41360  0.68660  0.34200  Biso   1.000  H
  H16      1.0000 0.17690  0.68550  0.65050  Biso   1.000  H
  H17      1.0000 0.90510  0.73040  0.61600  Biso   1.000  H
  H18      1.0000 0.00220  0.72270  0.68200  Biso   1.000  H
  H19      1.0000 0.07750  0.77200  0.70640  Biso   1.000  H
  H20      1.0000 0.92310  0.77850  0.67470  Biso   1.000  H
  H21      1.0000 0.01400  0.82540  0.62790  Biso   1.000  H
  H22      1.0000 0.02900  0.86940  0.57150  Biso   1.000  H
  H23      1.0000 0.21400  0.86690  0.36540  Biso   1.000  H
  H24      1.0000 0.32020  0.82330  0.30790  Biso   1.000  H
  H25      1.0000 0.25220  0.78930  0.32200  Biso   1.000  H
  H26      1.0000 0.39640  0.80190  0.36210  Biso   1.000  H
  H27      1.0000 0.24280  0.40090  0.13800  Biso   1.000  H
  H28      1.0000 0.34320  0.39840  0.25240  Biso   1.000  H
  H29      1.0000 0.35160  0.49680  0.29280  Biso   1.000  H
  H30      1.0000 0.25170  0.49940  0.17920  Biso   1.000  H
  H31      1.0000 0.69400  0.50280  0.08340  Biso   1.000  H
  H32      1.0000 0.50100  0.46000  0.90180  Biso   1.000  H
  H33      1.0000 0.33630  0.09900  0.23780  Biso   1.000  H
  H34      1.0000 0.23540  0.09950  0.35380  Biso   1.000  H
  H35      1.0000 0.25020  0.00090  0.32730  Biso   1.000  H
  H36      1.0000 0.35900  0.00050  0.21410  Biso   1.000  H
  H37      1.0000 0.01440  0.37490  0.07590  Biso   1.000  H
  H38      1.0000 0.76200  0.37010  0.91700  Biso   1.000  H
  H39      1.0000 0.04990  0.33570  0.15160  Biso   1.000  H
  H40      1.0000 0.04420  0.29920  0.10770  Biso   1.000  H
  H41      1.0000 0.91360  0.31340  0.15800  Biso   1.000  H
  H42      1.0000 0.67690  0.31450  0.84950  Biso   1.000  H
  H43      1.0000 0.40510  0.26960  0.88400  Biso   1.000  H
  H44      1.0000 0.50220  0.27730  0.81800  Biso   1.000  H
  H45      1.0000 0.57750  0.22800  0.79360  Biso   1.000  H
  H46      1.0000 0.42310  0.22150  0.82530  Biso   1.000  H
  H47      1.0000 0.51400  0.17460  0.87210  Biso   1.000  H
  H48      1.0000 0.52900  0.13060  0.92850  Biso   1.000  H
  H49      1.0000 0.71400  0.13310  0.13460  Biso   1.000  H
  H50      1.0000 0.82020  0.17670  0.19210  Biso   1.000  H
  H51      1.0000 0.75220  0.21070  0.17800  Biso   1.000  H
  H52      1.0000 0.89640  0.19810  0.13790  Biso   1.000  H
  H53      1.0000 0.25720  0.40090  0.63800  Biso   1.000  H
  H54      1.0000 0.15680  0.39840  0.75240  Biso   1.000  H
  H55      1.0000 0.14840  0.49680  0.79280  Biso   1.000  H
  H56      1.0000 0.24830  0.49940  0.67920  Biso   1.000  H
  H57      1.0000 0.80600  0.50280  0.58340  Biso   1.000  H
  H58      1.0000 0.99900  0.46000  0.40180  Biso   1.000  H
  H59      1.0000 0.16370  0.09900  0.73780  Biso   1.000  H
  H60      1.0000 0.26460  0.09950  0.85380  Biso   1.000  H
  H61      1.0000 0.24980  0.00090  0.82730  Biso   1.000  H
  H62      1.0000 0.14100  0.00050  0.71410  Biso   1.000  H
  H63      1.0000 0.48560  0.37490  0.57590  Biso   1.000  H
  H64      1.0000 0.73800  0.37010  0.41700  Biso   1.000  H
  H65      1.0000 0.45010  0.33570  0.65160  Biso   1.000  H
  H66      1.0000 0.45580  0.29920  0.60770  Biso   1.000  H
  H67      1.0000 0.58640  0.31340  0.65800  Biso   1.000  H
  H68      1.0000 0.82310  0.31450  0.34950  Biso   1.000  H
  H69      1.0000 0.09490  0.26960  0.38400  Biso   1.000  H
  H70      1.0000 0.99780  0.27730  0.31800  Biso   1.000  H
  H71      1.0000 0.92250  0.22800  0.29360  Biso   1.000  H
  H72      1.0000 0.07690  0.22150  0.32530  Biso   1.000  H
  H73      1.0000 0.98600  0.17460  0.37210  Biso   1.000  H
  H74      1.0000 0.97100  0.13060  0.42850  Biso   1.000  H
  H75      1.0000 0.78600  0.13310  0.63460  Biso   1.000  H
  H76      1.0000 0.67980  0.17670  0.69210  Biso   1.000  H
  H77      1.0000 0.74780  0.21070  0.67800  Biso   1.000  H
  H78      1.0000 0.60360  0.19810  0.63790  Biso   1.000  H
  H79      1.0000 0.75720  0.59910  0.86200  Biso   1.000  H
  H80      1.0000 0.65680  0.60160  0.74760  Biso   1.000  H
  H81      1.0000 0.64840  0.50320  0.70720  Biso   1.000  H
  H82      1.0000 0.74830  0.50060  0.82080  Biso   1.000  H
  H83      1.0000 0.30600  0.49720  0.91660  Biso   1.000  H
  H84      1.0000 0.49900  0.54000  0.09820  Biso   1.000  H
  H85      1.0000 0.66370  0.90100  0.76220  Biso   1.000  H
  H86      1.0000 0.76460  0.90050  0.64620  Biso   1.000  H
  H87      1.0000 0.74980  0.99910  0.67270  Biso   1.000  H
  H88      1.0000 0.64100  0.99950  0.78590  Biso   1.000  H
  H89      1.0000 0.98560  0.62510  0.92410  Biso   1.000  H
  H90      1.0000 0.23800  0.62990  0.08300  Biso   1.000  H
  H91      1.0000 0.95010  0.66430  0.84840  Biso   1.000  H
  H92      1.0000 0.95580  0.70080  0.89230  Biso   1.000  H
  H93      1.0000 0.08640  0.68660  0.84200  Biso   1.000  H
  H94      1.0000 0.32310  0.68550  0.15050  Biso   1.000  H
  H95      1.0000 0.59490  0.73040  0.11600  Biso   1.000  H
  H96      1.0000 0.49780  0.72270  0.18200  Biso   1.000  H
  H97      1.0000 0.42250  0.77200  0.20640  Biso   1.000  H
  H98      1.0000 0.57690  0.77850  0.17470  Biso   1.000  H
  H99      1.0000 0.48600  0.82540  0.12790  Biso   1.000  H
  H100     1.0000 0.47100  0.86940  0.07150  Biso   1.000  H
  H101     1.0000 0.28600  0.86690  0.86540  Biso   1.000  H
  H102     1.0000 0.17980  0.82330  0.80790  Biso   1.000  H
  H103     1.0000 0.24780  0.78930  0.82200  Biso   1.000  H
  H104     1.0000 0.10360  0.80190  0.86210  Biso   1.000  H
  C1       1.0000 0.65270  0.54801  0.41962  Biso   1.000  C
  C2       1.0000 0.73230  0.54939  0.34922  Biso   1.000  C
  C3       1.0000 0.76320  0.57950  0.32954  Biso   1.000  C
  C4       1.0000 0.82450  0.58086  0.26200  Biso   1.000  C
  C5       1.0000 0.85900  0.55268  0.21485  Biso   1.000  C
  C6       1.0000 0.82910  0.52297  0.23850  Biso   1.000  C
  C7       1.0000 0.76830  0.52125  0.30544  Biso   1.000  C
  C8       1.0000 0.92170  0.55296  0.13984  Biso   1.000  C
  C9       1.0000 0.23450  0.54501  0.52935  Biso   1.000  C
  C10      1.0000 0.11380  0.52176  0.51451  Biso   1.000  C
  C11      1.0000 0.11000  0.49789  0.45132  Biso   1.000  C
  C12      1.0000 0.00190  0.52296  0.56140  Biso   1.000  C
  C13      1.0000 0.91810  0.95097  0.35909  Biso   1.000  C
  C14      1.0000 0.85620  0.95090  0.28394  Biso   1.000  C
  C15      1.0000 0.81960  0.92090  0.24360  Biso   1.000  C
  C16      1.0000 0.75780  0.92087  0.17530  Biso   1.000  C
  C17      1.0000 0.72820  0.94943  0.14849  Biso   1.000  C
  C18      1.0000 0.76760  0.97905  0.19054  Biso   1.000  C
  C19      1.0000 0.83170  0.97925  0.25772  Biso   1.000  C
  C20      1.0000 0.64770  0.94934  0.07902  Biso   1.000  C
  C21      1.0000 0.26720  0.95666  0.46530  Biso   1.000  C
  C22      1.0000 0.38880  0.97961  0.48303  Biso   1.000  C
  C23      1.0000 0.38420  0.00072  0.54909  Biso   1.000  C
  C24      1.0000 0.49960  0.97835  0.43370  Biso   1.000  C
  C25      1.0000 0.45000  0.63775  0.45630  Biso   1.000  C
  C26      1.0000 0.41990  0.66786  0.44280  Biso   1.000  C
  C27      1.0000 0.33090  0.68871  0.48700  Biso   1.000  C
  C28      1.0000 0.26760  0.67413  0.54590  Biso   1.000  C
  C29      1.0000 0.30810  0.64270  0.55600  Biso   1.000  C
  C30      1.0000 0.48840  0.68115  0.37500  Biso   1.000  C
  C31      1.0000 0.18060  0.69187  0.60310  Biso   1.000  C
  C32      1.0000 0.00000  0.73408  0.63830  Biso   1.000  C
  C33      1.0000 0.01600  0.76801  0.66250  Biso   1.000  C
  C34      1.0000 0.05900  0.81110  0.58870  Biso   1.000  C
  C35      1.0000 0.10910  0.82509  0.52540  Biso   1.000  C
  C36      1.0000 0.07510  0.85871  0.52360  Biso   1.000  C
  C37      1.0000 0.18200  0.85860  0.41230  Biso   1.000  C
  C38      1.0000 0.22080  0.82660  0.40880  Biso   1.000  C
  C39      1.0000 0.18880  0.80823  0.46690  Biso   1.000  C
  C40      1.0000 0.30490  0.80865  0.34440  Biso   1.000  C
  C41      1.0000 0.15270  0.45199  0.08038  Biso   1.000  C
  C42      1.0000 0.23230  0.45061  0.15078  Biso   1.000  C
  C43      1.0000 0.26320  0.42050  0.17046  Biso   1.000  C
  C44      1.0000 0.32450  0.41914  0.23800  Biso   1.000  C
  C45      1.0000 0.35900  0.44732  0.28515  Biso   1.000  C
  C46      1.0000 0.32910  0.47703  0.26150  Biso   1.000  C
  C47      1.0000 0.26830  0.47875  0.19456  Biso   1.000  C
  C48      1.0000 0.42170  0.44704  0.36016  Biso   1.000  C
  C49      1.0000 0.73450  0.45499  0.97065  Biso   1.000  C
  C50      1.0000 0.61380  0.47824  0.98549  Biso   1.000  C
  C51      1.0000 0.61000  0.50211  0.04868  Biso   1.000  C
  C52      1.0000 0.50190  0.47704  0.93860  Biso   1.000  C
  C53      1.0000 0.41810  0.04903  0.14091  Biso   1.000  C
  C54      1.0000 0.35620  0.04910  0.21606  Biso   1.000  C
  C55      1.0000 0.31960  0.07910  0.25640  Biso   1.000  C
  C56      1.0000 0.25780  0.07913  0.32470  Biso   1.000  C
  C57      1.0000 0.22820  0.05057  0.35151  Biso   1.000  C
  C58      1.0000 0.26760  0.02095  0.30946  Biso   1.000  C
  C59      1.0000 0.33170  0.02075  0.24228  Biso   1.000  C
  C60      1.0000 0.14770  0.05066  0.42098  Biso   1.000  C
  C61      1.0000 0.76720  0.04334  0.03470  Biso   1.000  C
  C62      1.0000 0.88880  0.02039  0.01697  Biso   1.000  C
  C63      1.0000 0.88420  0.99928  0.95091  Biso   1.000  C
  C64      1.0000 0.99960  0.02165  0.06630  Biso   1.000  C
  C65      1.0000 0.95000  0.36225  0.04370  Biso   1.000  C
  C66      1.0000 0.91990  0.33214  0.05720  Biso   1.000  C
  C67      1.0000 0.83090  0.31129  0.01300  Biso   1.000  C
  C68      1.0000 0.76760  0.32587  0.95410  Biso   1.000  C
  C69      1.0000 0.80810  0.35730  0.94400  Biso   1.000  C
  C70      1.0000 0.98840  0.31885  0.12500  Biso   1.000  C
  C71      1.0000 0.68060  0.30813  0.89690  Biso   1.000  C
  C72      1.0000 0.50000  0.26592  0.86170  Biso   1.000  C
  C73      1.0000 0.51600  0.23199  0.83750  Biso   1.000  C
  C74      1.0000 0.55900  0.18890  0.91130  Biso   1.000  C
  C75      1.0000 0.60910  0.17491  0.97460  Biso   1.000  C
  C76      1.0000 0.57510  0.14129  0.97640  Biso   1.000  C
  C77      1.0000 0.68200  0.14140  0.08770  Biso   1.000  C
  C78      1.0000 0.72080  0.17340  0.09120  Biso   1.000  C
  C79      1.0000 0.68880  0.19177  0.03310  Biso   1.000  C
  C80      1.0000 0.80490  0.19135  0.15560  Biso   1.000  C
  C81      1.0000 0.34730  0.45199  0.58038  Biso   1.000  C
  C82      1.0000 0.26770  0.45061  0.65078  Biso   1.000  C
  C83      1.0000 0.23680  0.42050  0.67046  Biso   1.000  C
  C84      1.0000 0.17550  0.41914  0.73800  Biso   1.000  C
  C85      1.0000 0.14100  0.44732  0.78515  Biso   1.000  C
  C86      1.0000 0.17090  0.47703  0.76150  Biso   1.000  C
  C87      1.0000 0.23170  0.47875  0.69456  Biso   1.000  C
  C88      1.0000 0.07830  0.44704  0.86016  Biso   1.000  C
  C89      1.0000 0.76550  0.45499  0.47065  Biso   1.000  C
  C90      1.0000 0.88620  0.47824  0.48549  Biso   1.000  C
  C91      1.0000 0.89000  0.50211  0.54868  Biso   1.000  C
  C92      1.0000 0.99810  0.47704  0.43860  Biso   1.000  C
  C93      1.0000 0.08190  0.04903  0.64091  Biso   1.000  C
  C94      1.0000 0.14380  0.04910  0.71606  Biso   1.000  C
  C95      1.0000 0.18040  0.07910  0.75640  Biso   1.000  C
  C96      1.0000 0.24220  0.07913  0.82470  Biso   1.000  C
  C97      1.0000 0.27180  0.05057  0.85151  Biso   1.000  C
  C98      1.0000 0.23240  0.02095  0.80946  Biso   1.000  C
  C99      1.0000 0.16830  0.02075  0.74228  Biso   1.000  C
  C100     1.0000 0.35230  0.05066  0.92098  Biso   1.000  C
  C101     1.0000 0.73280  0.04334  0.53470  Biso   1.000  C
  C102     1.0000 0.61120  0.02039  0.51697  Biso   1.000  C
  C103     1.0000 0.61580  0.99928  0.45091  Biso   1.000  C
  C104     1.0000 0.50040  0.02165  0.56630  Biso   1.000  C
  C105     1.0000 0.55000  0.36225  0.54370  Biso   1.000  C
  C106     1.0000 0.58010  0.33214  0.55720  Biso   1.000  C
  C107     1.0000 0.66910  0.31129  0.51300  Biso   1.000  C
  C108     1.0000 0.73240  0.32587  0.45410  Biso   1.000  C
  C109     1.0000 0.69190  0.35730  0.44400  Biso   1.000  C
  C110     1.0000 0.51160  0.31885  0.62500  Biso   1.000  C
  C111     1.0000 0.81940  0.30813  0.39690  Biso   1.000  C
  C112     1.0000 0.00000  0.26592  0.36170  Biso   1.000  C
  C113     1.0000 0.98400  0.23199  0.33750  Biso   1.000  C
  C114     1.0000 0.94100  0.18890  0.41130  Biso   1.000  C
  C115     1.0000 0.89090  0.17491  0.47460  Biso   1.000  C
  C116     1.0000 0.92490  0.14129  0.47640  Biso   1.000  C
  C117     1.0000 0.81800  0.14140  0.58770  Biso   1.000  C
  C118     1.0000 0.77920  0.17340  0.59120  Biso   1.000  C
  C119     1.0000 0.81120  0.19177  0.53310  Biso   1.000  C
  C120     1.0000 0.69510  0.19135  0.65560  Biso   1.000  C
  C121     1.0000 0.84730  0.54801  0.91962  Biso   1.000  C
  C122     1.0000 0.76770  0.54939  0.84922  Biso   1.000  C
  C123     1.0000 0.73680  0.57950  0.82954  Biso   1.000  C
  C124     1.0000 0.67550  0.58086  0.76200  Biso   1.000  C
  C125     1.0000 0.64100  0.55268  0.71485  Biso   1.000  C
  C126     1.0000 0.67090  0.52297  0.73850  Biso   1.000  C
  C127     1.0000 0.73170  0.52125  0.80544  Biso   1.000  C
  C128     1.0000 0.57830  0.55296  0.63984  Biso   1.000  C
  C129     1.0000 0.26550  0.54501  0.02935  Biso   1.000  C
  C130     1.0000 0.38620  0.52176  0.01451  Biso   1.000  C
  C131     1.0000 0.39000  0.49789  0.95132  Biso   1.000  C
  C132     1.0000 0.49810  0.52296  0.06140  Biso   1.000  C
  C133     1.0000 0.58190  0.95097  0.85909  Biso   1.000  C
  C134     1.0000 0.64380  0.95090  0.78394  Biso   1.000  C
  C135     1.0000 0.68040  0.92090  0.74360  Biso   1.000  C
  C136     1.0000 0.74220  0.92087  0.67530  Biso   1.000  C
  C137     1.0000 0.77180  0.94943  0.64849  Biso   1.000  C
  C138     1.0000 0.73240  0.97905  0.69054  Biso   1.000  C
  C139     1.0000 0.66830  0.97925  0.75772  Biso   1.000  C
  C140     1.0000 0.85230  0.94934  0.57902  Biso   1.000  C
  C141     1.0000 0.23280  0.95666  0.96530  Biso   1.000  C
  C142     1.0000 0.11120  0.97961  0.98303  Biso   1.000  C
  C143     1.0000 0.11580  0.00072  0.04909  Biso   1.000  C
  C144     1.0000 0.00040  0.97835  0.93370  Biso   1.000  C
  C145     1.0000 0.05000  0.63775  0.95630  Biso   1.000  C
  C146     1.0000 0.08010  0.66786  0.94280  Biso   1.000  C
  C147     1.0000 0.16910  0.68871  0.98700  Biso   1.000  C
  C148     1.0000 0.23240  0.67413  0.04590  Biso   1.000  C
  C149     1.0000 0.19190  0.64270  0.05600  Biso   1.000  C
  C150     1.0000 0.01160  0.68115  0.87500  Biso   1.000  C
  C151     1.0000 0.31940  0.69187  0.10310  Biso   1.000  C
  C152     1.0000 0.50000  0.73408  0.13830  Biso   1.000  C
  C153     1.0000 0.48400  0.76801  0.16250  Biso   1.000  C
  C154     1.0000 0.44100  0.81110  0.08870  Biso   1.000  C
  C155     1.0000 0.39090  0.82509  0.02540  Biso   1.000  C
  C156     1.0000 0.42490  0.85871  0.02360  Biso   1.000  C
  C157     1.0000 0.31800  0.85860  0.91230  Biso   1.000  C
  C158     1.0000 0.27920  0.82660  0.90880  Biso   1.000  C
  C159     1.0000 0.31120  0.80823  0.96690  Biso   1.000  C
  C160     1.0000 0.19510  0.80865  0.84440  Biso   1.000  C
  N1       1.0000 0.39700  0.62412  0.51142  Biso   1.000  N
  N2       1.0000 0.10980  0.87456  0.46990  Biso   1.000  N
  N3       1.0000 0.10170  0.71867  0.58670  Biso   1.000  N
  N4       1.0000 0.08600  0.78186  0.59589  Biso   1.000  N
  N5       1.0000 0.89700  0.37588  0.98858  Biso   1.000  N
  N6       1.0000 0.60980  0.12544  0.03010  Biso   1.000  N
  N7       1.0000 0.60170  0.28133  0.91330  Biso   1.000  N
  N8       1.0000 0.58600  0.21814  0.90411  Biso   1.000  N
  N9       1.0000 0.60300  0.37588  0.48858  Biso   1.000  N
  N10      1.0000 0.89020  0.12544  0.53010  Biso   1.000  N
  N11      1.0000 0.89830  0.28133  0.41330  Biso   1.000  N
  N12      1.0000 0.91400  0.21814  0.40411  Biso   1.000  N
  N13      1.0000 0.10300  0.62412  0.01142  Biso   1.000  N
  N14      1.0000 0.39020  0.87456  0.96990  Biso   1.000  N
  N15      1.0000 0.39830  0.71867  0.08670  Biso   1.000  N
  N16      1.0000 0.41400  0.78186  0.09589  Biso   1.000  N
  O1       1.0000 0.60860  0.57432  0.45420  Biso   1.000  O
  O2       1.0000 0.63650  0.51953  0.43770  Biso   1.000  O
  O3       1.0000 0.93090  0.52685  0.09878  Biso   1.000  O
  O4       1.0000 0.95560  0.58100  0.12487  Biso   1.000  O
  O5       1.0000 0.34720  0.53917  0.49037  Biso   1.000  O
  O6       1.0000 0.22450  0.56949  0.57666  Biso   1.000  O
  O7       1.0000 0.94170  0.92335  0.37992  Biso   1.000  O
  O8       1.0000 0.94310  0.97877  0.39597  Biso   1.000  O
  O9       1.0000 0.64240  0.97539  0.05229  Biso   1.000  O
  O10      1.0000 0.59200  0.92285  0.05118  Biso   1.000  O
  O11      1.0000 0.15390  0.96054  0.50510  Biso   1.000  O
  O12      1.0000 0.27520  0.93313  0.41545  Biso   1.000  O
  O13      1.0000 0.30080  0.71750  0.47069  Biso   1.000  O
  O14      1.0000 0.22980  0.77852  0.46312  Biso   1.000  O
  O15      1.0000 0.10860  0.42568  0.04580  Biso   1.000  O
  O16      1.0000 0.13650  0.48047  0.06230  Biso   1.000  O
  O17      1.0000 0.43090  0.47315  0.40122  Biso   1.000  O
  O18      1.0000 0.45560  0.41900  0.37513  Biso   1.000  O
  O19      1.0000 0.84720  0.46083  0.00963  Biso   1.000  O
  O20      1.0000 0.72450  0.43051  0.92334  Biso   1.000  O
  O21      1.0000 0.44170  0.07665  0.12008  Biso   1.000  O
  O22      1.0000 0.44310  0.02123  0.10403  Biso   1.000  O
  O23      1.0000 0.14240  0.02461  0.44771  Biso   1.000  O
  O24      1.0000 0.09200  0.07715  0.44882  Biso   1.000  O
  O25      1.0000 0.65390  0.03946  0.99490  Biso   1.000  O
  O26      1.0000 0.77520  0.06687  0.08455  Biso   1.000  O
  O27      1.0000 0.80080  0.28250  0.02931  Biso   1.000  O
  O28      1.0000 0.72980  0.22148  0.03688  Biso   1.000  O
  O29      1.0000 0.39140  0.42568  0.54580  Biso   1.000  O
  O30      1.0000 0.36350  0.48047  0.56230  Biso   1.000  O
  O31      1.0000 0.06910  0.47315  0.90122  Biso   1.000  O
  O32      1.0000 0.04440  0.41900  0.87513  Biso   1.000  O
  O33      1.0000 0.65280  0.46083  0.50963  Biso   1.000  O
  O34      1.0000 0.77550  0.43051  0.42334  Biso   1.000  O
  O35      1.0000 0.05830  0.07665  0.62008  Biso   1.000  O
  O36      1.0000 0.05690  0.02123  0.60403  Biso   1.000  O
  O37      1.0000 0.35760  0.02461  0.94771  Biso   1.000  O
  O38      1.0000 0.40800  0.07715  0.94882  Biso   1.000  O
  O39      1.0000 0.84610  0.03946  0.49490  Biso   1.000  O
  O40      1.0000 0.72480  0.06687  0.58455  Biso   1.000  O
  O41      1.0000 0.69920  0.28250  0.52931  Biso   1.000  O
  O42      1.0000 0.77020  0.22148  0.53688  Biso   1.000  O
  O43      1.0000 0.89140  0.57432  0.95420  Biso   1.000  O
  O44      1.0000 0.86350  0.51953  0.93770  Biso   1.000  O
  O45      1.0000 0.56910  0.52685  0.59878  Biso   1.000  O
  O46      1.0000 0.54440  0.58100  0.62487  Biso   1.000  O
  O47      1.0000 0.15280  0.53917  0.99037  Biso   1.000  O
  O48      1.0000 0.27550  0.56949  0.07666  Biso   1.000  O
  O49      1.0000 0.55830  0.92335  0.87992  Biso   1.000  O
  O50      1.0000 0.55690  0.97877  0.89597  Biso   1.000  O
  O51      1.0000 0.85760  0.97539  0.55229  Biso   1.000  O
  O52      1.0000 0.90800  0.92285  0.55118  Biso   1.000  O
  O53      1.0000 0.34610  0.96054  0.00510  Biso   1.000  O
  O54      1.0000 0.22480  0.93313  0.91545  Biso   1.000  O
  O55      1.0000 0.19920  0.71750  0.97069  Biso   1.000  O
  O56      1.0000 0.27020  0.77852  0.96312  Biso   1.000  O
