data_image0
_cell_length_a       8.3911
_cell_length_b       10.5518
_cell_length_c       17.4632
_cell_angle_alpha    98.993
_cell_angle_beta     97.112
_cell_angle_gamma    100.424

_symmetry_space_group_name_H-M    "P 1"
_symmetry_int_tables_number       1

loop_
  _symmetry_equiv_pos_as_xyz
  'x, y, z'

loop_
  _atom_site_label
  _atom_site_occupancy
  _atom_site_fract_x
  _atom_site_fract_y
  _atom_site_fract_z
  _atom_site_thermal_displace_type
  _atom_site_B_iso_or_equiv
  _atom_site_type_symbol
  Sm1      1.0000 0.52136  0.13786  0.29643  Biso   1.000  Sm
  Sm2      1.0000 0.03463  0.19085  0.23747  Biso   1.000  Sm
  C1       1.0000 0.02590  0.44170  0.19563  Biso   1.000  C
  C2       1.0000 0.02760  0.57140  0.17140  Biso   1.000  C
  C3       1.0000 0.12260  0.68480  0.21756  Biso   1.000  C
  H1       1.0000 0.18400  0.68030  0.26480  Biso   1.000  H
  C4       1.0000 0.12770  0.80550  0.19442  Biso   1.000  C
  C5       1.0000 0.03470  0.81130  0.12430  Biso   1.000  C
  H2       1.0000 0.03540  0.89180  0.10880  Biso   1.000  H
  C6       1.0000 0.94030  0.69780  0.07690  Biso   1.000  C
  H3       1.0000 0.87980  0.70210  0.02940  Biso   1.000  H
  C7       1.0000 0.93660  0.57860  0.10080  Biso   1.000  C
  H4       1.0000 0.87280  0.50270  0.06930  Biso   1.000  H
  C8       1.0000 0.24130  0.92270  0.24236  Biso   1.000  C
  C9       1.0000 0.83910  0.00170  0.35876  Biso   1.000  C
  C10      1.0000 0.87250  0.90610  0.41111  Biso   1.000  C
  C11      1.0000 0.99800  0.83780  0.40220  Biso   1.000  C
  H5       1.0000 0.06180  0.85020  0.36300  Biso   1.000  H
  C12      1.0000 0.02780  0.75180  0.45120  Biso   1.000  C
  H6       1.0000 0.11010  0.70470  0.44400  Biso   1.000  H
  C13      1.0000 0.93730  0.73440  0.51100  Biso   1.000  C
  H7       1.0000 0.95950  0.67690  0.54430  Biso   1.000  H
  C14      1.0000 0.81280  0.80330  0.52119  Biso   1.000  C
  C15      1.0000 0.78020  0.88710  0.47042  Biso   1.000  C
  H8       1.0000 0.69490  0.93140  0.47620  Biso   1.000  H
  C16      1.0000 0.71870  0.79100  0.58747  Biso   1.000  C
  C17      1.0000 0.68830  0.99990  0.13666  Biso   1.000  C
  C18      1.0000 0.59840  0.90590  0.06496  Biso   1.000  C
  C19      1.0000 0.43440  0.84850  0.06260  Biso   1.000  C
  H9       1.0000 0.38370  0.86590  0.10640  Biso   1.000  H
  C20      1.0000 0.34690  0.76640  0.99610  Biso   1.000  C
  H10      1.0000 0.23780  0.72760  0.99520  Biso   1.000  H
  C21      1.0000 0.42040  0.74120  0.93030  Biso   1.000  C
  H11      1.0000 0.35980  0.68740  0.88490  Biso   1.000  H
  C22      1.0000 0.58360  0.79550  0.93178  Biso   1.000  C
  C23      1.0000 0.67260  0.87900  0.99947  Biso   1.000  C
  H12      1.0000 0.78220  0.91680  0.00050  Biso   1.000  H
  C24      1.0000 0.66060  0.77050  0.85978  Biso   1.000  C
  C25      1.0000 0.78580  0.37230  0.33780  Biso   1.000  C
  H13      1.0000 0.86690  0.44820  0.35120  Biso   1.000  H
  O1       1.0000 0.12480  0.43490  0.25617  Biso   1.000  O
  O2       1.0000 0.92860  0.34260  0.15765  Biso   1.000  O
  O3       1.0000 0.35860  0.91010  0.29022  Biso   1.000  O
  O4       1.0000 0.22540  0.03740  0.23106  Biso   1.000  O
  O5       1.0000 0.83760  0.04550  0.14082  Biso   1.000  O
  O6       1.0000 0.60470  0.02890  0.18983  Biso   1.000  O
  O7       1.0000 0.81350  0.78750  0.86806  Biso   1.000  O
  O8       1.0000 0.56740  0.73250  0.79343  Biso   1.000  O
  O9       1.0000 0.71000  0.04570  0.36471  Biso   1.000  O
  O10      1.0000 0.93890  0.03110  0.31374  Biso   1.000  O
  O11      1.0000 0.58980  0.83500  0.58519  Biso   1.000  O
  O12      1.0000 0.77210  0.73940  0.64359  Biso   1.000  O
  O13      1.0000 0.81690  0.27390  0.29827  Biso   1.000  O
  O14      1.0000 0.65140  0.37400  0.36017  Biso   1.000  O
  Sm3      1.0000 0.47864  0.86214  0.70357  Biso   1.000  Sm
  Sm4      1.0000 0.96537  0.80915  0.76253  Biso   1.000  Sm
  C26      1.0000 0.97410  0.55830  0.80437  Biso   1.000  C
  C27      1.0000 0.97240  0.42860  0.82860  Biso   1.000  C
  C28      1.0000 0.87740  0.31520  0.78244  Biso   1.000  C
  H14      1.0000 0.81600  0.31970  0.73520  Biso   1.000  H
  C29      1.0000 0.87230  0.19450  0.80558  Biso   1.000  C
  C30      1.0000 0.96530  0.18870  0.87570  Biso   1.000  C
  H15      1.0000 0.96460  0.10820  0.89120  Biso   1.000  H
  C31      1.0000 0.05970  0.30220  0.92310  Biso   1.000  C
  H16      1.0000 0.12020  0.29790  0.97060  Biso   1.000  H
  C32      1.0000 0.06340  0.42140  0.89920  Biso   1.000  C
  H17      1.0000 0.12720  0.49730  0.93070  Biso   1.000  H
  C33      1.0000 0.75870  0.07730  0.75764  Biso   1.000  C
  C34      1.0000 0.16090  0.99830  0.64124  Biso   1.000  C
  C35      1.0000 0.12750  0.09390  0.58889  Biso   1.000  C
  C36      1.0000 0.00200  0.16220  0.59780  Biso   1.000  C
  H18      1.0000 0.93820  0.14980  0.63700  Biso   1.000  H
  C37      1.0000 0.97220  0.24820  0.54880  Biso   1.000  C
  H19      1.0000 0.88990  0.29530  0.55600  Biso   1.000  H
  C38      1.0000 0.06270  0.26560  0.48900  Biso   1.000  C
  H20      1.0000 0.04050  0.32310  0.45570  Biso   1.000  H
  C39      1.0000 0.18720  0.19670  0.47881  Biso   1.000  C
  C40      1.0000 0.21980  0.11290  0.52958  Biso   1.000  C
  H21      1.0000 0.30510  0.06860  0.52380  Biso   1.000  H
  C41      1.0000 0.28130  0.20900  0.41253  Biso   1.000  C
  C42      1.0000 0.31170  0.00010  0.86334  Biso   1.000  C
  C43      1.0000 0.40160  0.09410  0.93504  Biso   1.000  C
  C44      1.0000 0.56560  0.15150  0.93740  Biso   1.000  C
  H22      1.0000 0.61630  0.13410  0.89360  Biso   1.000  H
  C45      1.0000 0.65310  0.23360  0.00390  Biso   1.000  C
  H23      1.0000 0.76220  0.27240  0.00480  Biso   1.000  H
  C46      1.0000 0.57960  0.25880  0.06970  Biso   1.000  C
  H24      1.0000 0.64020  0.31260  0.11510  Biso   1.000  H
  C47      1.0000 0.41640  0.20450  0.06822  Biso   1.000  C
  C48      1.0000 0.32740  0.12100  0.00053  Biso   1.000  C
  H25      1.0000 0.21780  0.08320  0.99950  Biso   1.000  H
  C49      1.0000 0.33940  0.22950  0.14022  Biso   1.000  C
  C50      1.0000 0.21420  0.62770  0.66220  Biso   1.000  C
  H26      1.0000 0.13310  0.55180  0.64880  Biso   1.000  H
  O15      1.0000 0.87520  0.56510  0.74383  Biso   1.000  O
  O16      1.0000 0.07140  0.65740  0.84235  Biso   1.000  O
  O17      1.0000 0.64140  0.08990  0.70978  Biso   1.000  O
  O18      1.0000 0.77460  0.96260  0.76894  Biso   1.000  O
  O19      1.0000 0.16240  0.95450  0.85918  Biso   1.000  O
  O20      1.0000 0.39530  0.97110  0.81017  Biso   1.000  O
  O21      1.0000 0.18650  0.21250  0.13194  Biso   1.000  O
  O22      1.0000 0.43260  0.26750  0.20657  Biso   1.000  O
  O23      1.0000 0.29000  0.95430  0.63529  Biso   1.000  O
  O24      1.0000 0.06110  0.96890  0.68626  Biso   1.000  O
  O25      1.0000 0.41020  0.16500  0.41481  Biso   1.000  O
  O26      1.0000 0.22790  0.26060  0.35641  Biso   1.000  O
  O27      1.0000 0.18310  0.72610  0.70173  Biso   1.000  O
  O28      1.0000 0.34860  0.62600  0.63983  Biso   1.000  O
