data_image0
_cell_length_a       26.3262
_cell_length_b       26.3262
_cell_length_c       7.044
_cell_angle_alpha    90
_cell_angle_beta     90
_cell_angle_gamma    120

_symmetry_space_group_name_H-M    "P 1"
_symmetry_int_tables_number       1

loop_
  _symmetry_equiv_pos_as_xyz
  'x, y, z'

loop_
  _atom_site_label
  _atom_site_occupancy
  _atom_site_fract_x
  _atom_site_fract_y
  _atom_site_fract_z
  _atom_site_thermal_displace_type
  _atom_site_B_iso_or_equiv
  _atom_site_type_symbol
  Mn1      1.0000 0.38560  0.36090  0.14200  Biso   1.000  Mn
  O1       1.0000 0.32920  0.29450  0.36150  Biso   1.000  O
  O2       1.0000 0.30070  0.22780  0.58890  Biso   1.000  O
  O3       1.0000 0.35720  0.27680  0.01070  Biso   1.000  O
  C1       1.0000 0.32020  0.24570  0.41930  Biso   1.000  C
  C2       1.0000 0.32880  0.20530  0.28760  Biso   1.000  C
  C3       1.0000 0.34530  0.22350  0.08980  Biso   1.000  C
  C4       1.0000 0.35240  0.18320  0.97900  Biso   1.000  C
  H1       1.0000 0.36090  0.19190  0.83880  Biso   1.000  H
  Mn2      1.0000 0.05227  0.69423  0.47533  Biso   1.000  Mn
  O4       1.0000 0.99587  0.62783  0.69483  Biso   1.000  O
  O5       1.0000 0.96737  0.56113  0.92223  Biso   1.000  O
  O6       1.0000 0.02387  0.61013  0.34403  Biso   1.000  O
  C5       1.0000 0.98687  0.57903  0.75263  Biso   1.000  C
  C6       1.0000 0.99547  0.53863  0.62093  Biso   1.000  C
  C7       1.0000 0.01197  0.55683  0.42313  Biso   1.000  C
  C8       1.0000 0.01907  0.51653  0.31233  Biso   1.000  C
  H2       1.0000 0.02757  0.52523  0.17213  Biso   1.000  H
  Mn3      1.0000 0.71893  0.02757  0.80867  Biso   1.000  Mn
  O7       1.0000 0.66253  0.96117  0.02817  Biso   1.000  O
  O8       1.0000 0.63403  0.89447  0.25557  Biso   1.000  O
  O9       1.0000 0.69053  0.94347  0.67737  Biso   1.000  O
  C9       1.0000 0.65353  0.91237  0.08597  Biso   1.000  C
  C10      1.0000 0.66213  0.87197  0.95427  Biso   1.000  C
  C11      1.0000 0.67863  0.89017  0.75647  Biso   1.000  C
  C12      1.0000 0.68573  0.84987  0.64567  Biso   1.000  C
  H3       1.0000 0.69423  0.85857  0.50547  Biso   1.000  H
  Mn4      1.0000 0.63910  0.02470  0.14200  Biso   1.000  Mn
  O10      1.0000 0.70550  0.03470  0.36150  Biso   1.000  O
  O11      1.0000 0.77220  0.07290  0.58890  Biso   1.000  O
  O12      1.0000 0.72320  0.08040  0.01070  Biso   1.000  O
  C13      1.0000 0.75430  0.07450  0.41930  Biso   1.000  C
  C14      1.0000 0.79470  0.12350  0.28760  Biso   1.000  C
  C15      1.0000 0.77650  0.12180  0.08980  Biso   1.000  C
  C16      1.0000 0.81680  0.16920  0.97900  Biso   1.000  C
  H4       1.0000 0.80810  0.16900  0.83880  Biso   1.000  H
  Mn5      1.0000 0.30577  0.35803  0.47533  Biso   1.000  Mn
  O13      1.0000 0.37217  0.36803  0.69483  Biso   1.000  O
  O14      1.0000 0.43887  0.40623  0.92223  Biso   1.000  O
  O15      1.0000 0.38987  0.41373  0.34403  Biso   1.000  O
  C17      1.0000 0.42097  0.40783  0.75263  Biso   1.000  C
  C18      1.0000 0.46137  0.45683  0.62093  Biso   1.000  C
  C19      1.0000 0.44317  0.45513  0.42313  Biso   1.000  C
  C20      1.0000 0.48347  0.50253  0.31233  Biso   1.000  C
  H5       1.0000 0.47477  0.50233  0.17213  Biso   1.000  H
  Mn6      1.0000 0.97243  0.69137  0.80867  Biso   1.000  Mn
  O16      1.0000 0.03883  0.70137  0.02817  Biso   1.000  O
  O17      1.0000 0.10553  0.73957  0.25557  Biso   1.000  O
  O18      1.0000 0.05653  0.74707  0.67737  Biso   1.000  O
  C21      1.0000 0.08763  0.74117  0.08597  Biso   1.000  C
  C22      1.0000 0.12803  0.79017  0.95427  Biso   1.000  C
  C23      1.0000 0.10983  0.78847  0.75647  Biso   1.000  C
  C24      1.0000 0.15013  0.83587  0.64567  Biso   1.000  C
  H6       1.0000 0.14143  0.83567  0.50547  Biso   1.000  H
  Mn7      1.0000 0.97530  0.61440  0.14200  Biso   1.000  Mn
  O19      1.0000 0.96530  0.67080  0.36150  Biso   1.000  O
  O20      1.0000 0.92710  0.69930  0.58890  Biso   1.000  O
  O21      1.0000 0.91960  0.64280  0.01070  Biso   1.000  O
  C25      1.0000 0.92550  0.67980  0.41930  Biso   1.000  C
  C26      1.0000 0.87650  0.67120  0.28760  Biso   1.000  C
  C27      1.0000 0.87820  0.65470  0.08980  Biso   1.000  C
  C28      1.0000 0.83080  0.64760  0.97900  Biso   1.000  C
  H7       1.0000 0.83100  0.63910  0.83880  Biso   1.000  H
  Mn8      1.0000 0.64197  0.94773  0.47533  Biso   1.000  Mn
  O22      1.0000 0.63197  0.00413  0.69483  Biso   1.000  O
  O23      1.0000 0.59377  0.03263  0.92223  Biso   1.000  O
  O24      1.0000 0.58627  0.97613  0.34403  Biso   1.000  O
  C29      1.0000 0.59217  0.01313  0.75263  Biso   1.000  C
  C30      1.0000 0.54317  0.00453  0.62093  Biso   1.000  C
  C31      1.0000 0.54487  0.98803  0.42313  Biso   1.000  C
  C32      1.0000 0.49747  0.98093  0.31233  Biso   1.000  C
  H8       1.0000 0.49767  0.97243  0.17213  Biso   1.000  H
  Mn9      1.0000 0.30863  0.28107  0.80867  Biso   1.000  Mn
  O25      1.0000 0.29863  0.33747  0.02817  Biso   1.000  O
  O26      1.0000 0.26043  0.36597  0.25557  Biso   1.000  O
  O27      1.0000 0.25293  0.30947  0.67737  Biso   1.000  O
  C33      1.0000 0.25883  0.34647  0.08597  Biso   1.000  C
  C34      1.0000 0.20983  0.33787  0.95427  Biso   1.000  C
  C35      1.0000 0.21153  0.32137  0.75647  Biso   1.000  C
  C36      1.0000 0.16413  0.31427  0.64567  Biso   1.000  C
  H9       1.0000 0.16433  0.30577  0.50547  Biso   1.000  H
  Mn10     1.0000 0.61440  0.63910  0.85800  Biso   1.000  Mn
  O28      1.0000 0.67080  0.70550  0.63850  Biso   1.000  O
  O29      1.0000 0.69930  0.77220  0.41110  Biso   1.000  O
  O30      1.0000 0.64280  0.72320  0.98930  Biso   1.000  O
  C37      1.0000 0.67980  0.75430  0.58070  Biso   1.000  C
  C38      1.0000 0.67120  0.79470  0.71240  Biso   1.000  C
  C39      1.0000 0.65470  0.77650  0.91020  Biso   1.000  C
  C40      1.0000 0.64760  0.81680  0.02100  Biso   1.000  C
  H10      1.0000 0.63910  0.80810  0.16120  Biso   1.000  H
  Mn11     1.0000 0.28107  0.97243  0.19133  Biso   1.000  Mn
  O31      1.0000 0.33747  0.03883  0.97183  Biso   1.000  O
  O32      1.0000 0.36597  0.10553  0.74443  Biso   1.000  O
  O33      1.0000 0.30947  0.05653  0.32263  Biso   1.000  O
  C41      1.0000 0.34647  0.08763  0.91403  Biso   1.000  C
  C42      1.0000 0.33787  0.12803  0.04573  Biso   1.000  C
  C43      1.0000 0.32137  0.10983  0.24353  Biso   1.000  C
  C44      1.0000 0.31427  0.15013  0.35433  Biso   1.000  C
  H11      1.0000 0.30577  0.14143  0.49453  Biso   1.000  H
  Mn12     1.0000 0.94773  0.30577  0.52467  Biso   1.000  Mn
  O34      1.0000 0.00413  0.37217  0.30517  Biso   1.000  O
  O35      1.0000 0.03263  0.43887  0.07777  Biso   1.000  O
  O36      1.0000 0.97613  0.38987  0.65597  Biso   1.000  O
  C45      1.0000 0.01313  0.42097  0.24737  Biso   1.000  C
  C46      1.0000 0.00453  0.46137  0.37907  Biso   1.000  C
  C47      1.0000 0.98803  0.44317  0.57687  Biso   1.000  C
  C48      1.0000 0.98093  0.48347  0.68767  Biso   1.000  C
  H12      1.0000 0.97243  0.47477  0.82787  Biso   1.000  H
  Mn13     1.0000 0.36090  0.97530  0.85800  Biso   1.000  Mn
  O37      1.0000 0.29450  0.96530  0.63850  Biso   1.000  O
  O38      1.0000 0.22780  0.92710  0.41110  Biso   1.000  O
  O39      1.0000 0.27680  0.91960  0.98930  Biso   1.000  O
  C49      1.0000 0.24570  0.92550  0.58070  Biso   1.000  C
  C50      1.0000 0.20530  0.87650  0.71240  Biso   1.000  C
  C51      1.0000 0.22350  0.87820  0.91020  Biso   1.000  C
  C52      1.0000 0.18320  0.83080  0.02100  Biso   1.000  C
  H13      1.0000 0.19190  0.83100  0.16120  Biso   1.000  H
  Mn14     1.0000 0.02757  0.30863  0.19133  Biso   1.000  Mn
  O40      1.0000 0.96117  0.29863  0.97183  Biso   1.000  O
  O41      1.0000 0.89447  0.26043  0.74443  Biso   1.000  O
  O42      1.0000 0.94347  0.25293  0.32263  Biso   1.000  O
  C53      1.0000 0.91237  0.25883  0.91403  Biso   1.000  C
  C54      1.0000 0.87197  0.20983  0.04573  Biso   1.000  C
  C55      1.0000 0.89017  0.21153  0.24353  Biso   1.000  C
  C56      1.0000 0.84987  0.16413  0.35433  Biso   1.000  C
  H14      1.0000 0.85857  0.16433  0.49453  Biso   1.000  H
  Mn15     1.0000 0.69423  0.64197  0.52467  Biso   1.000  Mn
  O43      1.0000 0.62783  0.63197  0.30517  Biso   1.000  O
  O44      1.0000 0.56113  0.59377  0.07777  Biso   1.000  O
  O45      1.0000 0.61013  0.58627  0.65597  Biso   1.000  O
  C57      1.0000 0.57903  0.59217  0.24737  Biso   1.000  C
  C58      1.0000 0.53863  0.54317  0.37907  Biso   1.000  C
  C59      1.0000 0.55683  0.54487  0.57687  Biso   1.000  C
  C60      1.0000 0.51653  0.49747  0.68767  Biso   1.000  C
  H15      1.0000 0.52523  0.49767  0.82787  Biso   1.000  H
  Mn16     1.0000 0.02470  0.38560  0.85800  Biso   1.000  Mn
  O46      1.0000 0.03470  0.32920  0.63850  Biso   1.000  O
  O47      1.0000 0.07290  0.30070  0.41110  Biso   1.000  O
  O48      1.0000 0.08040  0.35720  0.98930  Biso   1.000  O
  C61      1.0000 0.07450  0.32020  0.58070  Biso   1.000  C
  C62      1.0000 0.12350  0.32880  0.71240  Biso   1.000  C
  C63      1.0000 0.12180  0.34530  0.91020  Biso   1.000  C
  C64      1.0000 0.16920  0.35240  0.02100  Biso   1.000  C
  H16      1.0000 0.16900  0.36090  0.16120  Biso   1.000  H
  Mn17     1.0000 0.69137  0.71893  0.19133  Biso   1.000  Mn
  O49      1.0000 0.70137  0.66253  0.97183  Biso   1.000  O
  O50      1.0000 0.73957  0.63403  0.74443  Biso   1.000  O
  O51      1.0000 0.74707  0.69053  0.32263  Biso   1.000  O
  C65      1.0000 0.74117  0.65353  0.91403  Biso   1.000  C
  C66      1.0000 0.79017  0.66213  0.04573  Biso   1.000  C
  C67      1.0000 0.78847  0.67863  0.24353  Biso   1.000  C
  C68      1.0000 0.83587  0.68573  0.35433  Biso   1.000  C
  H17      1.0000 0.83567  0.69423  0.49453  Biso   1.000  H
  Mn18     1.0000 0.35803  0.05227  0.52467  Biso   1.000  Mn
  O52      1.0000 0.36803  0.99587  0.30517  Biso   1.000  O
  O53      1.0000 0.40623  0.96737  0.07777  Biso   1.000  O
  O54      1.0000 0.41373  0.02387  0.65597  Biso   1.000  O
  C69      1.0000 0.40783  0.98687  0.24737  Biso   1.000  C
  C70      1.0000 0.45683  0.99547  0.37907  Biso   1.000  C
  C71      1.0000 0.45513  0.01197  0.57687  Biso   1.000  C
  C72      1.0000 0.50253  0.01907  0.68767  Biso   1.000  C
  H18      1.0000 0.50233  0.02757  0.82787  Biso   1.000  H
