data_image0
_cell_length_a       25.8582
_cell_length_b       25.8582
_cell_length_c       6.2615
_cell_angle_alpha    90
_cell_angle_beta     90
_cell_angle_gamma    120

_symmetry_space_group_name_H-M    "P 1"
_symmetry_int_tables_number       1

loop_
  _symmetry_equiv_pos_as_xyz
  'x, y, z'

loop_
  _atom_site_label
  _atom_site_occupancy
  _atom_site_fract_x
  _atom_site_fract_y
  _atom_site_fract_z
  _atom_site_thermal_displace_type
  _atom_site_B_iso_or_equiv
  _atom_site_type_symbol
  Cu1      1.0000 0.38651  0.34907  0.17610  Biso   1.000  Cu
  O1       1.0000 0.35441  0.30306  0.43350  Biso   1.000  O
  O2       1.0000 0.29217  0.22400  0.62870  Biso   1.000  O
  O3       1.0000 0.36050  0.27702  0.00780  Biso   1.000  O
  C1       1.0000 0.32463  0.24784  0.46570  Biso   1.000  C
  C2       1.0000 0.32769  0.20621  0.29900  Biso   1.000  C
  C3       1.0000 0.34813  0.22473  0.09280  Biso   1.000  C
  C4       1.0000 0.35412  0.18405  0.95690  Biso   1.000  C
  H1       1.0000 0.36720  0.19550  0.80160  Biso   1.000  H
  Cu2      1.0000 0.05318  0.68240  0.50943  Biso   1.000  Cu
  O4       1.0000 0.02108  0.63639  0.76683  Biso   1.000  O
  O5       1.0000 0.95884  0.55733  0.96203  Biso   1.000  O
  O6       1.0000 0.02717  0.61035  0.34113  Biso   1.000  O
  C5       1.0000 0.99130  0.58117  0.79903  Biso   1.000  C
  C6       1.0000 0.99436  0.53954  0.63233  Biso   1.000  C
  C7       1.0000 0.01480  0.55806  0.42613  Biso   1.000  C
  C8       1.0000 0.02079  0.51738  0.29023  Biso   1.000  C
  H2       1.0000 0.03387  0.52883  0.13493  Biso   1.000  H
  Cu3      1.0000 0.71984  0.01574  0.84277  Biso   1.000  Cu
  O7       1.0000 0.68774  0.96973  0.10017  Biso   1.000  O
  O8       1.0000 0.62550  0.89067  0.29537  Biso   1.000  O
  O9       1.0000 0.69383  0.94369  0.67447  Biso   1.000  O
  C9       1.0000 0.65796  0.91451  0.13237  Biso   1.000  C
  C10      1.0000 0.66102  0.87288  0.96567  Biso   1.000  C
  C11      1.0000 0.68146  0.89140  0.75947  Biso   1.000  C
  C12      1.0000 0.68745  0.85072  0.62357  Biso   1.000  C
  H3       1.0000 0.70053  0.86217  0.46827  Biso   1.000  H
  Cu4      1.0000 0.65093  0.03744  0.17610  Biso   1.000  Cu
  O10      1.0000 0.69694  0.05135  0.43350  Biso   1.000  O
  O11      1.0000 0.77600  0.06817  0.62870  Biso   1.000  O
  O12      1.0000 0.72298  0.08348  0.00780  Biso   1.000  O
  C13      1.0000 0.75216  0.07679  0.46570  Biso   1.000  C
  C14      1.0000 0.79379  0.12148  0.29900  Biso   1.000  C
  C15      1.0000 0.77527  0.12340  0.09280  Biso   1.000  C
  C16      1.0000 0.81595  0.17007  0.95690  Biso   1.000  C
  H4       1.0000 0.80450  0.17170  0.80160  Biso   1.000  H
  Cu5      1.0000 0.31760  0.37077  0.50943  Biso   1.000  Cu
  O13      1.0000 0.36361  0.38468  0.76683  Biso   1.000  O
  O14      1.0000 0.44267  0.40150  0.96203  Biso   1.000  O
  O15      1.0000 0.38965  0.41681  0.34113  Biso   1.000  O
  C17      1.0000 0.41883  0.41012  0.79903  Biso   1.000  C
  C18      1.0000 0.46046  0.45481  0.63233  Biso   1.000  C
  C19      1.0000 0.44194  0.45673  0.42613  Biso   1.000  C
  C20      1.0000 0.48262  0.50340  0.29023  Biso   1.000  C
  H5       1.0000 0.47117  0.50503  0.13493  Biso   1.000  H
  Cu6      1.0000 0.98426  0.70411  0.84277  Biso   1.000  Cu
  O16      1.0000 0.03027  0.71802  0.10017  Biso   1.000  O
  O17      1.0000 0.10933  0.73484  0.29537  Biso   1.000  O
  O18      1.0000 0.05631  0.75015  0.67447  Biso   1.000  O
  C21      1.0000 0.08549  0.74346  0.13237  Biso   1.000  C
  C22      1.0000 0.12712  0.78815  0.96567  Biso   1.000  C
  C23      1.0000 0.10860  0.79007  0.75947  Biso   1.000  C
  C24      1.0000 0.14928  0.83674  0.62357  Biso   1.000  C
  H6       1.0000 0.13783  0.83837  0.46827  Biso   1.000  H
  Cu7      1.0000 0.96256  0.61349  0.17610  Biso   1.000  Cu
  O19      1.0000 0.94865  0.64559  0.43350  Biso   1.000  O
  O20      1.0000 0.93183  0.70783  0.62870  Biso   1.000  O
  O21      1.0000 0.91652  0.63950  0.00780  Biso   1.000  O
  C25      1.0000 0.92321  0.67537  0.46570  Biso   1.000  C
  C26      1.0000 0.87852  0.67231  0.29900  Biso   1.000  C
  C27      1.0000 0.87660  0.65187  0.09280  Biso   1.000  C
  C28      1.0000 0.82993  0.64588  0.95690  Biso   1.000  C
  H7       1.0000 0.82830  0.63280  0.80160  Biso   1.000  H
  Cu8      1.0000 0.62923  0.94682  0.50943  Biso   1.000  Cu
  O22      1.0000 0.61532  0.97892  0.76683  Biso   1.000  O
  O23      1.0000 0.59850  0.04116  0.96203  Biso   1.000  O
  O24      1.0000 0.58319  0.97283  0.34113  Biso   1.000  O
  C29      1.0000 0.58988  0.00870  0.79903  Biso   1.000  C
  C30      1.0000 0.54519  0.00564  0.63233  Biso   1.000  C
  C31      1.0000 0.54327  0.98520  0.42613  Biso   1.000  C
  C32      1.0000 0.49660  0.97921  0.29023  Biso   1.000  C
  H8       1.0000 0.49497  0.96613  0.13493  Biso   1.000  H
  Cu9      1.0000 0.29589  0.28016  0.84277  Biso   1.000  Cu
  O25      1.0000 0.28198  0.31226  0.10017  Biso   1.000  O
  O26      1.0000 0.26516  0.37450  0.29537  Biso   1.000  O
  O27      1.0000 0.24985  0.30617  0.67447  Biso   1.000  O
  C33      1.0000 0.25654  0.34204  0.13237  Biso   1.000  C
  C34      1.0000 0.21185  0.33898  0.96567  Biso   1.000  C
  C35      1.0000 0.20993  0.31854  0.75947  Biso   1.000  C
  C36      1.0000 0.16326  0.31255  0.62357  Biso   1.000  C
  H9       1.0000 0.16163  0.29947  0.46827  Biso   1.000  H
  Cu10     1.0000 0.61349  0.65093  0.82390  Biso   1.000  Cu
  O28      1.0000 0.64559  0.69694  0.56650  Biso   1.000  O
  O29      1.0000 0.70783  0.77600  0.37130  Biso   1.000  O
  O30      1.0000 0.63950  0.72298  0.99220  Biso   1.000  O
  C37      1.0000 0.67537  0.75216  0.53430  Biso   1.000  C
  C38      1.0000 0.67231  0.79379  0.70100  Biso   1.000  C
  C39      1.0000 0.65187  0.77527  0.90720  Biso   1.000  C
  C40      1.0000 0.64588  0.81595  0.04310  Biso   1.000  C
  H10      1.0000 0.63280  0.80450  0.19840  Biso   1.000  H
  Cu11     1.0000 0.28016  0.98426  0.15723  Biso   1.000  Cu
  O31      1.0000 0.31226  0.03027  0.89983  Biso   1.000  O
  O32      1.0000 0.37450  0.10933  0.70463  Biso   1.000  O
  O33      1.0000 0.30617  0.05631  0.32553  Biso   1.000  O
  C41      1.0000 0.34204  0.08549  0.86763  Biso   1.000  C
  C42      1.0000 0.33898  0.12712  0.03433  Biso   1.000  C
  C43      1.0000 0.31854  0.10860  0.24053  Biso   1.000  C
  C44      1.0000 0.31255  0.14928  0.37643  Biso   1.000  C
  H11      1.0000 0.29947  0.13783  0.53173  Biso   1.000  H
  Cu12     1.0000 0.94682  0.31760  0.49057  Biso   1.000  Cu
  O34      1.0000 0.97892  0.36361  0.23317  Biso   1.000  O
  O35      1.0000 0.04116  0.44267  0.03797  Biso   1.000  O
  O36      1.0000 0.97283  0.38965  0.65887  Biso   1.000  O
  C45      1.0000 0.00870  0.41883  0.20097  Biso   1.000  C
  C46      1.0000 0.00564  0.46046  0.36767  Biso   1.000  C
  C47      1.0000 0.98520  0.44194  0.57387  Biso   1.000  C
  C48      1.0000 0.97921  0.48262  0.70977  Biso   1.000  C
  H12      1.0000 0.96613  0.47117  0.86507  Biso   1.000  H
  Cu13     1.0000 0.34907  0.96256  0.82390  Biso   1.000  Cu
  O37      1.0000 0.30306  0.94865  0.56650  Biso   1.000  O
  O38      1.0000 0.22400  0.93183  0.37130  Biso   1.000  O
  O39      1.0000 0.27702  0.91652  0.99220  Biso   1.000  O
  C49      1.0000 0.24784  0.92321  0.53430  Biso   1.000  C
  C50      1.0000 0.20621  0.87852  0.70100  Biso   1.000  C
  C51      1.0000 0.22473  0.87660  0.90720  Biso   1.000  C
  C52      1.0000 0.18405  0.82993  0.04310  Biso   1.000  C
  H13      1.0000 0.19550  0.82830  0.19840  Biso   1.000  H
  Cu14     1.0000 0.01574  0.29589  0.15723  Biso   1.000  Cu
  O40      1.0000 0.96973  0.28198  0.89983  Biso   1.000  O
  O41      1.0000 0.89067  0.26516  0.70463  Biso   1.000  O
  O42      1.0000 0.94369  0.24985  0.32553  Biso   1.000  O
  C53      1.0000 0.91451  0.25654  0.86763  Biso   1.000  C
  C54      1.0000 0.87288  0.21185  0.03433  Biso   1.000  C
  C55      1.0000 0.89140  0.20993  0.24053  Biso   1.000  C
  C56      1.0000 0.85072  0.16326  0.37643  Biso   1.000  C
  H14      1.0000 0.86217  0.16163  0.53173  Biso   1.000  H
  Cu15     1.0000 0.68240  0.62923  0.49057  Biso   1.000  Cu
  O43      1.0000 0.63639  0.61532  0.23317  Biso   1.000  O
  O44      1.0000 0.55733  0.59850  0.03797  Biso   1.000  O
  O45      1.0000 0.61035  0.58319  0.65887  Biso   1.000  O
  C57      1.0000 0.58117  0.58988  0.20097  Biso   1.000  C
  C58      1.0000 0.53954  0.54519  0.36767  Biso   1.000  C
  C59      1.0000 0.55806  0.54327  0.57387  Biso   1.000  C
  C60      1.0000 0.51738  0.49660  0.70977  Biso   1.000  C
  H15      1.0000 0.52883  0.49497  0.86507  Biso   1.000  H
  Cu16     1.0000 0.03744  0.38651  0.82390  Biso   1.000  Cu
  O46      1.0000 0.05135  0.35441  0.56650  Biso   1.000  O
  O47      1.0000 0.06817  0.29217  0.37130  Biso   1.000  O
  O48      1.0000 0.08348  0.36050  0.99220  Biso   1.000  O
  C61      1.0000 0.07679  0.32463  0.53430  Biso   1.000  C
  C62      1.0000 0.12148  0.32769  0.70100  Biso   1.000  C
  C63      1.0000 0.12340  0.34813  0.90720  Biso   1.000  C
  C64      1.0000 0.17007  0.35412  0.04310  Biso   1.000  C
  H16      1.0000 0.17170  0.36720  0.19840  Biso   1.000  H
  Cu17     1.0000 0.70411  0.71984  0.15723  Biso   1.000  Cu
  O49      1.0000 0.71802  0.68774  0.89983  Biso   1.000  O
  O50      1.0000 0.73484  0.62550  0.70463  Biso   1.000  O
  O51      1.0000 0.75015  0.69383  0.32553  Biso   1.000  O
  C65      1.0000 0.74346  0.65796  0.86763  Biso   1.000  C
  C66      1.0000 0.78815  0.66102  0.03433  Biso   1.000  C
  C67      1.0000 0.79007  0.68146  0.24053  Biso   1.000  C
  C68      1.0000 0.83674  0.68745  0.37643  Biso   1.000  C
  H17      1.0000 0.83837  0.70053  0.53173  Biso   1.000  H
  Cu18     1.0000 0.37077  0.05318  0.49057  Biso   1.000  Cu
  O52      1.0000 0.38468  0.02108  0.23317  Biso   1.000  O
  O53      1.0000 0.40150  0.95884  0.03797  Biso   1.000  O
  O54      1.0000 0.41681  0.02717  0.65887  Biso   1.000  O
  C69      1.0000 0.41012  0.99130  0.20097  Biso   1.000  C
  C70      1.0000 0.45481  0.99436  0.36767  Biso   1.000  C
  C71      1.0000 0.45673  0.01480  0.57387  Biso   1.000  C
  C72      1.0000 0.50340  0.02079  0.70977  Biso   1.000  C
  H18      1.0000 0.50503  0.03387  0.86507  Biso   1.000  H
