data_image0
_cell_length_a       25.8735
_cell_length_b       25.8735
_cell_length_c       6.8486
_cell_angle_alpha    90
_cell_angle_beta     90
_cell_angle_gamma    120

_symmetry_space_group_name_H-M    "P 1"
_symmetry_int_tables_number       1

loop_
  _symmetry_equiv_pos_as_xyz
  'x, y, z'

loop_
  _atom_site_label
  _atom_site_occupancy
  _atom_site_fract_x
  _atom_site_fract_y
  _atom_site_fract_z
  _atom_site_thermal_displace_type
  _atom_site_B_iso_or_equiv
  _atom_site_type_symbol
  Co1      1.0000 0.37860  0.34900  0.15100  Biso   1.000  Co
  O1       1.0000 0.32870  0.29590  0.36370  Biso   1.000  O
  O2       1.0000 0.30260  0.22910  0.59870  Biso   1.000  O
  O3       1.0000 0.35770  0.27580  0.00220  Biso   1.000  O
  C1       1.0000 0.31910  0.24760  0.42860  Biso   1.000  C
  C2       1.0000 0.32820  0.20690  0.28980  Biso   1.000  C
  C3       1.0000 0.34650  0.22390  0.09080  Biso   1.000  C
  C4       1.0000 0.35060  0.18160  0.97560  Biso   1.000  C
  H1       1.0000 0.35770  0.19130  0.83200  Biso   1.000  H
  O4       1.0000 0.56480  0.41380  0.31800  Biso   1.000  O
  C5       1.0000 0.51210  0.38140  0.29210  Biso   1.000  C
  O5       1.0000 0.46280  0.35060  0.27160  Biso   1.000  O
  Co2      1.0000 0.04527  0.68233  0.48433  Biso   1.000  Co
  O6       1.0000 0.99537  0.62923  0.69703  Biso   1.000  O
  O7       1.0000 0.96927  0.56243  0.93203  Biso   1.000  O
  O8       1.0000 0.02437  0.60913  0.33553  Biso   1.000  O
  C6       1.0000 0.98577  0.58093  0.76193  Biso   1.000  C
  C7       1.0000 0.99487  0.54023  0.62313  Biso   1.000  C
  C8       1.0000 0.01317  0.55723  0.42413  Biso   1.000  C
  C9       1.0000 0.01727  0.51493  0.30893  Biso   1.000  C
  H2       1.0000 0.02437  0.52463  0.16533  Biso   1.000  H
  O9       1.0000 0.23147  0.74713  0.65133  Biso   1.000  O
  C10      1.0000 0.17877  0.71473  0.62543  Biso   1.000  C
  O10      1.0000 0.12947  0.68393  0.60493  Biso   1.000  O
  Co3      1.0000 0.71193  0.01567  0.81767  Biso   1.000  Co
  O11      1.0000 0.66203  0.96257  0.03037  Biso   1.000  O
  O12      1.0000 0.63593  0.89577  0.26537  Biso   1.000  O
  O13      1.0000 0.69103  0.94247  0.66887  Biso   1.000  O
  C11      1.0000 0.65243  0.91427  0.09527  Biso   1.000  C
  C12      1.0000 0.66153  0.87357  0.95647  Biso   1.000  C
  C13      1.0000 0.67983  0.89057  0.75747  Biso   1.000  C
  C14      1.0000 0.68393  0.84827  0.64227  Biso   1.000  C
  H3       1.0000 0.69103  0.85797  0.49867  Biso   1.000  H
  O14      1.0000 0.89813  0.08047  0.98467  Biso   1.000  O
  C15      1.0000 0.84543  0.04807  0.95877  Biso   1.000  C
  O15      1.0000 0.79613  0.01727  0.93827  Biso   1.000  O
  Co4      1.0000 0.65100  0.02960  0.15100  Biso   1.000  Co
  O16      1.0000 0.70410  0.03280  0.36370  Biso   1.000  O
  O17      1.0000 0.77090  0.07350  0.59870  Biso   1.000  O
  O18      1.0000 0.72420  0.08190  0.00220  Biso   1.000  O
  C16      1.0000 0.75240  0.07150  0.42860  Biso   1.000  C
  C17      1.0000 0.79310  0.12130  0.28980  Biso   1.000  C
  C18      1.0000 0.77610  0.12260  0.09080  Biso   1.000  C
  C19      1.0000 0.81840  0.16900  0.97560  Biso   1.000  C
  H4       1.0000 0.80870  0.16640  0.83200  Biso   1.000  H
  O19      1.0000 0.58620  0.15100  0.31800  Biso   1.000  O
  C20      1.0000 0.61860  0.13070  0.29210  Biso   1.000  C
  O20      1.0000 0.64940  0.11220  0.27160  Biso   1.000  O
  Co5      1.0000 0.31767  0.36293  0.48433  Biso   1.000  Co
  O21      1.0000 0.37077  0.36613  0.69703  Biso   1.000  O
  O22      1.0000 0.43757  0.40683  0.93203  Biso   1.000  O
  O23      1.0000 0.39087  0.41523  0.33553  Biso   1.000  O
  C21      1.0000 0.41907  0.40483  0.76193  Biso   1.000  C
  C22      1.0000 0.45977  0.45463  0.62313  Biso   1.000  C
  C23      1.0000 0.44277  0.45593  0.42413  Biso   1.000  C
  C24      1.0000 0.48507  0.50233  0.30893  Biso   1.000  C
  H5       1.0000 0.47537  0.49973  0.16533  Biso   1.000  H
  O24      1.0000 0.25287  0.48433  0.65133  Biso   1.000  O
  C25      1.0000 0.28527  0.46403  0.62543  Biso   1.000  C
  O25      1.0000 0.31607  0.44553  0.60493  Biso   1.000  O
  Co6      1.0000 0.98433  0.69627  0.81767  Biso   1.000  Co
  O26      1.0000 0.03743  0.69947  0.03037  Biso   1.000  O
  O27      1.0000 0.10423  0.74017  0.26537  Biso   1.000  O
  O28      1.0000 0.05753  0.74857  0.66887  Biso   1.000  O
  C26      1.0000 0.08573  0.73817  0.09527  Biso   1.000  C
  C27      1.0000 0.12643  0.78797  0.95647  Biso   1.000  C
  C28      1.0000 0.10943  0.78927  0.75747  Biso   1.000  C
  C29      1.0000 0.15173  0.83567  0.64227  Biso   1.000  C
  H6       1.0000 0.14203  0.83307  0.49867  Biso   1.000  H
  O29      1.0000 0.91953  0.81767  0.98467  Biso   1.000  O
  C30      1.0000 0.95193  0.79737  0.95877  Biso   1.000  C
  O30      1.0000 0.98273  0.77887  0.93827  Biso   1.000  O
  Co7      1.0000 0.97040  0.62140  0.15100  Biso   1.000  Co
  O31      1.0000 0.96720  0.67130  0.36370  Biso   1.000  O
  O32      1.0000 0.92650  0.69740  0.59870  Biso   1.000  O
  O33      1.0000 0.91810  0.64230  0.00220  Biso   1.000  O
  C31      1.0000 0.92850  0.68090  0.42860  Biso   1.000  C
  C32      1.0000 0.87870  0.67180  0.28980  Biso   1.000  C
  C33      1.0000 0.87740  0.65350  0.09080  Biso   1.000  C
  C34      1.0000 0.83100  0.64940  0.97560  Biso   1.000  C
  H7       1.0000 0.83360  0.64230  0.83200  Biso   1.000  H
  O34      1.0000 0.84900  0.43520  0.31800  Biso   1.000  O
  C35      1.0000 0.86930  0.48790  0.29210  Biso   1.000  C
  O35      1.0000 0.88780  0.53720  0.27160  Biso   1.000  O
  Co8      1.0000 0.63707  0.95473  0.48433  Biso   1.000  Co
  O36      1.0000 0.63387  0.00463  0.69703  Biso   1.000  O
  O37      1.0000 0.59317  0.03073  0.93203  Biso   1.000  O
  O38      1.0000 0.58477  0.97563  0.33553  Biso   1.000  O
  C36      1.0000 0.59517  0.01423  0.76193  Biso   1.000  C
  C37      1.0000 0.54537  0.00513  0.62313  Biso   1.000  C
  C38      1.0000 0.54407  0.98683  0.42413  Biso   1.000  C
  C39      1.0000 0.49767  0.98273  0.30893  Biso   1.000  C
  H8       1.0000 0.50027  0.97563  0.16533  Biso   1.000  H
  O39      1.0000 0.51567  0.76853  0.65133  Biso   1.000  O
  C40      1.0000 0.53597  0.82123  0.62543  Biso   1.000  C
  O40      1.0000 0.55447  0.87053  0.60493  Biso   1.000  O
  Co9      1.0000 0.30373  0.28807  0.81767  Biso   1.000  Co
  O41      1.0000 0.30053  0.33797  0.03037  Biso   1.000  O
  O42      1.0000 0.25983  0.36407  0.26537  Biso   1.000  O
  O43      1.0000 0.25143  0.30897  0.66887  Biso   1.000  O
  C41      1.0000 0.26183  0.34757  0.09527  Biso   1.000  C
  C42      1.0000 0.21203  0.33847  0.95647  Biso   1.000  C
  C43      1.0000 0.21073  0.32017  0.75747  Biso   1.000  C
  C44      1.0000 0.16433  0.31607  0.64227  Biso   1.000  C
  H9       1.0000 0.16693  0.30897  0.49867  Biso   1.000  H
  O44      1.0000 0.18233  0.10187  0.98467  Biso   1.000  O
  C45      1.0000 0.20263  0.15457  0.95877  Biso   1.000  C
  O45      1.0000 0.22113  0.20387  0.93827  Biso   1.000  O
  Co10     1.0000 0.62140  0.65100  0.84900  Biso   1.000  Co
  O46      1.0000 0.67130  0.70410  0.63630  Biso   1.000  O
  O47      1.0000 0.69740  0.77090  0.40130  Biso   1.000  O
  O48      1.0000 0.64230  0.72420  0.99780  Biso   1.000  O
  C46      1.0000 0.68090  0.75240  0.57140  Biso   1.000  C
  C47      1.0000 0.67180  0.79310  0.71020  Biso   1.000  C
  C48      1.0000 0.65350  0.77610  0.90920  Biso   1.000  C
  C49      1.0000 0.64940  0.81840  0.02440  Biso   1.000  C
  H10      1.0000 0.64230  0.80870  0.16800  Biso   1.000  H
  O49      1.0000 0.43520  0.58620  0.68200  Biso   1.000  O
  C50      1.0000 0.48790  0.61860  0.70790  Biso   1.000  C
  O50      1.0000 0.53720  0.64940  0.72840  Biso   1.000  O
  Co11     1.0000 0.28807  0.98433  0.18233  Biso   1.000  Co
  O51      1.0000 0.33797  0.03743  0.96963  Biso   1.000  O
  O52      1.0000 0.36407  0.10423  0.73463  Biso   1.000  O
  O53      1.0000 0.30897  0.05753  0.33113  Biso   1.000  O
  C51      1.0000 0.34757  0.08573  0.90473  Biso   1.000  C
  C52      1.0000 0.33847  0.12643  0.04353  Biso   1.000  C
  C53      1.0000 0.32017  0.10943  0.24253  Biso   1.000  C
  C54      1.0000 0.31607  0.15173  0.35773  Biso   1.000  C
  H11      1.0000 0.30897  0.14203  0.50133  Biso   1.000  H
  O54      1.0000 0.10187  0.91953  0.01533  Biso   1.000  O
  C55      1.0000 0.15457  0.95193  0.04123  Biso   1.000  C
  O55      1.0000 0.20387  0.98273  0.06173  Biso   1.000  O
  Co12     1.0000 0.95473  0.31767  0.51567  Biso   1.000  Co
  O56      1.0000 0.00463  0.37077  0.30297  Biso   1.000  O
  O57      1.0000 0.03073  0.43757  0.06797  Biso   1.000  O
  O58      1.0000 0.97563  0.39087  0.66447  Biso   1.000  O
  C56      1.0000 0.01423  0.41907  0.23807  Biso   1.000  C
  C57      1.0000 0.00513  0.45977  0.37687  Biso   1.000  C
  C58      1.0000 0.98683  0.44277  0.57587  Biso   1.000  C
  C59      1.0000 0.98273  0.48507  0.69107  Biso   1.000  C
  H12      1.0000 0.97563  0.47537  0.83467  Biso   1.000  H
  O59      1.0000 0.76853  0.25287  0.34867  Biso   1.000  O
  C60      1.0000 0.82123  0.28527  0.37457  Biso   1.000  C
  O60      1.0000 0.87053  0.31607  0.39507  Biso   1.000  O
  Co13     1.0000 0.34900  0.97040  0.84900  Biso   1.000  Co
  O61      1.0000 0.29590  0.96720  0.63630  Biso   1.000  O
  O62      1.0000 0.22910  0.92650  0.40130  Biso   1.000  O
  O63      1.0000 0.27580  0.91810  0.99780  Biso   1.000  O
  C61      1.0000 0.24760  0.92850  0.57140  Biso   1.000  C
  C62      1.0000 0.20690  0.87870  0.71020  Biso   1.000  C
  C63      1.0000 0.22390  0.87740  0.90920  Biso   1.000  C
  C64      1.0000 0.18160  0.83100  0.02440  Biso   1.000  C
  H13      1.0000 0.19130  0.83360  0.16800  Biso   1.000  H
  O64      1.0000 0.41380  0.84900  0.68200  Biso   1.000  O
  C65      1.0000 0.38140  0.86930  0.70790  Biso   1.000  C
  O65      1.0000 0.35060  0.88780  0.72840  Biso   1.000  O
  Co14     1.0000 0.01567  0.30373  0.18233  Biso   1.000  Co
  O66      1.0000 0.96257  0.30053  0.96963  Biso   1.000  O
  O67      1.0000 0.89577  0.25983  0.73463  Biso   1.000  O
  O68      1.0000 0.94247  0.25143  0.33113  Biso   1.000  O
  C66      1.0000 0.91427  0.26183  0.90473  Biso   1.000  C
  C67      1.0000 0.87357  0.21203  0.04353  Biso   1.000  C
  C68      1.0000 0.89057  0.21073  0.24253  Biso   1.000  C
  C69      1.0000 0.84827  0.16433  0.35773  Biso   1.000  C
  H14      1.0000 0.85797  0.16693  0.50133  Biso   1.000  H
  O69      1.0000 0.08047  0.18233  0.01533  Biso   1.000  O
  C70      1.0000 0.04807  0.20263  0.04123  Biso   1.000  C
  O70      1.0000 0.01727  0.22113  0.06173  Biso   1.000  O
  Co15     1.0000 0.68233  0.63707  0.51567  Biso   1.000  Co
  O71      1.0000 0.62923  0.63387  0.30297  Biso   1.000  O
  O72      1.0000 0.56243  0.59317  0.06797  Biso   1.000  O
  O73      1.0000 0.60913  0.58477  0.66447  Biso   1.000  O
  C71      1.0000 0.58093  0.59517  0.23807  Biso   1.000  C
  C72      1.0000 0.54023  0.54537  0.37687  Biso   1.000  C
  C73      1.0000 0.55723  0.54407  0.57587  Biso   1.000  C
  C74      1.0000 0.51493  0.49767  0.69107  Biso   1.000  C
  H15      1.0000 0.52463  0.50027  0.83467  Biso   1.000  H
  O74      1.0000 0.74713  0.51567  0.34867  Biso   1.000  O
  C75      1.0000 0.71473  0.53597  0.37457  Biso   1.000  C
  O75      1.0000 0.68393  0.55447  0.39507  Biso   1.000  O
  Co16     1.0000 0.02960  0.37860  0.84900  Biso   1.000  Co
  O76      1.0000 0.03280  0.32870  0.63630  Biso   1.000  O
  O77      1.0000 0.07350  0.30260  0.40130  Biso   1.000  O
  O78      1.0000 0.08190  0.35770  0.99780  Biso   1.000  O
  C76      1.0000 0.07150  0.31910  0.57140  Biso   1.000  C
  C77      1.0000 0.12130  0.32820  0.71020  Biso   1.000  C
  C78      1.0000 0.12260  0.34650  0.90920  Biso   1.000  C
  C79      1.0000 0.16900  0.35060  0.02440  Biso   1.000  C
  H16      1.0000 0.16640  0.35770  0.16800  Biso   1.000  H
  O79      1.0000 0.15100  0.56480  0.68200  Biso   1.000  O
  C80      1.0000 0.13070  0.51210  0.70790  Biso   1.000  C
  O80      1.0000 0.11220  0.46280  0.72840  Biso   1.000  O
  Co17     1.0000 0.69627  0.71193  0.18233  Biso   1.000  Co
  O81      1.0000 0.69947  0.66203  0.96963  Biso   1.000  O
  O82      1.0000 0.74017  0.63593  0.73463  Biso   1.000  O
  O83      1.0000 0.74857  0.69103  0.33113  Biso   1.000  O
  C81      1.0000 0.73817  0.65243  0.90473  Biso   1.000  C
  C82      1.0000 0.78797  0.66153  0.04353  Biso   1.000  C
  C83      1.0000 0.78927  0.67983  0.24253  Biso   1.000  C
  C84      1.0000 0.83567  0.68393  0.35773  Biso   1.000  C
  H17      1.0000 0.83307  0.69103  0.50133  Biso   1.000  H
  O84      1.0000 0.81767  0.89813  0.01533  Biso   1.000  O
  C85      1.0000 0.79737  0.84543  0.04123  Biso   1.000  C
  O85      1.0000 0.77887  0.79613  0.06173  Biso   1.000  O
  Co18     1.0000 0.36293  0.04527  0.51567  Biso   1.000  Co
  O86      1.0000 0.36613  0.99537  0.30297  Biso   1.000  O
  O87      1.0000 0.40683  0.96927  0.06797  Biso   1.000  O
  O88      1.0000 0.41523  0.02437  0.66447  Biso   1.000  O
  C86      1.0000 0.40483  0.98577  0.23807  Biso   1.000  C
  C87      1.0000 0.45463  0.99487  0.37687  Biso   1.000  C
  C88      1.0000 0.45593  0.01317  0.57587  Biso   1.000  C
  C89      1.0000 0.50233  0.01727  0.69107  Biso   1.000  C
  H18      1.0000 0.49973  0.02437  0.83467  Biso   1.000  H
  O89      1.0000 0.48433  0.23147  0.34867  Biso   1.000  O
  C90      1.0000 0.46403  0.17877  0.37457  Biso   1.000  C
  O90      1.0000 0.44553  0.12947  0.39507  Biso   1.000  O
