data_image0
_cell_length_a       26.001
_cell_length_b       26.001
_cell_length_c       6.8607
_cell_angle_alpha    90
_cell_angle_beta     90
_cell_angle_gamma    120

_symmetry_space_group_name_H-M    "P 1"
_symmetry_int_tables_number       1

loop_
  _symmetry_equiv_pos_as_xyz
  'x, y, z'

loop_
  _atom_site_label
  _atom_site_occupancy
  _atom_site_fract_x
  _atom_site_fract_y
  _atom_site_fract_z
  _atom_site_thermal_displace_type
  _atom_site_B_iso_or_equiv
  _atom_site_type_symbol
  Fe1      1.0000 0.38556  0.35294  0.14270  Biso   1.000  Fe
  O1       1.0000 0.32553  0.29320  0.35210  Biso   1.000  O
  O2       1.0000 0.30331  0.22615  0.60000  Biso   1.000  O
  O3       1.0000 0.35340  0.27077  0.00780  Biso   1.000  O
  C1       1.0000 0.31607  0.24472  0.42280  Biso   1.000  C
  C2       1.0000 0.32541  0.20360  0.29090  Biso   1.000  C
  C3       1.0000 0.34290  0.22086  0.09610  Biso   1.000  C
  C4       1.0000 0.35142  0.18284  0.97520  Biso   1.000  C
  H1       1.0000 0.36060  0.19540  0.82870  Biso   1.000  H
  O4       1.0000 0.55460  0.42330  0.21870  Biso   1.000  O
  C5       1.0000 0.50791  0.38270  0.24730  Biso   1.000  C
  O5       1.0000 0.46135  0.34630  0.28150  Biso   1.000  O
  Fe2      1.0000 0.05223  0.68627  0.47603  Biso   1.000  Fe
  O6       1.0000 0.99220  0.62653  0.68543  Biso   1.000  O
  O7       1.0000 0.96998  0.55948  0.93333  Biso   1.000  O
  O8       1.0000 0.02007  0.60410  0.34113  Biso   1.000  O
  C6       1.0000 0.98274  0.57805  0.75613  Biso   1.000  C
  C7       1.0000 0.99208  0.53693  0.62423  Biso   1.000  C
  C8       1.0000 0.00957  0.55419  0.42943  Biso   1.000  C
  C9       1.0000 0.01809  0.51617  0.30853  Biso   1.000  C
  H2       1.0000 0.02727  0.52873  0.16203  Biso   1.000  H
  O9       1.0000 0.22127  0.75663  0.55203  Biso   1.000  O
  C10      1.0000 0.17458  0.71603  0.58063  Biso   1.000  C
  O10      1.0000 0.12802  0.67963  0.61483  Biso   1.000  O
  Fe3      1.0000 0.71889  0.01961  0.80937  Biso   1.000  Fe
  O11      1.0000 0.65886  0.95987  0.01877  Biso   1.000  O
  O12      1.0000 0.63664  0.89282  0.26667  Biso   1.000  O
  O13      1.0000 0.68673  0.93744  0.67447  Biso   1.000  O
  C11      1.0000 0.64940  0.91139  0.08947  Biso   1.000  C
  C12      1.0000 0.65874  0.87027  0.95757  Biso   1.000  C
  C13      1.0000 0.67623  0.88753  0.76277  Biso   1.000  C
  C14      1.0000 0.68475  0.84951  0.64187  Biso   1.000  C
  H3       1.0000 0.69393  0.86207  0.49537  Biso   1.000  H
  O14      1.0000 0.88793  0.08997  0.88537  Biso   1.000  O
  C15      1.0000 0.84124  0.04937  0.91397  Biso   1.000  C
  O15      1.0000 0.79468  0.01297  0.94817  Biso   1.000  O
  Fe4      1.0000 0.64706  0.03262  0.14270  Biso   1.000  Fe
  O16      1.0000 0.70680  0.03233  0.35210  Biso   1.000  O
  O17      1.0000 0.77385  0.07716  0.60000  Biso   1.000  O
  O18      1.0000 0.72923  0.08263  0.00780  Biso   1.000  O
  C16      1.0000 0.75528  0.07135  0.42280  Biso   1.000  C
  C17      1.0000 0.79640  0.12181  0.29090  Biso   1.000  C
  C18      1.0000 0.77914  0.12204  0.09610  Biso   1.000  C
  C19      1.0000 0.81716  0.16858  0.97520  Biso   1.000  C
  H4       1.0000 0.80460  0.16520  0.82870  Biso   1.000  H
  O19      1.0000 0.57670  0.13130  0.21870  Biso   1.000  O
  C20      1.0000 0.61730  0.12521  0.24730  Biso   1.000  C
  O20      1.0000 0.65370  0.11505  0.28150  Biso   1.000  O
  Fe5      1.0000 0.31373  0.36595  0.47603  Biso   1.000  Fe
  O21      1.0000 0.37347  0.36566  0.68543  Biso   1.000  O
  O22      1.0000 0.44052  0.41049  0.93333  Biso   1.000  O
  O23      1.0000 0.39590  0.41596  0.34113  Biso   1.000  O
  C21      1.0000 0.42195  0.40468  0.75613  Biso   1.000  C
  C22      1.0000 0.46307  0.45514  0.62423  Biso   1.000  C
  C23      1.0000 0.44581  0.45537  0.42943  Biso   1.000  C
  C24      1.0000 0.48383  0.50191  0.30853  Biso   1.000  C
  H5       1.0000 0.47127  0.49853  0.16203  Biso   1.000  H
  O24      1.0000 0.24337  0.46463  0.55203  Biso   1.000  O
  C25      1.0000 0.28397  0.45854  0.58063  Biso   1.000  C
  O25      1.0000 0.32037  0.44838  0.61483  Biso   1.000  O
  Fe6      1.0000 0.98039  0.69929  0.80937  Biso   1.000  Fe
  O26      1.0000 0.04013  0.69900  0.01877  Biso   1.000  O
  O27      1.0000 0.10718  0.74383  0.26667  Biso   1.000  O
  O28      1.0000 0.06256  0.74930  0.67447  Biso   1.000  O
  C26      1.0000 0.08861  0.73802  0.08947  Biso   1.000  C
  C27      1.0000 0.12973  0.78848  0.95757  Biso   1.000  C
  C28      1.0000 0.11247  0.78871  0.76277  Biso   1.000  C
  C29      1.0000 0.15049  0.83525  0.64187  Biso   1.000  C
  H6       1.0000 0.13793  0.83187  0.49537  Biso   1.000  H
  O29      1.0000 0.91003  0.79797  0.88537  Biso   1.000  O
  C30      1.0000 0.95063  0.79188  0.91397  Biso   1.000  C
  O30      1.0000 0.98703  0.78172  0.94817  Biso   1.000  O
  Fe7      1.0000 0.96738  0.61444  0.14270  Biso   1.000  Fe
  O31      1.0000 0.96767  0.67447  0.35210  Biso   1.000  O
  O32      1.0000 0.92284  0.69669  0.60000  Biso   1.000  O
  O33      1.0000 0.91737  0.64660  0.00780  Biso   1.000  O
  C31      1.0000 0.92865  0.68393  0.42280  Biso   1.000  C
  C32      1.0000 0.87819  0.67459  0.29090  Biso   1.000  C
  C33      1.0000 0.87796  0.65710  0.09610  Biso   1.000  C
  C34      1.0000 0.83142  0.64858  0.97520  Biso   1.000  C
  H7       1.0000 0.83480  0.63940  0.82870  Biso   1.000  H
  O34      1.0000 0.86870  0.44540  0.21870  Biso   1.000  O
  C35      1.0000 0.87479  0.49209  0.24730  Biso   1.000  C
  O35      1.0000 0.88495  0.53865  0.28150  Biso   1.000  O
  Fe8      1.0000 0.63405  0.94777  0.47603  Biso   1.000  Fe
  O36      1.0000 0.63434  0.00780  0.68543  Biso   1.000  O
  O37      1.0000 0.58951  0.03002  0.93333  Biso   1.000  O
  O38      1.0000 0.58404  0.97993  0.34113  Biso   1.000  O
  C36      1.0000 0.59532  0.01726  0.75613  Biso   1.000  C
  C37      1.0000 0.54486  0.00792  0.62423  Biso   1.000  C
  C38      1.0000 0.54463  0.99043  0.42943  Biso   1.000  C
  C39      1.0000 0.49809  0.98191  0.30853  Biso   1.000  C
  H8       1.0000 0.50147  0.97273  0.16203  Biso   1.000  H
  O39      1.0000 0.53537  0.77873  0.55203  Biso   1.000  O
  C40      1.0000 0.54146  0.82542  0.58063  Biso   1.000  C
  O40      1.0000 0.55162  0.87198  0.61483  Biso   1.000  O
  Fe9      1.0000 0.30071  0.28111  0.80937  Biso   1.000  Fe
  O41      1.0000 0.30100  0.34114  0.01877  Biso   1.000  O
  O42      1.0000 0.25617  0.36336  0.26667  Biso   1.000  O
  O43      1.0000 0.25070  0.31327  0.67447  Biso   1.000  O
  C41      1.0000 0.26198  0.35060  0.08947  Biso   1.000  C
  C42      1.0000 0.21152  0.34126  0.95757  Biso   1.000  C
  C43      1.0000 0.21129  0.32377  0.76277  Biso   1.000  C
  C44      1.0000 0.16475  0.31525  0.64187  Biso   1.000  C
  H9       1.0000 0.16813  0.30607  0.49537  Biso   1.000  H
  O44      1.0000 0.20203  0.11207  0.88537  Biso   1.000  O
  C45      1.0000 0.20812  0.15876  0.91397  Biso   1.000  C
  O45      1.0000 0.21828  0.20532  0.94817  Biso   1.000  O
  Fe10     1.0000 0.61444  0.64706  0.85730  Biso   1.000  Fe
  O46      1.0000 0.67447  0.70680  0.64790  Biso   1.000  O
  O47      1.0000 0.69669  0.77385  0.40000  Biso   1.000  O
  O48      1.0000 0.64660  0.72923  0.99220  Biso   1.000  O
  C46      1.0000 0.68393  0.75528  0.57720  Biso   1.000  C
  C47      1.0000 0.67459  0.79640  0.70910  Biso   1.000  C
  C48      1.0000 0.65710  0.77914  0.90390  Biso   1.000  C
  C49      1.0000 0.64858  0.81716  0.02480  Biso   1.000  C
  H10      1.0000 0.63940  0.80460  0.17130  Biso   1.000  H
  O49      1.0000 0.44540  0.57670  0.78130  Biso   1.000  O
  C50      1.0000 0.49209  0.61730  0.75270  Biso   1.000  C
  O50      1.0000 0.53865  0.65370  0.71850  Biso   1.000  O
  Fe11     1.0000 0.28111  0.98039  0.19063  Biso   1.000  Fe
  O51      1.0000 0.34114  0.04013  0.98123  Biso   1.000  O
  O52      1.0000 0.36336  0.10718  0.73333  Biso   1.000  O
  O53      1.0000 0.31327  0.06256  0.32553  Biso   1.000  O
  C51      1.0000 0.35060  0.08861  0.91053  Biso   1.000  C
  C52      1.0000 0.34126  0.12973  0.04243  Biso   1.000  C
  C53      1.0000 0.32377  0.11247  0.23723  Biso   1.000  C
  C54      1.0000 0.31525  0.15049  0.35813  Biso   1.000  C
  H11      1.0000 0.30607  0.13793  0.50463  Biso   1.000  H
  O54      1.0000 0.11207  0.91003  0.11463  Biso   1.000  O
  C55      1.0000 0.15876  0.95063  0.08603  Biso   1.000  C
  O55      1.0000 0.20532  0.98703  0.05183  Biso   1.000  O
  Fe12     1.0000 0.94777  0.31373  0.52397  Biso   1.000  Fe
  O56      1.0000 0.00780  0.37347  0.31457  Biso   1.000  O
  O57      1.0000 0.03002  0.44052  0.06667  Biso   1.000  O
  O58      1.0000 0.97993  0.39590  0.65887  Biso   1.000  O
  C56      1.0000 0.01726  0.42195  0.24387  Biso   1.000  C
  C57      1.0000 0.00792  0.46307  0.37577  Biso   1.000  C
  C58      1.0000 0.99043  0.44581  0.57057  Biso   1.000  C
  C59      1.0000 0.98191  0.48383  0.69147  Biso   1.000  C
  H12      1.0000 0.97273  0.47127  0.83797  Biso   1.000  H
  O59      1.0000 0.77873  0.24337  0.44797  Biso   1.000  O
  C60      1.0000 0.82542  0.28397  0.41937  Biso   1.000  C
  O60      1.0000 0.87198  0.32037  0.38517  Biso   1.000  O
  Fe13     1.0000 0.35294  0.96738  0.85730  Biso   1.000  Fe
  O61      1.0000 0.29320  0.96767  0.64790  Biso   1.000  O
  O62      1.0000 0.22615  0.92284  0.40000  Biso   1.000  O
  O63      1.0000 0.27077  0.91737  0.99220  Biso   1.000  O
  C61      1.0000 0.24472  0.92865  0.57720  Biso   1.000  C
  C62      1.0000 0.20360  0.87819  0.70910  Biso   1.000  C
  C63      1.0000 0.22086  0.87796  0.90390  Biso   1.000  C
  C64      1.0000 0.18284  0.83142  0.02480  Biso   1.000  C
  H13      1.0000 0.19540  0.83480  0.17130  Biso   1.000  H
  O64      1.0000 0.42330  0.86870  0.78130  Biso   1.000  O
  C65      1.0000 0.38270  0.87479  0.75270  Biso   1.000  C
  O65      1.0000 0.34630  0.88495  0.71850  Biso   1.000  O
  Fe14     1.0000 0.01961  0.30071  0.19063  Biso   1.000  Fe
  O66      1.0000 0.95987  0.30100  0.98123  Biso   1.000  O
  O67      1.0000 0.89282  0.25617  0.73333  Biso   1.000  O
  O68      1.0000 0.93744  0.25070  0.32553  Biso   1.000  O
  C66      1.0000 0.91139  0.26198  0.91053  Biso   1.000  C
  C67      1.0000 0.87027  0.21152  0.04243  Biso   1.000  C
  C68      1.0000 0.88753  0.21129  0.23723  Biso   1.000  C
  C69      1.0000 0.84951  0.16475  0.35813  Biso   1.000  C
  H14      1.0000 0.86207  0.16813  0.50463  Biso   1.000  H
  O69      1.0000 0.08997  0.20203  0.11463  Biso   1.000  O
  C70      1.0000 0.04937  0.20812  0.08603  Biso   1.000  C
  O70      1.0000 0.01297  0.21828  0.05183  Biso   1.000  O
  Fe15     1.0000 0.68627  0.63405  0.52397  Biso   1.000  Fe
  O71      1.0000 0.62653  0.63434  0.31457  Biso   1.000  O
  O72      1.0000 0.55948  0.58951  0.06667  Biso   1.000  O
  O73      1.0000 0.60410  0.58404  0.65887  Biso   1.000  O
  C71      1.0000 0.57805  0.59532  0.24387  Biso   1.000  C
  C72      1.0000 0.53693  0.54486  0.37577  Biso   1.000  C
  C73      1.0000 0.55419  0.54463  0.57057  Biso   1.000  C
  C74      1.0000 0.51617  0.49809  0.69147  Biso   1.000  C
  H15      1.0000 0.52873  0.50147  0.83797  Biso   1.000  H
  O74      1.0000 0.75663  0.53537  0.44797  Biso   1.000  O
  C75      1.0000 0.71603  0.54146  0.41937  Biso   1.000  C
  O75      1.0000 0.67963  0.55162  0.38517  Biso   1.000  O
  Fe16     1.0000 0.03262  0.38556  0.85730  Biso   1.000  Fe
  O76      1.0000 0.03233  0.32553  0.64790  Biso   1.000  O
  O77      1.0000 0.07716  0.30331  0.40000  Biso   1.000  O
  O78      1.0000 0.08263  0.35340  0.99220  Biso   1.000  O
  C76      1.0000 0.07135  0.31607  0.57720  Biso   1.000  C
  C77      1.0000 0.12181  0.32541  0.70910  Biso   1.000  C
  C78      1.0000 0.12204  0.34290  0.90390  Biso   1.000  C
  C79      1.0000 0.16858  0.35142  0.02480  Biso   1.000  C
  H16      1.0000 0.16520  0.36060  0.17130  Biso   1.000  H
  O79      1.0000 0.13130  0.55460  0.78130  Biso   1.000  O
  C80      1.0000 0.12521  0.50791  0.75270  Biso   1.000  C
  O80      1.0000 0.11505  0.46135  0.71850  Biso   1.000  O
  Fe17     1.0000 0.69929  0.71889  0.19063  Biso   1.000  Fe
  O81      1.0000 0.69900  0.65886  0.98123  Biso   1.000  O
  O82      1.0000 0.74383  0.63664  0.73333  Biso   1.000  O
  O83      1.0000 0.74930  0.68673  0.32553  Biso   1.000  O
  C81      1.0000 0.73802  0.64940  0.91053  Biso   1.000  C
  C82      1.0000 0.78848  0.65874  0.04243  Biso   1.000  C
  C83      1.0000 0.78871  0.67623  0.23723  Biso   1.000  C
  C84      1.0000 0.83525  0.68475  0.35813  Biso   1.000  C
  H17      1.0000 0.83187  0.69393  0.50463  Biso   1.000  H
  O84      1.0000 0.79797  0.88793  0.11463  Biso   1.000  O
  C85      1.0000 0.79188  0.84124  0.08603  Biso   1.000  C
  O85      1.0000 0.78172  0.79468  0.05183  Biso   1.000  O
  Fe18     1.0000 0.36595  0.05223  0.52397  Biso   1.000  Fe
  O86      1.0000 0.36566  0.99220  0.31457  Biso   1.000  O
  O87      1.0000 0.41049  0.96998  0.06667  Biso   1.000  O
  O88      1.0000 0.41596  0.02007  0.65887  Biso   1.000  O
  C86      1.0000 0.40468  0.98274  0.24387  Biso   1.000  C
  C87      1.0000 0.45514  0.99208  0.37577  Biso   1.000  C
  C88      1.0000 0.45537  0.00957  0.57057  Biso   1.000  C
  C89      1.0000 0.50191  0.01809  0.69147  Biso   1.000  C
  H18      1.0000 0.49853  0.02727  0.83797  Biso   1.000  H
  O89      1.0000 0.46463  0.22127  0.44797  Biso   1.000  O
  C90      1.0000 0.45854  0.17458  0.41937  Biso   1.000  C
  O90      1.0000 0.44838  0.12802  0.38517  Biso   1.000  O
