data_image0
_cell_length_a       26.0818
_cell_length_b       26.0818
_cell_length_c       6.8783
_cell_angle_alpha    90
_cell_angle_beta     90
_cell_angle_gamma    120

_symmetry_space_group_name_H-M    "P 1"
_symmetry_int_tables_number       1

loop_
  _symmetry_equiv_pos_as_xyz
  'x, y, z'

loop_
  _atom_site_label
  _atom_site_occupancy
  _atom_site_fract_x
  _atom_site_fract_y
  _atom_site_fract_z
  _atom_site_thermal_displace_type
  _atom_site_B_iso_or_equiv
  _atom_site_type_symbol
  Fe1      1.0000 0.38620  0.35570  0.13420  Biso   1.000  Fe
  O1       1.0000 0.32560  0.29660  0.36970  Biso   1.000  O
  O2       1.0000 0.35730  0.26680  0.00980  Biso   1.000  O
  O3       1.0000 0.43730  0.40730  0.92370  Biso   1.000  O
  C1       1.0000 0.32060  0.24940  0.42030  Biso   1.000  C
  C2       1.0000 0.34100  0.21640  0.11720  Biso   1.000  C
  C3       1.0000 0.31570  0.19940  0.30030  Biso   1.000  C
  C4       1.0000 0.34510  0.18180  0.97550  Biso   1.000  C
  H1       1.0000 0.36130  0.19280  0.83820  Biso   1.000  H
  Fe2      1.0000 0.05287  0.68903  0.46753  Biso   1.000  Fe
  O4       1.0000 0.99227  0.62993  0.70303  Biso   1.000  O
  O5       1.0000 0.02397  0.60013  0.34313  Biso   1.000  O
  O6       1.0000 0.10397  0.74063  0.25703  Biso   1.000  O
  C5       1.0000 0.98727  0.58273  0.75363  Biso   1.000  C
  C6       1.0000 0.00767  0.54973  0.45053  Biso   1.000  C
  C7       1.0000 0.98237  0.53273  0.63363  Biso   1.000  C
  C8       1.0000 0.01177  0.51513  0.30883  Biso   1.000  C
  H2       1.0000 0.02797  0.52613  0.17153  Biso   1.000  H
  Fe3      1.0000 0.71953  0.02237  0.80087  Biso   1.000  Fe
  O7       1.0000 0.65893  0.96327  0.03637  Biso   1.000  O
  O8       1.0000 0.69063  0.93347  0.67647  Biso   1.000  O
  O9       1.0000 0.77063  0.07397  0.59037  Biso   1.000  O
  C9       1.0000 0.65393  0.91607  0.08697  Biso   1.000  C
  C10      1.0000 0.67433  0.88307  0.78387  Biso   1.000  C
  C11      1.0000 0.64903  0.86607  0.96697  Biso   1.000  C
  C12      1.0000 0.67843  0.84847  0.64217  Biso   1.000  C
  H3       1.0000 0.69463  0.85947  0.50487  Biso   1.000  H
  Fe4      1.0000 0.64430  0.03050  0.13420  Biso   1.000  Fe
  O10      1.0000 0.70340  0.02900  0.36970  Biso   1.000  O
  O11      1.0000 0.73320  0.09050  0.00980  Biso   1.000  O
  O12      1.0000 0.59270  0.03000  0.92370  Biso   1.000  O
  C13      1.0000 0.75060  0.07120  0.42030  Biso   1.000  C
  C14      1.0000 0.78360  0.12460  0.11720  Biso   1.000  C
  C15      1.0000 0.80060  0.11630  0.30030  Biso   1.000  C
  C16      1.0000 0.81820  0.16330  0.97550  Biso   1.000  C
  H4       1.0000 0.80720  0.16850  0.83820  Biso   1.000  H
  Fe5      1.0000 0.31097  0.36383  0.46753  Biso   1.000  Fe
  O13      1.0000 0.37007  0.36233  0.70303  Biso   1.000  O
  O14      1.0000 0.39987  0.42383  0.34313  Biso   1.000  O
  O15      1.0000 0.25937  0.36333  0.25703  Biso   1.000  O
  C17      1.0000 0.41727  0.40453  0.75363  Biso   1.000  C
  C18      1.0000 0.45027  0.45793  0.45053  Biso   1.000  C
  C19      1.0000 0.46727  0.44963  0.63363  Biso   1.000  C
  C20      1.0000 0.48487  0.49663  0.30883  Biso   1.000  C
  H5       1.0000 0.47387  0.50183  0.17153  Biso   1.000  H
  Fe6      1.0000 0.97763  0.69717  0.80087  Biso   1.000  Fe
  O16      1.0000 0.03673  0.69567  0.03637  Biso   1.000  O
  O17      1.0000 0.06653  0.75717  0.67647  Biso   1.000  O
  O18      1.0000 0.92603  0.69667  0.59037  Biso   1.000  O
  C21      1.0000 0.08393  0.73787  0.08697  Biso   1.000  C
  C22      1.0000 0.11693  0.79127  0.78387  Biso   1.000  C
  C23      1.0000 0.13393  0.78297  0.96697  Biso   1.000  C
  C24      1.0000 0.15153  0.82997  0.64217  Biso   1.000  C
  H6       1.0000 0.14053  0.83517  0.50487  Biso   1.000  H
  Fe7      1.0000 0.96950  0.61380  0.13420  Biso   1.000  Fe
  O19      1.0000 0.97100  0.67440  0.36970  Biso   1.000  O
  O20      1.0000 0.90950  0.64270  0.00980  Biso   1.000  O
  O21      1.0000 0.97000  0.56270  0.92370  Biso   1.000  O
  C25      1.0000 0.92880  0.67940  0.42030  Biso   1.000  C
  C26      1.0000 0.87540  0.65900  0.11720  Biso   1.000  C
  C27      1.0000 0.88370  0.68430  0.30030  Biso   1.000  C
  C28      1.0000 0.83670  0.65490  0.97550  Biso   1.000  C
  H7       1.0000 0.83150  0.63870  0.83820  Biso   1.000  H
  Fe8      1.0000 0.63617  0.94713  0.46753  Biso   1.000  Fe
  O22      1.0000 0.63767  0.00773  0.70303  Biso   1.000  O
  O23      1.0000 0.57617  0.97603  0.34313  Biso   1.000  O
  O24      1.0000 0.63667  0.89603  0.25703  Biso   1.000  O
  C29      1.0000 0.59547  0.01273  0.75363  Biso   1.000  C
  C30      1.0000 0.54207  0.99233  0.45053  Biso   1.000  C
  C31      1.0000 0.55037  0.01763  0.63363  Biso   1.000  C
  C32      1.0000 0.50337  0.98823  0.30883  Biso   1.000  C
  H8       1.0000 0.49817  0.97203  0.17153  Biso   1.000  H
  Fe9      1.0000 0.30283  0.28047  0.80087  Biso   1.000  Fe
  O25      1.0000 0.30433  0.34107  0.03637  Biso   1.000  O
  O26      1.0000 0.24283  0.30937  0.67647  Biso   1.000  O
  O27      1.0000 0.30333  0.22937  0.59037  Biso   1.000  O
  C33      1.0000 0.26213  0.34607  0.08697  Biso   1.000  C
  C34      1.0000 0.20873  0.32567  0.78387  Biso   1.000  C
  C35      1.0000 0.21703  0.35097  0.96697  Biso   1.000  C
  C36      1.0000 0.17003  0.32157  0.64217  Biso   1.000  C
  H9       1.0000 0.16483  0.30537  0.50487  Biso   1.000  H
  Fe10     1.0000 0.61380  0.64430  0.86580  Biso   1.000  Fe
  O28      1.0000 0.67440  0.70340  0.63030  Biso   1.000  O
  O29      1.0000 0.64270  0.73320  0.99020  Biso   1.000  O
  O30      1.0000 0.56270  0.59270  0.07630  Biso   1.000  O
  C37      1.0000 0.67940  0.75060  0.57970  Biso   1.000  C
  C38      1.0000 0.65900  0.78360  0.88280  Biso   1.000  C
  C39      1.0000 0.68430  0.80060  0.69970  Biso   1.000  C
  C40      1.0000 0.65490  0.81820  0.02450  Biso   1.000  C
  H10      1.0000 0.63870  0.80720  0.16180  Biso   1.000  H
  Fe11     1.0000 0.28047  0.97763  0.19913  Biso   1.000  Fe
  O31      1.0000 0.34107  0.03673  0.96363  Biso   1.000  O
  O32      1.0000 0.30937  0.06653  0.32353  Biso   1.000  O
  O33      1.0000 0.22937  0.92603  0.40963  Biso   1.000  O
  C41      1.0000 0.34607  0.08393  0.91303  Biso   1.000  C
  C42      1.0000 0.32567  0.11693  0.21613  Biso   1.000  C
  C43      1.0000 0.35097  0.13393  0.03303  Biso   1.000  C
  C44      1.0000 0.32157  0.15153  0.35783  Biso   1.000  C
  H11      1.0000 0.30537  0.14053  0.49513  Biso   1.000  H
  Fe12     1.0000 0.94713  0.31097  0.53247  Biso   1.000  Fe
  O34      1.0000 0.00773  0.37007  0.29697  Biso   1.000  O
  O35      1.0000 0.97603  0.39987  0.65687  Biso   1.000  O
  O36      1.0000 0.89603  0.25937  0.74297  Biso   1.000  O
  C45      1.0000 0.01273  0.41727  0.24637  Biso   1.000  C
  C46      1.0000 0.99233  0.45027  0.54947  Biso   1.000  C
  C47      1.0000 0.01763  0.46727  0.36637  Biso   1.000  C
  C48      1.0000 0.98823  0.48487  0.69117  Biso   1.000  C
  H12      1.0000 0.97203  0.47387  0.82847  Biso   1.000  H
  Fe13     1.0000 0.35570  0.96950  0.86580  Biso   1.000  Fe
  O37      1.0000 0.29660  0.97100  0.63030  Biso   1.000  O
  O38      1.0000 0.26680  0.90950  0.99020  Biso   1.000  O
  O39      1.0000 0.40730  0.97000  0.07630  Biso   1.000  O
  C49      1.0000 0.24940  0.92880  0.57970  Biso   1.000  C
  C50      1.0000 0.21640  0.87540  0.88280  Biso   1.000  C
  C51      1.0000 0.19940  0.88370  0.69970  Biso   1.000  C
  C52      1.0000 0.18180  0.83670  0.02450  Biso   1.000  C
  H13      1.0000 0.19280  0.83150  0.16180  Biso   1.000  H
  Fe14     1.0000 0.02237  0.30283  0.19913  Biso   1.000  Fe
  O40      1.0000 0.96327  0.30433  0.96363  Biso   1.000  O
  O41      1.0000 0.93347  0.24283  0.32353  Biso   1.000  O
  O42      1.0000 0.07397  0.30333  0.40963  Biso   1.000  O
  C53      1.0000 0.91607  0.26213  0.91303  Biso   1.000  C
  C54      1.0000 0.88307  0.20873  0.21613  Biso   1.000  C
  C55      1.0000 0.86607  0.21703  0.03303  Biso   1.000  C
  C56      1.0000 0.84847  0.17003  0.35783  Biso   1.000  C
  H14      1.0000 0.85947  0.16483  0.49513  Biso   1.000  H
  Fe15     1.0000 0.68903  0.63617  0.53247  Biso   1.000  Fe
  O43      1.0000 0.62993  0.63767  0.29697  Biso   1.000  O
  O44      1.0000 0.60013  0.57617  0.65687  Biso   1.000  O
  O45      1.0000 0.74063  0.63667  0.74297  Biso   1.000  O
  C57      1.0000 0.58273  0.59547  0.24637  Biso   1.000  C
  C58      1.0000 0.54973  0.54207  0.54947  Biso   1.000  C
  C59      1.0000 0.53273  0.55037  0.36637  Biso   1.000  C
  C60      1.0000 0.51513  0.50337  0.69117  Biso   1.000  C
  H15      1.0000 0.52613  0.49817  0.82847  Biso   1.000  H
  Fe16     1.0000 0.03050  0.38620  0.86580  Biso   1.000  Fe
  O46      1.0000 0.02900  0.32560  0.63030  Biso   1.000  O
  O47      1.0000 0.09050  0.35730  0.99020  Biso   1.000  O
  O48      1.0000 0.03000  0.43730  0.07630  Biso   1.000  O
  C61      1.0000 0.07120  0.32060  0.57970  Biso   1.000  C
  C62      1.0000 0.12460  0.34100  0.88280  Biso   1.000  C
  C63      1.0000 0.11630  0.31570  0.69970  Biso   1.000  C
  C64      1.0000 0.16330  0.34510  0.02450  Biso   1.000  C
  H16      1.0000 0.16850  0.36130  0.16180  Biso   1.000  H
  Fe17     1.0000 0.69717  0.71953  0.19913  Biso   1.000  Fe
  O49      1.0000 0.69567  0.65893  0.96363  Biso   1.000  O
  O50      1.0000 0.75717  0.69063  0.32353  Biso   1.000  O
  O51      1.0000 0.69667  0.77063  0.40963  Biso   1.000  O
  C65      1.0000 0.73787  0.65393  0.91303  Biso   1.000  C
  C66      1.0000 0.79127  0.67433  0.21613  Biso   1.000  C
  C67      1.0000 0.78297  0.64903  0.03303  Biso   1.000  C
  C68      1.0000 0.82997  0.67843  0.35783  Biso   1.000  C
  H17      1.0000 0.83517  0.69463  0.49513  Biso   1.000  H
  Fe18     1.0000 0.36383  0.05287  0.53247  Biso   1.000  Fe
  O52      1.0000 0.36233  0.99227  0.29697  Biso   1.000  O
  O53      1.0000 0.42383  0.02397  0.65687  Biso   1.000  O
  O54      1.0000 0.36333  0.10397  0.74297  Biso   1.000  O
  C69      1.0000 0.40453  0.98727  0.24637  Biso   1.000  C
  C70      1.0000 0.45793  0.00767  0.54947  Biso   1.000  C
  C71      1.0000 0.44963  0.98237  0.36637  Biso   1.000  C
  C72      1.0000 0.49663  0.01177  0.69117  Biso   1.000  C
  H18      1.0000 0.50183  0.02797  0.82847  Biso   1.000  H
