data_image0
_cell_length_a       6.73402
_cell_length_b       11.062
_cell_length_c       11.1809
_cell_angle_alpha    119.649
_cell_angle_beta     107.526
_cell_angle_gamma    90

_symmetry_space_group_name_H-M    P 1
_symmetry_int_tables_number       1

loop_
  _symmetry_equiv_pos_as_xyz
  'x, y, z'

loop_
  _atom_site_label
  _atom_site_occupancy
  _atom_site_fract_x
  _atom_site_fract_y
  _atom_site_fract_z
  _atom_site_thermal_displace_type
  _atom_site_B_iso_or_equiv
  _atom_site_type_symbol
  Ga1      1.0000 0.00000  0.50000  0.00000  Biso   1.000  Ga
  Ga2      1.0000 0.50000  0.50000  0.00000  Biso   1.000  Ga
  H1       1.0000 0.84850  0.51220  0.61480  Biso   1.000  H
  H2       1.0000 0.65150  0.89740  0.38520  Biso   1.000  H
  H3       1.0000 0.73370  0.48780  0.38520  Biso   1.000  H
  H4       1.0000 0.76630  0.10260  0.61480  Biso   1.000  H
  H5       1.0000 0.15150  0.48780  0.38520  Biso   1.000  H
  H6       1.0000 0.34850  0.10260  0.61480  Biso   1.000  H
  H7       1.0000 0.26630  0.51220  0.61480  Biso   1.000  H
  H8       1.0000 0.23370  0.89740  0.38520  Biso   1.000  H
  H9       1.0000 0.75000  0.34700  0.00000  Biso   1.000  H
  H10      1.0000 0.25000  0.65300  0.00000  Biso   1.000  H
  C1       1.0000 0.70560  0.50710  0.56940  Biso   1.000  C
  C2       1.0000 0.79440  0.93770  0.43060  Biso   1.000  C
  C3       1.0000 0.63620  0.49290  0.43060  Biso   1.000  C
  C4       1.0000 0.86380  0.06230  0.56940  Biso   1.000  C
  C5       1.0000 0.29440  0.49290  0.43060  Biso   1.000  C
  C6       1.0000 0.20560  0.06230  0.56940  Biso   1.000  C
  C7       1.0000 0.36380  0.50710  0.56940  Biso   1.000  C
  C8       1.0000 0.13620  0.93770  0.43060  Biso   1.000  C
  C9       1.0000 0.56870  0.51350  0.63740  Biso   1.000  C
  C10      1.0000 0.64420  0.52810  0.78840  Biso   1.000  C
  C11      1.0000 0.93130  0.87610  0.36260  Biso   1.000  C
  C12      1.0000 0.85580  0.73970  0.21160  Biso   1.000  C
  C13      1.0000 0.43130  0.48650  0.36260  Biso   1.000  C
  C14      1.0000 0.35580  0.47190  0.21160  Biso   1.000  C
  C15      1.0000 0.06870  0.12390  0.63740  Biso   1.000  C
  C16      1.0000 0.14420  0.26030  0.78840  Biso   1.000  C
  O1       1.0000 0.83180  0.53250  0.84200  Biso   1.000  O
  O2       1.0000 0.66820  0.69050  0.15800  Biso   1.000  O
  O3       1.0000 0.48980  0.46750  0.15800  Biso   1.000  O
  O4       1.0000 0.01020  0.30950  0.84200  Biso   1.000  O
  O5       1.0000 0.16820  0.46750  0.15800  Biso   1.000  O
  O6       1.0000 0.33180  0.30950  0.84200  Biso   1.000  O
  O7       1.0000 0.51020  0.53250  0.84200  Biso   1.000  O
  O8       1.0000 0.98980  0.69050  0.15800  Biso   1.000  O
  O9       1.0000 0.75000  0.42080  0.00000  Biso   1.000  O
  O10      1.0000 0.25000  0.57920  0.00000  Biso   1.000  O
