data_image0
_cell_length_a       13.3997
_cell_length_b       13.6699
_cell_length_c       46.339
_cell_angle_alpha    97.6633
_cell_angle_beta     90
_cell_angle_gamma    119.348

_symmetry_space_group_name_H-M    P 1
_symmetry_int_tables_number       1

loop_
  _symmetry_equiv_pos_as_xyz
  'x, y, z'

loop_
  _atom_site_label
  _atom_site_occupancy
  _atom_site_fract_x
  _atom_site_fract_y
  _atom_site_fract_z
  _atom_site_thermal_displace_type
  _atom_site_B_iso_or_equiv
  _atom_site_type_symbol
  Co1      1.0000 0.35220  0.64284  0.88000  Biso   1.000  Co
  Co2      1.0000 0.31888  0.64344  0.78988  Biso   1.000  Co
  Co3      1.0000 0.01310  0.96410  0.95622  Biso   1.000  Co
  Co4      1.0000 0.70936  0.35716  0.62000  Biso   1.000  Co
  Co5      1.0000 0.67544  0.35656  0.71012  Biso   1.000  Co
  Co6      1.0000 0.04900  0.03590  0.54378  Biso   1.000  Co
  Co7      1.0000 0.64780  0.35716  0.12000  Biso   1.000  Co
  Co8      1.0000 0.68112  0.35656  0.21012  Biso   1.000  Co
  Co9      1.0000 0.98690  0.03590  0.04377  Biso   1.000  Co
  Co10     1.0000 0.29064  0.64284  0.38000  Biso   1.000  Co
  Co11     1.0000 0.32456  0.64344  0.28988  Biso   1.000  Co
  Co12     1.0000 0.95100  0.96410  0.45622  Biso   1.000  Co
  H1       1.0000 0.64370  0.77040  0.94730  Biso   1.000  H
  H2       1.0000 0.66720  0.91760  0.02990  Biso   1.000  H
  H3       1.0000 0.36280  0.74380  0.98440  Biso   1.000  H
  H4       1.0000 0.56890  0.91280  0.07160  Biso   1.000  H
  H5       1.0000 0.58970  0.00880  0.05330  Biso   1.000  H
  H6       1.0000 0.49420  0.97240  0.07550  Biso   1.000  H
  H7       1.0000 0.32890  0.76100  0.06490  Biso   1.000  H
  H8       1.0000 0.31820  0.69280  0.03390  Biso   1.000  H
  H9       1.0000 0.41790  0.72060  0.05690  Biso   1.000  H
  H10      1.0000 0.41270  0.96780  0.01920  Biso   1.000  H
  H11      1.0000 0.30630  0.84500  0.01600  Biso   1.000  H
  H12      1.0000 0.34010  0.92580  0.04600  Biso   1.000  H
  H13      1.0000 0.57640  0.54460  0.86560  Biso   1.000  H
  H14      1.0000 0.73940  0.41420  0.81590  Biso   1.000  H
  H15      1.0000 0.50290  0.46620  0.77890  Biso   1.000  H
  H16      1.0000 0.62300  0.31620  0.87710  Biso   1.000  H
  H17      1.0000 0.72460  0.32680  0.85850  Biso   1.000  H
  H18      1.0000 0.74450  0.35940  0.89260  Biso   1.000  H
  H19      1.0000 0.90490  0.54720  0.88590  Biso   1.000  H
  H20      1.0000 0.87960  0.50740  0.85210  Biso   1.000  H
  H21      1.0000 0.88630  0.62180  0.86590  Biso   1.000  H
  H22      1.0000 0.73060  0.60760  0.89970  Biso   1.000  H
  H23      1.0000 0.62650  0.48680  0.90150  Biso   1.000  H
  H24      1.0000 0.74720  0.52340  0.91630  Biso   1.000  H
  H25      1.0000 0.18290  0.84040  0.88960  Biso   1.000  H
  H26      1.0000 0.95180  0.89640  0.85080  Biso   1.000  H
  H27      1.0000 0.09480  0.73700  0.80380  Biso   1.000  H
  H28      1.0000 0.92550  0.91740  0.77290  Biso   1.000  H
  H29      1.0000 0.97470  0.96960  0.80530  Biso   1.000  H
  H30      1.0000 0.05310  0.95440  0.78210  Biso   1.000  H
  H31      1.0000 0.76500  0.74020  0.78500  Biso   1.000  H
  H32      1.0000 0.78710  0.68020  0.80880  Biso   1.000  H
  H33      1.0000 0.80290  0.80220  0.81730  Biso   1.000  H
  H34      1.0000 0.02100  0.76640  0.76240  Biso   1.000  H
  H35      1.0000 0.93220  0.65880  0.77530  Biso   1.000  H
  H36      1.0000 0.88920  0.71320  0.75420  Biso   1.000  H
  H37      1.0000 0.61330  0.75080  0.88610  Biso   1.000  H
  H38      1.0000 0.78120  0.91580  0.88460  Biso   1.000  H
  H39      1.0000 0.59640  0.05720  0.86400  Biso   1.000  H
  H40      1.0000 0.43350  0.88960  0.86680  Biso   1.000  H
  H41      1.0000 0.80000  0.17340  0.86800  Biso   1.000  H
  H42      1.0000 0.93530  0.08880  0.88330  Biso   1.000  H
  H43      1.0000 0.14320  0.21800  0.88140  Biso   1.000  H
  H44      1.0000 0.29490  0.39700  0.88120  Biso   1.000  H
  H45      1.0000 0.08980  0.52100  0.87920  Biso   1.000  H
  H46      1.0000 0.93350  0.34660  0.87860  Biso   1.000  H
  H47      1.0000 0.05760  0.53200  0.78110  Biso   1.000  H
  H48      1.0000 0.88980  0.36580  0.78160  Biso   1.000  H
  H49      1.0000 0.07550  0.23180  0.80720  Biso   1.000  H
  H50      1.0000 0.23770  0.39980  0.80490  Biso   1.000  H
  H51      1.0000 0.87320  0.11060  0.80030  Biso   1.000  H
  H52      1.0000 0.73740  0.19440  0.78460  Biso   1.000  H
  H53      1.0000 0.52990  0.06500  0.78710  Biso   1.000  H
  H54      1.0000 0.37890  0.88660  0.78840  Biso   1.000  H
  H55      1.0000 0.58330  0.76300  0.79030  Biso   1.000  H
  H56      1.0000 0.73960  0.93820  0.79020  Biso   1.000  H
  H57      1.0000 0.84670  0.71700  0.96810  Biso   1.000  H
  H58      1.0000 0.84170  0.54980  0.97120  Biso   1.000  H
  H59      1.0000 0.16800  0.69040  0.95010  Biso   1.000  H
  H60      1.0000 0.16560  0.85500  0.94940  Biso   1.000  H
  H61      1.0000 0.92620  0.43000  0.96580  Biso   1.000  H
  H62      1.0000 0.14920  0.51740  0.95290  Biso   1.000  H
  H63      1.0000 0.88880  0.25840  0.95420  Biso   1.000  H
  H64      1.0000 0.87060  0.08360  0.95420  Biso   1.000  H
  H65      1.0000 0.20150  0.21220  0.95900  Biso   1.000  H
  H66      1.0000 0.22840  0.39020  0.95800  Biso   1.000  H
  H67      1.0000 0.87330  0.22960  0.55270  Biso   1.000  H
  H68      1.0000 0.74960  0.08240  0.47010  Biso   1.000  H
  H69      1.0000 0.61900  0.25620  0.51560  Biso   1.000  H
  H70      1.0000 0.65610  0.08720  0.42840  Biso   1.000  H
  H71      1.0000 0.58090  0.99120  0.44670  Biso   1.000  H
  H72      1.0000 0.52180  0.02760  0.42450  Biso   1.000  H
  H73      1.0000 0.56790  0.23900  0.43510  Biso   1.000  H
  H74      1.0000 0.62540  0.30720  0.46610  Biso   1.000  H
  H75      1.0000 0.69730  0.27940  0.44310  Biso   1.000  H
  H76      1.0000 0.44490  0.03220  0.48080  Biso   1.000  H
  H77      1.0000 0.46130  0.15500  0.48400  Biso   1.000  H
  H78      1.0000 0.41430  0.07420  0.45400  Biso   1.000  H
  H79      1.0000 0.03180  0.45540  0.63440  Biso   1.000  H
  H80      1.0000 0.32520  0.58580  0.68410  Biso   1.000  H
  H81      1.0000 0.03670  0.53380  0.72110  Biso   1.000  H
  H82      1.0000 0.30680  0.68380  0.62290  Biso   1.000  H
  H83      1.0000 0.39780  0.67320  0.64150  Biso   1.000  H
  H84      1.0000 0.38510  0.64060  0.60740  Biso   1.000  H
  H85      1.0000 0.35770  0.45280  0.61410  Biso   1.000  H
  H86      1.0000 0.37220  0.49260  0.64790  Biso   1.000  H
  H87      1.0000 0.26450  0.37820  0.63410  Biso   1.000  H
  H88      1.0000 0.12300  0.39240  0.60030  Biso   1.000  H
  H89      1.0000 0.13970  0.51320  0.59850  Biso   1.000  H
  H90      1.0000 0.22380  0.47660  0.58370  Biso   1.000  H
  H91      1.0000 0.34250  0.15960  0.61040  Biso   1.000  H
  H92      1.0000 0.05540  0.10360  0.64920  Biso   1.000  H
  H93      1.0000 0.35780  0.26300  0.69620  Biso   1.000  H
  H94      1.0000 0.00810  0.08260  0.72710  Biso   1.000  H
  H95      1.0000 0.00510  0.03040  0.69470  Biso   1.000  H
  H96      1.0000 0.09870  0.04560  0.71790  Biso   1.000  H
  H97      1.0000 0.02480  0.25980  0.71500  Biso   1.000  H
  H98      1.0000 0.10690  0.31980  0.69120  Biso   1.000  H
  H99      1.0000 0.00070  0.19780  0.68270  Biso   1.000  H
  H100     1.0000 0.25460  0.23360  0.73760  Biso   1.000  H
  H101     1.0000 0.27340  0.34120  0.72470  Biso   1.000  H
  H102     1.0000 0.17600  0.28680  0.74580  Biso   1.000  H
  H103     1.0000 0.86250  0.24920  0.61390  Biso   1.000  H
  H104     1.0000 0.86540  0.08420  0.61540  Biso   1.000  H
  H105     1.0000 0.53920  0.94280  0.63600  Biso   1.000  H
  H106     1.0000 0.54390  0.11040  0.63320  Biso   1.000  H
  H107     1.0000 0.62660  0.82660  0.63200  Biso   1.000  H
  H108     1.0000 0.84650  0.91120  0.61670  Biso   1.000  H
  H109     1.0000 0.92520  0.78200  0.61860  Biso   1.000  H
  H110     1.0000 0.89790  0.60300  0.61880  Biso   1.000  H
  H111     1.0000 0.56880  0.47900  0.62080  Biso   1.000  H
  H112     1.0000 0.58690  0.65340  0.62140  Biso   1.000  H
  H113     1.0000 0.52560  0.46800  0.71890  Biso   1.000  H
  H114     1.0000 0.52400  0.63420  0.71840  Biso   1.000  H
  H115     1.0000 0.84370  0.76820  0.69280  Biso   1.000  H
  H116     1.0000 0.83790  0.60020  0.69510  Biso   1.000  H
  H117     1.0000 0.76260  0.88940  0.69970  Biso   1.000  H
  H118     1.0000 0.54300  0.80560  0.71540  Biso   1.000  H
  H119     1.0000 0.46490  0.93500  0.71290  Biso   1.000  H
  H120     1.0000 0.49230  0.11340  0.71160  Biso   1.000  H
  H121     1.0000 0.82030  0.23700  0.70970  Biso   1.000  H
  H122     1.0000 0.80140  0.06180  0.70980  Biso   1.000  H
  H123     1.0000 0.12970  0.28300  0.53190  Biso   1.000  H
  H124     1.0000 0.29190  0.45020  0.52880  Biso   1.000  H
  H125     1.0000 0.47760  0.30960  0.54990  Biso   1.000  H
  H126     1.0000 0.31060  0.14500  0.55060  Biso   1.000  H
  H127     1.0000 0.49620  0.57000  0.53420  Biso   1.000  H
  H128     1.0000 0.63180  0.48260  0.54710  Biso   1.000  H
  H129     1.0000 0.63040  0.74160  0.54580  Biso   1.000  H
  H130     1.0000 0.78700  0.91640  0.54580  Biso   1.000  H
  H131     1.0000 0.98930  0.78780  0.54100  Biso   1.000  H
  H132     1.0000 0.83820  0.60980  0.54200  Biso   1.000  H
  H133     1.0000 0.35630  0.22960  0.05270  Biso   1.000  H
  H134     1.0000 0.33280  0.08240  0.97010  Biso   1.000  H
  H135     1.0000 0.63720  0.25620  0.01560  Biso   1.000  H
  H136     1.0000 0.43110  0.08720  0.92840  Biso   1.000  H
  H137     1.0000 0.41030  0.99120  0.94670  Biso   1.000  H
  H138     1.0000 0.50580  0.02760  0.92450  Biso   1.000  H
  H139     1.0000 0.67110  0.23900  0.93510  Biso   1.000  H
  H140     1.0000 0.68180  0.30720  0.96610  Biso   1.000  H
  H141     1.0000 0.58210  0.27940  0.94310  Biso   1.000  H
  H142     1.0000 0.58730  0.03220  0.98080  Biso   1.000  H
  H143     1.0000 0.69370  0.15500  0.98400  Biso   1.000  H
  H144     1.0000 0.65990  0.07420  0.95400  Biso   1.000  H
  H145     1.0000 0.42360  0.45540  0.13440  Biso   1.000  H
  H146     1.0000 0.26060  0.58580  0.18410  Biso   1.000  H
  H147     1.0000 0.49710  0.53380  0.22110  Biso   1.000  H
  H148     1.0000 0.37700  0.68380  0.12290  Biso   1.000  H
  H149     1.0000 0.27540  0.67320  0.14150  Biso   1.000  H
  H150     1.0000 0.25550  0.64060  0.10740  Biso   1.000  H
  H151     1.0000 0.09510  0.45280  0.11410  Biso   1.000  H
  H152     1.0000 0.12040  0.49260  0.14790  Biso   1.000  H
  H153     1.0000 0.11370  0.37820  0.13410  Biso   1.000  H
  H154     1.0000 0.26940  0.39240  0.10030  Biso   1.000  H
  H155     1.0000 0.37350  0.51320  0.09850  Biso   1.000  H
  H156     1.0000 0.25280  0.47660  0.08370  Biso   1.000  H
  H157     1.0000 0.81710  0.15960  0.11040  Biso   1.000  H
  H158     1.0000 0.04820  0.10360  0.14920  Biso   1.000  H
  H159     1.0000 0.90520  0.26300  0.19620  Biso   1.000  H
  H160     1.0000 0.07450  0.08260  0.22710  Biso   1.000  H
  H161     1.0000 0.02530  0.03040  0.19470  Biso   1.000  H
  H162     1.0000 0.94690  0.04560  0.21790  Biso   1.000  H
  H163     1.0000 0.23500  0.25980  0.21500  Biso   1.000  H
  H164     1.0000 0.21290  0.31980  0.19120  Biso   1.000  H
  H165     1.0000 0.19710  0.19780  0.18270  Biso   1.000  H
  H166     1.0000 0.97900  0.23360  0.23760  Biso   1.000  H
  H167     1.0000 0.06780  0.34120  0.22470  Biso   1.000  H
  H168     1.0000 0.11080  0.28680  0.24580  Biso   1.000  H
  H169     1.0000 0.38670  0.24920  0.11390  Biso   1.000  H
  H170     1.0000 0.21880  0.08420  0.11540  Biso   1.000  H
  H171     1.0000 0.40360  0.94280  0.13600  Biso   1.000  H
  H172     1.0000 0.56650  0.11040  0.13320  Biso   1.000  H
  H173     1.0000 0.20000  0.82660  0.13200  Biso   1.000  H
  H174     1.0000 0.06470  0.91120  0.11670  Biso   1.000  H
  H175     1.0000 0.85680  0.78200  0.11860  Biso   1.000  H
  H176     1.0000 0.70510  0.60300  0.11880  Biso   1.000  H
  H177     1.0000 0.91020  0.47900  0.12080  Biso   1.000  H
  H178     1.0000 0.06650  0.65340  0.12140  Biso   1.000  H
  H179     1.0000 0.94240  0.46800  0.21890  Biso   1.000  H
  H180     1.0000 0.11020  0.63420  0.21840  Biso   1.000  H
  H181     1.0000 0.92450  0.76820  0.19280  Biso   1.000  H
  H182     1.0000 0.76230  0.60020  0.19510  Biso   1.000  H
  H183     1.0000 0.12680  0.88940  0.19970  Biso   1.000  H
  H184     1.0000 0.26260  0.80560  0.21540  Biso   1.000  H
  H185     1.0000 0.47010  0.93500  0.21290  Biso   1.000  H
  H186     1.0000 0.62110  0.11340  0.21160  Biso   1.000  H
  H187     1.0000 0.41670  0.23700  0.20970  Biso   1.000  H
  H188     1.0000 0.26040  0.06180  0.20980  Biso   1.000  H
  H189     1.0000 0.15330  0.28300  0.03190  Biso   1.000  H
  H190     1.0000 0.15830  0.45020  0.02880  Biso   1.000  H
  H191     1.0000 0.83200  0.30960  0.04990  Biso   1.000  H
  H192     1.0000 0.83440  0.14500  0.05060  Biso   1.000  H
  H193     1.0000 0.07380  0.57000  0.03420  Biso   1.000  H
  H194     1.0000 0.85080  0.48260  0.04710  Biso   1.000  H
  H195     1.0000 0.11120  0.74160  0.04580  Biso   1.000  H
  H196     1.0000 0.12940  0.91640  0.04580  Biso   1.000  H
  H197     1.0000 0.79850  0.78780  0.04100  Biso   1.000  H
  H198     1.0000 0.77160  0.60980  0.04200  Biso   1.000  H
  H199     1.0000 0.12670  0.77040  0.44730  Biso   1.000  H
  H200     1.0000 0.25040  0.91760  0.52990  Biso   1.000  H
  H201     1.0000 0.38100  0.74380  0.48440  Biso   1.000  H
  H202     1.0000 0.34390  0.91280  0.57160  Biso   1.000  H
  H203     1.0000 0.41910  0.00880  0.55330  Biso   1.000  H
  H204     1.0000 0.47820  0.97240  0.57550  Biso   1.000  H
  H205     1.0000 0.43210  0.76100  0.56490  Biso   1.000  H
  H206     1.0000 0.37460  0.69280  0.53390  Biso   1.000  H
  H207     1.0000 0.30270  0.72060  0.55690  Biso   1.000  H
  H208     1.0000 0.55510  0.96780  0.51920  Biso   1.000  H
  H209     1.0000 0.53870  0.84500  0.51600  Biso   1.000  H
  H210     1.0000 0.58570  0.92580  0.54600  Biso   1.000  H
  H211     1.0000 0.96820  0.54460  0.36560  Biso   1.000  H
  H212     1.0000 0.67480  0.41420  0.31590  Biso   1.000  H
  H213     1.0000 0.96330  0.46620  0.27890  Biso   1.000  H
  H214     1.0000 0.69320  0.31620  0.37710  Biso   1.000  H
  H215     1.0000 0.60220  0.32680  0.35850  Biso   1.000  H
  H216     1.0000 0.61490  0.35940  0.39260  Biso   1.000  H
  H217     1.0000 0.64230  0.54720  0.38590  Biso   1.000  H
  H218     1.0000 0.62780  0.50740  0.35210  Biso   1.000  H
  H219     1.0000 0.73550  0.62180  0.36590  Biso   1.000  H
  H220     1.0000 0.87700  0.60760  0.39970  Biso   1.000  H
  H221     1.0000 0.86030  0.48680  0.40150  Biso   1.000  H
  H222     1.0000 0.77620  0.52340  0.41630  Biso   1.000  H
  H223     1.0000 0.65750  0.84040  0.38960  Biso   1.000  H
  H224     1.0000 0.94460  0.89640  0.35080  Biso   1.000  H
  H225     1.0000 0.64220  0.73700  0.30380  Biso   1.000  H
  H226     1.0000 0.99190  0.91740  0.27290  Biso   1.000  H
  H227     1.0000 0.99490  0.96960  0.30530  Biso   1.000  H
  H228     1.0000 0.90130  0.95440  0.28210  Biso   1.000  H
  H229     1.0000 0.97520  0.74020  0.28500  Biso   1.000  H
  H230     1.0000 0.89310  0.68020  0.30880  Biso   1.000  H
  H231     1.0000 0.99930  0.80220  0.31730  Biso   1.000  H
  H232     1.0000 0.74540  0.76640  0.26240  Biso   1.000  H
  H233     1.0000 0.72660  0.65880  0.27530  Biso   1.000  H
  H234     1.0000 0.82400  0.71320  0.25420  Biso   1.000  H
  H235     1.0000 0.13750  0.75080  0.38610  Biso   1.000  H
  H236     1.0000 0.13460  0.91580  0.38460  Biso   1.000  H
  H237     1.0000 0.46080  0.05720  0.36400  Biso   1.000  H
  H238     1.0000 0.45610  0.88960  0.36680  Biso   1.000  H
  H239     1.0000 0.37340  0.17340  0.36800  Biso   1.000  H
  H240     1.0000 0.15350  0.08880  0.38330  Biso   1.000  H
  H241     1.0000 0.07480  0.21800  0.38140  Biso   1.000  H
  H242     1.0000 0.10210  0.39700  0.38120  Biso   1.000  H
  H243     1.0000 0.43120  0.52100  0.37920  Biso   1.000  H
  H244     1.0000 0.41310  0.34660  0.37860  Biso   1.000  H
  H245     1.0000 0.47440  0.53200  0.28110  Biso   1.000  H
  H246     1.0000 0.47600  0.36580  0.28160  Biso   1.000  H
  H247     1.0000 0.15630  0.23180  0.30720  Biso   1.000  H
  H248     1.0000 0.16210  0.39980  0.30490  Biso   1.000  H
  H249     1.0000 0.23740  0.11060  0.30030  Biso   1.000  H
  H250     1.0000 0.45700  0.19440  0.28460  Biso   1.000  H
  H251     1.0000 0.53510  0.06500  0.28710  Biso   1.000  H
  H252     1.0000 0.50770  0.88660  0.28840  Biso   1.000  H
  H253     1.0000 0.17970  0.76300  0.29030  Biso   1.000  H
  H254     1.0000 0.19860  0.93820  0.29020  Biso   1.000  H
  H255     1.0000 0.87030  0.71700  0.46810  Biso   1.000  H
  H256     1.0000 0.70810  0.54980  0.47120  Biso   1.000  H
  H257     1.0000 0.52240  0.69040  0.45010  Biso   1.000  H
  H258     1.0000 0.68940  0.85500  0.44940  Biso   1.000  H
  H259     1.0000 0.50380  0.43000  0.46580  Biso   1.000  H
  H260     1.0000 0.36820  0.51740  0.45290  Biso   1.000  H
  H261     1.0000 0.36960  0.25840  0.45420  Biso   1.000  H
  H262     1.0000 0.21300  0.08360  0.45420  Biso   1.000  H
  H263     1.0000 0.01070  0.21220  0.45900  Biso   1.000  H
  H264     1.0000 0.16180  0.39020  0.45800  Biso   1.000  H
  C1       1.0000 0.49166  0.74532  0.96164  Biso   1.000  C
  C2       1.0000 0.60930  0.78740  0.96319  Biso   1.000  C
  C3       1.0000 0.67558  0.85496  0.98844  Biso   1.000  C
  C4       1.0000 0.62256  0.87532  0.01270  Biso   1.000  C
  C5       1.0000 0.50489  0.83398  0.01183  Biso   1.000  C
  C6       1.0000 0.44155  0.77050  0.98577  Biso   1.000  C
  C7       1.0000 0.42301  0.68462  0.93310  Biso   1.000  C
  C8       1.0000 0.80435  0.91110  0.98949  Biso   1.000  C
  C9       1.0000 0.44650  0.85820  0.03809  Biso   1.000  C
  C10      1.0000 0.53260  0.94600  0.06177  Biso   1.000  C
  C11      1.0000 0.37100  0.74820  0.04949  Biso   1.000  C
  C12      1.0000 0.36920  0.90340  0.02899  Biso   1.000  C
  C13      1.0000 0.52933  0.51486  0.82249  Biso   1.000  C
  C14      1.0000 0.58966  0.51732  0.84741  Biso   1.000  C
  C15      1.0000 0.66941  0.47942  0.84543  Biso   1.000  C
  C16      1.0000 0.68500  0.43780  0.81782  Biso   1.000  C
  C17      1.0000 0.62241  0.43022  0.79291  Biso   1.000  C
  C18      1.0000 0.54467  0.46994  0.79543  Biso   1.000  C
  C19      1.0000 0.44783  0.56086  0.82541  Biso   1.000  C
  C20      1.0000 0.64111  0.38622  0.76326  Biso   1.000  C
  C21      1.0000 0.73740  0.48340  0.87266  Biso   1.000  C
  C22      1.0000 0.70420  0.35980  0.87548  Biso   1.000  C
  C23      1.0000 0.86330  0.54540  0.86880  Biso   1.000  C
  C24      1.0000 0.70790  0.52940  0.89992  Biso   1.000  C
  C25      1.0000 0.14857  0.77914  0.84661  Biso   1.000  C
  C26      1.0000 0.14012  0.83404  0.87294  Biso   1.000  C
  C27      1.0000 0.06734  0.87988  0.87449  Biso   1.000  C
  C28      1.0000 0.00221  0.86782  0.84946  Biso   1.000  C
  C29      1.0000 0.01018  0.81456  0.82254  Biso   1.000  C
  C30      1.0000 0.08597  0.77154  0.82160  Biso   1.000  C
  C31      1.0000 0.22526  0.72732  0.84478  Biso   1.000  C
  C32      1.0000 0.05235  0.93350  0.90345  Biso   1.000  C
  C33      1.0000 0.93830  0.80440  0.79537  Biso   1.000  C
  C34      1.0000 0.97640  0.92220  0.78827  Biso   1.000  C
  C35      1.0000 0.81140  0.75180  0.80226  Biso   1.000  C
  C36      1.0000 0.94590  0.72880  0.76944  Biso   1.000  C
  C37      1.0000 0.60987  0.81374  0.88183  Biso   1.000  C
  C38      1.0000 0.71152  0.91284  0.88080  Biso   1.000  C
  C39      1.0000 0.70993  0.00806  0.87418  Biso   1.000  C
  C40      1.0000 0.60234  0.99628  0.86875  Biso   1.000  C
  C41      1.0000 0.50426  0.89472  0.87041  Biso   1.000  C
  C42      1.0000 0.81230  0.11660  0.87332  Biso   1.000  C
  C43      1.0000 0.92038  0.14516  0.87903  Biso   1.000  C
  C44      1.0000 0.01883  0.25906  0.87914  Biso   1.000  C
  C45      1.0000 0.12965  0.27810  0.88057  Biso   1.000  C
  C46      1.0000 0.22093  0.38666  0.88079  Biso   1.000  C
  C47      1.0000 0.10101  0.45922  0.87950  Biso   1.000  C
  C48      1.0000 0.00645  0.35430  0.87903  Biso   1.000  C
  C49      1.0000 0.06099  0.46998  0.78606  Biso   1.000  C
  C50      1.0000 0.95957  0.37054  0.78651  Biso   1.000  C
  C51      1.0000 0.96233  0.27766  0.79428  Biso   1.000  C
  C52      1.0000 0.06969  0.29158  0.80146  Biso   1.000  C
  C53      1.0000 0.16690  0.39320  0.80015  Biso   1.000  C
  C54      1.0000 0.86039  0.16718  0.79505  Biso   1.000  C
  C55      1.0000 0.75262  0.13864  0.78918  Biso   1.000  C
  C56      1.0000 0.65489  0.02438  0.78942  Biso   1.000  C
  C57      1.0000 0.54370  0.00520  0.78820  Biso   1.000  C
  C58      1.0000 0.45290  0.89700  0.78859  Biso   1.000  C
  C59      1.0000 0.57199  0.82478  0.78985  Biso   1.000  C
  C60      1.0000 0.66671  0.93042  0.78988  Biso   1.000  C
  C61      1.0000 0.91240  0.71180  0.96461  Biso   1.000  C
  C62      1.0000 0.90845  0.61050  0.96628  Biso   1.000  C
  C63      1.0000 0.00377  0.59854  0.96061  Biso   1.000  C
  C64      1.0000 0.10153  0.69366  0.95405  Biso   1.000  C
  C65      1.0000 0.09883  0.79186  0.95343  Biso   1.000  C
  C66      1.0000 0.99646  0.48772  0.96140  Biso   1.000  C
  C67      1.0000 0.07725  0.46050  0.95658  Biso   1.000  C
  C68      1.0000 0.06138  0.34656  0.95670  Biso   1.000  C
  C69      1.0000 0.95430  0.25140  0.95523  Biso   1.000  C
  C70      1.0000 0.94402  0.14624  0.95525  Biso   1.000  C
  C71      1.0000 0.13727  0.22134  0.95789  Biso   1.000  C
  C72      1.0000 0.15433  0.32926  0.95759  Biso   1.000  C
  C73      1.0000 0.74634  0.25468  0.53836  Biso   1.000  C
  C74      1.0000 0.82190  0.21260  0.53681  Biso   1.000  C
  C75      1.0000 0.82062  0.14504  0.51156  Biso   1.000  C
  C76      1.0000 0.74724  0.12468  0.48730  Biso   1.000  C
  C77      1.0000 0.67091  0.16602  0.48817  Biso   1.000  C
  C78      1.0000 0.67105  0.22950  0.51423  Biso   1.000  C
  C79      1.0000 0.73839  0.31538  0.56690  Biso   1.000  C
  C80      1.0000 0.89325  0.08890  0.51051  Biso   1.000  C
  C81      1.0000 0.58830  0.14180  0.46191  Biso   1.000  C
  C82      1.0000 0.58660  0.05400  0.43823  Biso   1.000  C
  C83      1.0000 0.62280  0.25180  0.45051  Biso   1.000  C
  C84      1.0000 0.46580  0.09660  0.47101  Biso   1.000  C
  C85      1.0000 0.01447  0.48514  0.67751  Biso   1.000  C
  C86      1.0000 0.07234  0.48268  0.65259  Biso   1.000  C
  C87      1.0000 0.18999  0.52058  0.65457  Biso   1.000  C
  C88      1.0000 0.24720  0.56220  0.68218  Biso   1.000  C
  C89      1.0000 0.19219  0.56978  0.70709  Biso   1.000  C
  C90      1.0000 0.07473  0.53006  0.70457  Biso   1.000  C
  C91      1.0000 0.88697  0.43914  0.67459  Biso   1.000  C
  C92      1.0000 0.25489  0.61378  0.73674  Biso   1.000  C
  C93      1.0000 0.25400  0.51660  0.62734  Biso   1.000  C
  C94      1.0000 0.34440  0.64020  0.62452  Biso   1.000  C
  C95      1.0000 0.31790  0.45460  0.63120  Biso   1.000  C
  C96      1.0000 0.17850  0.47060  0.60008  Biso   1.000  C
  C97      1.0000 0.36943  0.22086  0.65339  Biso   1.000  C
  C98      1.0000 0.30608  0.16596  0.62706  Biso   1.000  C
  C99      1.0000 0.18746  0.12012  0.62551  Biso   1.000  C
  C100     1.0000 0.13439  0.13218  0.65054  Biso   1.000  C
  C101     1.0000 0.19562  0.18544  0.67746  Biso   1.000  C
  C102     1.0000 0.31443  0.22846  0.67840  Biso   1.000  C
  C103     1.0000 0.49794  0.27268  0.65522  Biso   1.000  C
  C104     1.0000 0.11885  0.06650  0.59655  Biso   1.000  C
  C105     1.0000 0.13390  0.19560  0.70463  Biso   1.000  C
  C106     1.0000 0.05420  0.07780  0.71173  Biso   1.000  C
  C107     1.0000 0.05960  0.24820  0.69774  Biso   1.000  C
  C108     1.0000 0.21710  0.27120  0.73056  Biso   1.000  C
  C109     1.0000 0.79613  0.18626  0.61817  Biso   1.000  C
  C110     1.0000 0.79868  0.08716  0.61920  Biso   1.000  C
  C111     1.0000 0.70187  0.99194  0.62582  Biso   1.000  C
  C112     1.0000 0.60606  0.00372  0.63125  Biso   1.000  C
  C113     1.0000 0.60954  0.10528  0.62959  Biso   1.000  C
  C114     1.0000 0.69570  0.88340  0.62668  Biso   1.000  C
  C115     1.0000 0.77522  0.85484  0.62097  Biso   1.000  C
  C116     1.0000 0.75977  0.74094  0.62086  Biso   1.000  C
  C117     1.0000 0.85155  0.72190  0.61943  Biso   1.000  C
  C118     1.0000 0.83427  0.61334  0.61921  Biso   1.000  C
  C119     1.0000 0.64179  0.54078  0.62050  Biso   1.000  C
  C120     1.0000 0.65215  0.64570  0.62097  Biso   1.000  C
  C121     1.0000 0.59101  0.53002  0.71394  Biso   1.000  C
  C122     1.0000 0.58903  0.62946  0.71349  Biso   1.000  C
  C123     1.0000 0.68467  0.72234  0.70572  Biso   1.000  C
  C124     1.0000 0.77811  0.70842  0.69854  Biso   1.000  C
  C125     1.0000 0.77370  0.60680  0.69985  Biso   1.000  C
  C126     1.0000 0.69321  0.83282  0.70495  Biso   1.000  C
  C127     1.0000 0.61398  0.86136  0.71082  Biso   1.000  C
  C128     1.0000 0.63051  0.97562  0.71058  Biso   1.000  C
  C129     1.0000 0.53850  0.99480  0.71180  Biso   1.000  C
  C130     1.0000 0.55590  0.10300  0.71141  Biso   1.000  C
  C131     1.0000 0.74721  0.17522  0.71015  Biso   1.000  C
  C132     1.0000 0.73629  0.06958  0.71012  Biso   1.000  C
  C133     1.0000 0.20060  0.28820  0.53539  Biso   1.000  C
  C134     1.0000 0.29795  0.38950  0.53372  Biso   1.000  C
  C135     1.0000 0.40523  0.40146  0.53939  Biso   1.000  C
  C136     1.0000 0.40787  0.30634  0.54595  Biso   1.000  C
  C137     1.0000 0.30697  0.20814  0.54657  Biso   1.000  C
  C138     1.0000 0.50874  0.51228  0.53860  Biso   1.000  C
  C139     1.0000 0.61675  0.53950  0.54342  Biso   1.000  C
  C140     1.0000 0.71482  0.65344  0.54330  Biso   1.000  C
  C141     1.0000 0.70290  0.74860  0.54477  Biso   1.000  C
  C142     1.0000 0.79778  0.85376  0.54475  Biso   1.000  C
  C143     1.0000 0.91593  0.77866  0.54211  Biso   1.000  C
  C144     1.0000 0.82507  0.67074  0.54241  Biso   1.000  C
  C145     1.0000 0.50834  0.25468  0.03836  Biso   1.000  C
  C146     1.0000 0.39070  0.21260  0.03681  Biso   1.000  C
  C147     1.0000 0.32442  0.14504  0.01156  Biso   1.000  C
  C148     1.0000 0.37744  0.12468  0.98730  Biso   1.000  C
  C149     1.0000 0.49511  0.16602  0.98817  Biso   1.000  C
  C150     1.0000 0.55845  0.22950  0.01423  Biso   1.000  C
  C151     1.0000 0.57699  0.31538  0.06690  Biso   1.000  C
  C152     1.0000 0.19565  0.08890  0.01051  Biso   1.000  C
  C153     1.0000 0.55350  0.14180  0.96191  Biso   1.000  C
  C154     1.0000 0.46740  0.05400  0.93823  Biso   1.000  C
  C155     1.0000 0.62900  0.25180  0.95051  Biso   1.000  C
  C156     1.0000 0.63080  0.09660  0.97101  Biso   1.000  C
  C157     1.0000 0.47067  0.48514  0.17751  Biso   1.000  C
  C158     1.0000 0.41034  0.48268  0.15259  Biso   1.000  C
  C159     1.0000 0.33059  0.52058  0.15457  Biso   1.000  C
  C160     1.0000 0.31500  0.56220  0.18218  Biso   1.000  C
  C161     1.0000 0.37759  0.56978  0.20709  Biso   1.000  C
  C162     1.0000 0.45533  0.53006  0.20457  Biso   1.000  C
  C163     1.0000 0.55217  0.43914  0.17459  Biso   1.000  C
  C164     1.0000 0.35889  0.61378  0.23674  Biso   1.000  C
  C165     1.0000 0.26260  0.51660  0.12734  Biso   1.000  C
  C166     1.0000 0.29580  0.64020  0.12452  Biso   1.000  C
  C167     1.0000 0.13670  0.45460  0.13120  Biso   1.000  C
  C168     1.0000 0.29210  0.47060  0.10008  Biso   1.000  C
  C169     1.0000 0.85143  0.22086  0.15339  Biso   1.000  C
  C170     1.0000 0.85988  0.16596  0.12706  Biso   1.000  C
  C171     1.0000 0.93266  0.12012  0.12551  Biso   1.000  C
  C172     1.0000 0.99779  0.13218  0.15054  Biso   1.000  C
  C173     1.0000 0.98982  0.18544  0.17746  Biso   1.000  C
  C174     1.0000 0.91403  0.22846  0.17840  Biso   1.000  C
  C175     1.0000 0.77474  0.27268  0.15522  Biso   1.000  C
  C176     1.0000 0.94765  0.06650  0.09655  Biso   1.000  C
  C177     1.0000 0.06170  0.19560  0.20463  Biso   1.000  C
  C178     1.0000 0.02360  0.07780  0.21173  Biso   1.000  C
  C179     1.0000 0.18860  0.24820  0.19774  Biso   1.000  C
  C180     1.0000 0.05410  0.27120  0.23056  Biso   1.000  C
  C181     1.0000 0.39013  0.18626  0.11817  Biso   1.000  C
  C182     1.0000 0.28848  0.08716  0.11920  Biso   1.000  C
  C183     1.0000 0.29007  0.99194  0.12582  Biso   1.000  C
  C184     1.0000 0.39766  0.00372  0.13125  Biso   1.000  C
  C185     1.0000 0.49574  0.10528  0.12959  Biso   1.000  C
  C186     1.0000 0.18770  0.88340  0.12668  Biso   1.000  C
  C187     1.0000 0.07962  0.85484  0.12097  Biso   1.000  C
  C188     1.0000 0.98117  0.74094  0.12086  Biso   1.000  C
  C189     1.0000 0.87035  0.72190  0.11943  Biso   1.000  C
  C190     1.0000 0.77907  0.61334  0.11921  Biso   1.000  C
  C191     1.0000 0.89899  0.54078  0.12050  Biso   1.000  C
  C192     1.0000 0.99355  0.64570  0.12097  Biso   1.000  C
  C193     1.0000 0.93901  0.53002  0.21394  Biso   1.000  C
  C194     1.0000 0.04043  0.62946  0.21349  Biso   1.000  C
  C195     1.0000 0.03767  0.72234  0.20572  Biso   1.000  C
  C196     1.0000 0.93031  0.70842  0.19854  Biso   1.000  C
  C197     1.0000 0.83310  0.60680  0.19985  Biso   1.000  C
  C198     1.0000 0.13961  0.83282  0.20495  Biso   1.000  C
  C199     1.0000 0.24738  0.86136  0.21082  Biso   1.000  C
  C200     1.0000 0.34511  0.97562  0.21058  Biso   1.000  C
  C201     1.0000 0.45630  0.99480  0.21180  Biso   1.000  C
  C202     1.0000 0.54710  0.10300  0.21141  Biso   1.000  C
  C203     1.0000 0.42801  0.17522  0.21015  Biso   1.000  C
  C204     1.0000 0.33329  0.06958  0.21012  Biso   1.000  C
  C205     1.0000 0.08760  0.28820  0.03539  Biso   1.000  C
  C206     1.0000 0.09155  0.38950  0.03372  Biso   1.000  C
  C207     1.0000 0.99623  0.40146  0.03939  Biso   1.000  C
  C208     1.0000 0.89847  0.30634  0.04595  Biso   1.000  C
  C209     1.0000 0.90117  0.20814  0.04657  Biso   1.000  C
  C210     1.0000 0.00354  0.51228  0.03860  Biso   1.000  C
  C211     1.0000 0.92275  0.53950  0.04342  Biso   1.000  C
  C212     1.0000 0.93862  0.65344  0.04330  Biso   1.000  C
  C213     1.0000 0.04570  0.74860  0.04477  Biso   1.000  C
  C214     1.0000 0.05598  0.85376  0.04475  Biso   1.000  C
  C215     1.0000 0.86273  0.77866  0.04211  Biso   1.000  C
  C216     1.0000 0.84567  0.67074  0.04241  Biso   1.000  C
  C217     1.0000 0.25366  0.74532  0.46164  Biso   1.000  C
  C218     1.0000 0.17810  0.78740  0.46319  Biso   1.000  C
  C219     1.0000 0.17938  0.85496  0.48844  Biso   1.000  C
  C220     1.0000 0.25276  0.87532  0.51270  Biso   1.000  C
  C221     1.0000 0.32909  0.83398  0.51183  Biso   1.000  C
  C222     1.0000 0.32895  0.77050  0.48577  Biso   1.000  C
  C223     1.0000 0.26161  0.68462  0.43310  Biso   1.000  C
  C224     1.0000 0.10675  0.91110  0.48949  Biso   1.000  C
  C225     1.0000 0.41170  0.85820  0.53809  Biso   1.000  C
  C226     1.0000 0.41340  0.94600  0.56177  Biso   1.000  C
  C227     1.0000 0.37720  0.74820  0.54949  Biso   1.000  C
  C228     1.0000 0.53420  0.90340  0.52899  Biso   1.000  C
  C229     1.0000 0.98553  0.51486  0.32249  Biso   1.000  C
  C230     1.0000 0.92766  0.51732  0.34741  Biso   1.000  C
  C231     1.0000 0.81001  0.47942  0.34543  Biso   1.000  C
  C232     1.0000 0.75280  0.43780  0.31782  Biso   1.000  C
  C233     1.0000 0.80781  0.43022  0.29291  Biso   1.000  C
  C234     1.0000 0.92527  0.46994  0.29543  Biso   1.000  C
  C235     1.0000 0.11303  0.56086  0.32541  Biso   1.000  C
  C236     1.0000 0.74511  0.38622  0.26326  Biso   1.000  C
  C237     1.0000 0.74600  0.48340  0.37266  Biso   1.000  C
  C238     1.0000 0.65560  0.35980  0.37548  Biso   1.000  C
  C239     1.0000 0.68210  0.54540  0.36880  Biso   1.000  C
  C240     1.0000 0.82150  0.52940  0.39992  Biso   1.000  C
  C241     1.0000 0.63057  0.77914  0.34661  Biso   1.000  C
  C242     1.0000 0.69392  0.83404  0.37294  Biso   1.000  C
  C243     1.0000 0.81254  0.87988  0.37449  Biso   1.000  C
  C244     1.0000 0.86561  0.86782  0.34946  Biso   1.000  C
  C245     1.0000 0.80438  0.81456  0.32254  Biso   1.000  C
  C246     1.0000 0.68557  0.77154  0.32160  Biso   1.000  C
  C247     1.0000 0.50206  0.72732  0.34478  Biso   1.000  C
  C248     1.0000 0.88115  0.93350  0.40345  Biso   1.000  C
  C249     1.0000 0.86610  0.80440  0.29537  Biso   1.000  C
  C250     1.0000 0.94580  0.92220  0.28827  Biso   1.000  C
  C251     1.0000 0.94040  0.75180  0.30226  Biso   1.000  C
  C252     1.0000 0.78290  0.72880  0.26944  Biso   1.000  C
  C253     1.0000 0.20387  0.81374  0.38183  Biso   1.000  C
  C254     1.0000 0.20132  0.91284  0.38080  Biso   1.000  C
  C255     1.0000 0.29813  0.00806  0.37418  Biso   1.000  C
  C256     1.0000 0.39394  0.99628  0.36875  Biso   1.000  C
  C257     1.0000 0.39046  0.89472  0.37041  Biso   1.000  C
  C258     1.0000 0.30430  0.11660  0.37332  Biso   1.000  C
  C259     1.0000 0.22478  0.14516  0.37903  Biso   1.000  C
  C260     1.0000 0.24023  0.25906  0.37914  Biso   1.000  C
  C261     1.0000 0.14845  0.27810  0.38057  Biso   1.000  C
  C262     1.0000 0.16573  0.38666  0.38079  Biso   1.000  C
  C263     1.0000 0.35821  0.45922  0.37950  Biso   1.000  C
  C264     1.0000 0.34785  0.35430  0.37903  Biso   1.000  C
  C265     1.0000 0.40899  0.46998  0.28606  Biso   1.000  C
  C266     1.0000 0.41097  0.37054  0.28651  Biso   1.000  C
  C267     1.0000 0.31533  0.27766  0.29428  Biso   1.000  C
  C268     1.0000 0.22189  0.29158  0.30146  Biso   1.000  C
  C269     1.0000 0.22630  0.39320  0.30015  Biso   1.000  C
  C270     1.0000 0.30679  0.16718  0.29505  Biso   1.000  C
  C271     1.0000 0.38602  0.13864  0.28918  Biso   1.000  C
  C272     1.0000 0.36949  0.02438  0.28942  Biso   1.000  C
  C273     1.0000 0.46150  0.00520  0.28820  Biso   1.000  C
  C274     1.0000 0.44410  0.89700  0.28859  Biso   1.000  C
  C275     1.0000 0.25279  0.82478  0.28985  Biso   1.000  C
  C276     1.0000 0.26371  0.93042  0.28988  Biso   1.000  C
  C277     1.0000 0.79940  0.71180  0.46461  Biso   1.000  C
  C278     1.0000 0.70205  0.61050  0.46628  Biso   1.000  C
  C279     1.0000 0.59477  0.59854  0.46061  Biso   1.000  C
  C280     1.0000 0.59213  0.69366  0.45405  Biso   1.000  C
  C281     1.0000 0.69303  0.79186  0.45343  Biso   1.000  C
  C282     1.0000 0.49126  0.48772  0.46140  Biso   1.000  C
  C283     1.0000 0.38325  0.46050  0.45658  Biso   1.000  C
  C284     1.0000 0.28518  0.34656  0.45670  Biso   1.000  C
  C285     1.0000 0.29710  0.25140  0.45523  Biso   1.000  C
  C286     1.0000 0.20222  0.14624  0.45525  Biso   1.000  C
  C287     1.0000 0.08407  0.22134  0.45789  Biso   1.000  C
  C288     1.0000 0.17493  0.32926  0.45759  Biso   1.000  C
  N1       1.0000 0.50629  0.80338  0.87697  Biso   1.000  N
  N2       1.0000 0.20814  0.47728  0.88043  Biso   1.000  N
  N3       1.0000 0.16539  0.48258  0.79249  Biso   1.000  N
  N4       1.0000 0.46575  0.80730  0.78922  Biso   1.000  N
  N5       1.0000 0.00582  0.80324  0.95824  Biso   1.000  N
  N6       1.0000 0.03357  0.12914  0.95665  Biso   1.000  N
  N7       1.0000 0.70291  0.19662  0.62303  Biso   1.000  N
  N8       1.0000 0.73086  0.52272  0.61957  Biso   1.000  N
  N9       1.0000 0.68281  0.51742  0.70751  Biso   1.000  N
  N10      1.0000 0.65845  0.19270  0.71078  Biso   1.000  N
  N11      1.0000 0.20258  0.19676  0.54176  Biso   1.000  N
  N12      1.0000 0.90443  0.87086  0.54335  Biso   1.000  N
  N13      1.0000 0.49371  0.19662  0.12303  Biso   1.000  N
  N14      1.0000 0.79186  0.52272  0.11957  Biso   1.000  N
  N15      1.0000 0.83461  0.51742  0.20751  Biso   1.000  N
  N16      1.0000 0.53425  0.19270  0.21078  Biso   1.000  N
  N17      1.0000 0.99418  0.19676  0.04176  Biso   1.000  N
  N18      1.0000 0.96643  0.87086  0.04335  Biso   1.000  N
  N19      1.0000 0.29709  0.80338  0.37697  Biso   1.000  N
  N20      1.0000 0.26914  0.47728  0.38043  Biso   1.000  N
  N21      1.0000 0.31719  0.48258  0.29249  Biso   1.000  N
  N22      1.0000 0.34155  0.80730  0.28922  Biso   1.000  N
  N23      1.0000 0.79742  0.80324  0.45824  Biso   1.000  N
  N24      1.0000 0.09557  0.12914  0.45665  Biso   1.000  N
  O1       1.0000 0.45361  0.62806  0.91536  Biso   1.000  O
  O2       1.0000 0.34029  0.69786  0.92608  Biso   1.000  O
  O3       1.0000 0.84834  0.89554  0.96668  Biso   1.000  O
  O4       1.0000 0.85898  0.97242  0.01260  Biso   1.000  O
  O5       1.0000 0.41188  0.56918  0.84977  Biso   1.000  O
  O6       1.0000 0.42171  0.58628  0.80257  Biso   1.000  O
  O7       1.0000 0.55897  0.33674  0.74406  Biso   1.000  O
  O8       1.0000 0.73959  0.40398  0.75744  Biso   1.000  O
  O9       1.0000 0.26223  0.71736  0.82059  Biso   1.000  O
  O10      1.0000 0.24771  0.70010  0.86761  Biso   1.000  O
  O11      1.0000 0.13652  0.98708  0.92204  Biso   1.000  O
  O12      1.0000 0.95522  0.91804  0.90916  Biso   1.000  O
  O13      1.0000 0.82555  0.37194  0.58464  Biso   1.000  O
  O14      1.0000 0.64243  0.30214  0.57392  Biso   1.000  O
  O15      1.0000 0.95280  0.10446  0.53332  Biso   1.000  O
  O16      1.0000 0.88656  0.02758  0.48740  Biso   1.000  O
  O17      1.0000 0.84270  0.43082  0.65023  Biso   1.000  O
  O18      1.0000 0.83543  0.41372  0.69743  Biso   1.000  O
  O19      1.0000 0.22223  0.66326  0.75594  Biso   1.000  O
  O20      1.0000 0.33561  0.59602  0.74256  Biso   1.000  O
  O21      1.0000 0.54487  0.28264  0.67941  Biso   1.000  O
  O22      1.0000 0.54761  0.29990  0.63239  Biso   1.000  O
  O23      1.0000 0.14944  0.01292  0.57796  Biso   1.000  O
  O24      1.0000 0.03718  0.08196  0.59084  Biso   1.000  O
  O25      1.0000 0.54639  0.37194  0.08464  Biso   1.000  O
  O26      1.0000 0.65971  0.30214  0.07392  Biso   1.000  O
  O27      1.0000 0.15166  0.10446  0.03332  Biso   1.000  O
  O28      1.0000 0.14102  0.02758  0.98740  Biso   1.000  O
  O29      1.0000 0.58812  0.43082  0.15023  Biso   1.000  O
  O30      1.0000 0.57829  0.41372  0.19743  Biso   1.000  O
  O31      1.0000 0.44103  0.66326  0.25594  Biso   1.000  O
  O32      1.0000 0.26041  0.59602  0.24256  Biso   1.000  O
  O33      1.0000 0.73777  0.28264  0.17941  Biso   1.000  O
  O34      1.0000 0.75229  0.29990  0.13239  Biso   1.000  O
  O35      1.0000 0.86348  0.01292  0.07796  Biso   1.000  O
  O36      1.0000 0.04478  0.08196  0.09084  Biso   1.000  O
  O37      1.0000 0.17445  0.62806  0.41536  Biso   1.000  O
  O38      1.0000 0.35757  0.69786  0.42608  Biso   1.000  O
  O39      1.0000 0.04720  0.89554  0.46668  Biso   1.000  O
  O40      1.0000 0.11344  0.97242  0.51260  Biso   1.000  O
  O41      1.0000 0.15730  0.56918  0.34977  Biso   1.000  O
  O42      1.0000 0.16457  0.58628  0.30257  Biso   1.000  O
  O43      1.0000 0.77777  0.33674  0.24406  Biso   1.000  O
  O44      1.0000 0.66439  0.40398  0.25744  Biso   1.000  O
  O45      1.0000 0.45513  0.71736  0.32059  Biso   1.000  O
  O46      1.0000 0.45239  0.70010  0.36761  Biso   1.000  O
  O47      1.0000 0.85056  0.98708  0.42204  Biso   1.000  O
  O48      1.0000 0.96282  0.91804  0.40916  Biso   1.000  O
