data_image0
_cell_length_a       12.746
_cell_length_b       12.746
_cell_length_c       9.14
_cell_angle_alpha    90
_cell_angle_beta     90
_cell_angle_gamma    120

_symmetry_space_group_name_H-M    "P 1"
_symmetry_int_tables_number       1

loop_
  _symmetry_equiv_pos_as_xyz
  'x, y, z'

loop_
  _atom_site_label
  _atom_site_occupancy
  _atom_site_fract_x
  _atom_site_fract_y
  _atom_site_fract_z
  _atom_site_thermal_displace_type
  _atom_site_B_iso_or_equiv
  _atom_site_type_symbol
  Al1      1.0000 0.67320  0.53040  0.41720  Biso   1.000  Al
  P1       1.0000 0.45530  0.32170  0.61760  Biso   1.000  P
  O1       1.0000 0.55970  0.42140  0.53020  Biso   1.000  O
  O2       1.0000 0.39980  0.20780  0.52290  Biso   1.000  O
  O3       1.0000 0.36030  0.35930  0.64170  Biso   1.000  O
  O4       1.0000 0.68090  0.45250  0.26000  Biso   1.000  O
  O5       1.0000 0.50050  0.30510  0.76170  Biso   1.000  O
  Al2      1.0000 0.46960  0.14280  0.41720  Biso   1.000  Al
  P2       1.0000 0.67830  0.13360  0.61760  Biso   1.000  P
  O6       1.0000 0.57860  0.13830  0.53020  Biso   1.000  O
  O7       1.0000 0.79220  0.19200  0.52290  Biso   1.000  O
  O8       1.0000 0.64070  0.00100  0.64170  Biso   1.000  O
  O9       1.0000 0.54750  0.22840  0.26000  Biso   1.000  O
  O10      1.0000 0.69490  0.19540  0.76170  Biso   1.000  O
  Al3      1.0000 0.85720  0.32680  0.41720  Biso   1.000  Al
  P3       1.0000 0.86640  0.54470  0.61760  Biso   1.000  P
  O11      1.0000 0.86170  0.44030  0.53020  Biso   1.000  O
  O12      1.0000 0.80800  0.60020  0.52290  Biso   1.000  O
  O13      1.0000 0.99900  0.63970  0.64170  Biso   1.000  O
  O14      1.0000 0.77160  0.31910  0.26000  Biso   1.000  O
  O15      1.0000 0.80460  0.49950  0.76170  Biso   1.000  O
  Al4      1.0000 0.32680  0.46960  0.58280  Biso   1.000  Al
  P4       1.0000 0.54470  0.67830  0.38240  Biso   1.000  P
  O16      1.0000 0.44030  0.57860  0.46980  Biso   1.000  O
  O17      1.0000 0.60020  0.79220  0.47710  Biso   1.000  O
  O18      1.0000 0.63970  0.64070  0.35830  Biso   1.000  O
  O19      1.0000 0.31910  0.54750  0.74000  Biso   1.000  O
  O20      1.0000 0.49950  0.69490  0.23830  Biso   1.000  O
  Al5      1.0000 0.53040  0.85720  0.58280  Biso   1.000  Al
  P5       1.0000 0.32170  0.86640  0.38240  Biso   1.000  P
  O21      1.0000 0.42140  0.86170  0.46980  Biso   1.000  O
  O22      1.0000 0.20780  0.80800  0.47710  Biso   1.000  O
  O23      1.0000 0.35930  0.99900  0.35830  Biso   1.000  O
  O24      1.0000 0.45250  0.77160  0.74000  Biso   1.000  O
  O25      1.0000 0.30510  0.80460  0.23830  Biso   1.000  O
  Al6      1.0000 0.14280  0.67320  0.58280  Biso   1.000  Al
  P6       1.0000 0.13360  0.45530  0.38240  Biso   1.000  P
  O26      1.0000 0.13830  0.55970  0.46980  Biso   1.000  O
  O27      1.0000 0.19200  0.39980  0.47710  Biso   1.000  O
  O28      1.0000 0.00100  0.36030  0.35830  Biso   1.000  O
  O29      1.0000 0.22840  0.68090  0.74000  Biso   1.000  O
  O30      1.0000 0.19540  0.50050  0.23830  Biso   1.000  O
  Mn1      1.0000 0.66667  0.33333  0.82170  Biso   1.000  Mn
  P7       1.0000 0.66667  0.33333  0.20190  Biso   1.000  P
  O31      1.0000 0.66667  0.33333  0.04090  Biso   1.000  O
  Mn2      1.0000 0.33333  0.66667  0.17830  Biso   1.000  Mn
  P8       1.0000 0.33333  0.66667  0.79810  Biso   1.000  P
  O32      1.0000 0.33333  0.66667  0.95910  Biso   1.000  O
