data_image0
_cell_length_a       14.4821
_cell_length_b       16.7137
_cell_length_c       19.213
_cell_angle_alpha    90
_cell_angle_beta     108.039
_cell_angle_gamma    90

_symmetry_space_group_name_H-M    "P 1"
_symmetry_int_tables_number       1

loop_
  _symmetry_equiv_pos_as_xyz
  'x, y, z'

loop_
  _atom_site_label
  _atom_site_occupancy
  _atom_site_fract_x
  _atom_site_fract_y
  _atom_site_fract_z
  _atom_site_thermal_displace_type
  _atom_site_B_iso_or_equiv
  _atom_site_type_symbol
  Dy1      1.0000 0.67641  0.34370  0.66881  Biso   1.000  Dy
  Dy2      1.0000 0.07739  0.36380  0.77104  Biso   1.000  Dy
  C1       1.0000 0.86540  0.32580  0.88620  Biso   1.000  C
  C2       1.0000 0.94720  0.29820  0.94260  Biso   1.000  C
  H1       1.0000 0.00870  0.30550  0.93800  Biso   1.000  H
  C3       1.0000 0.93880  0.26030  0.00470  Biso   1.000  C
  C4       1.0000 0.84640  0.24800  0.01000  Biso   1.000  C
  H2       1.0000 0.83920  0.22100  0.05030  Biso   1.000  H
  C5       1.0000 0.76480  0.27530  0.95610  Biso   1.000  C
  C6       1.0000 0.77280  0.31360  0.89380  Biso   1.000  C
  H3       1.0000 0.71750  0.33090  0.85750  Biso   1.000  H
  C7       1.0000 0.87290  0.37250  0.82380  Biso   1.000  C
  C8       1.0000 0.02190  0.22430  0.05990  Biso   1.000  C
  C9       1.0000 0.66840  0.26140  0.96330  Biso   1.000  C
  C10      1.0000 0.59140  0.25220  0.96940  Biso   1.000  C
  C11      1.0000 0.49570  0.25070  0.97720  Biso   1.000  C
  C12      1.0000 0.48390  0.21760  0.04180  Biso   1.000  C
  H4       1.0000 0.53670  0.19450  0.07670  Biso   1.000  H
  C13      1.0000 0.39430  0.21940  0.05320  Biso   1.000  C
  C14      1.0000 0.31370  0.25390  0.00580  Biso   1.000  C
  H5       1.0000 0.25450  0.25490  0.01520  Biso   1.000  H
  C15      1.0000 0.32510  0.28840  0.94080  Biso   1.000  C
  C16      1.0000 0.41530  0.28540  0.92950  Biso   1.000  C
  H6       1.0000 0.42140  0.30830  0.88700  Biso   1.000  H
  C17      1.0000 0.38210  0.18710  0.12130  Biso   1.000  C
  C18      1.0000 0.24410  0.32300  0.88560  Biso   1.000  C
  C19      1.0000 0.54380  0.49290  0.78880  Biso   1.000  C
  C20      1.0000 0.53690  0.47300  0.85820  Biso   1.000  C
  H7       1.0000 0.55710  0.42270  0.87760  Biso   1.000  H
  C21      1.0000 0.50080  0.52650  0.89830  Biso   1.000  C
  C22      1.0000 0.46790  0.60060  0.86810  Biso   1.000  C
  H8       1.0000 0.44150  0.63610  0.89400  Biso   1.000  H
  C23      1.0000 0.47360  0.62270  0.79910  Biso   1.000  C
  C24      1.0000 0.51040  0.56890  0.76070  Biso   1.000  C
  H9       1.0000 0.51330  0.58320  0.71470  Biso   1.000  H
  C25      1.0000 0.58230  0.43780  0.74280  Biso   1.000  C
  C26      1.0000 0.44710  0.70260  0.76630  Biso   1.000  C
  C27      1.0000 0.50000  0.50850  0.97070  Biso   1.000  C
  C28      1.0000 0.70320  0.44310  0.50750  Biso   1.000  C
  H10      1.0000 0.76940  0.46020  0.51860  Biso   1.000  H
  H11      1.0000 0.66090  0.48390  0.47980  Biso   1.000  H
  H12      1.0000 0.69400  0.39460  0.47940  Biso   1.000  H
  C29      1.0000 0.74320  0.14530  0.73850  Biso   1.000  C
  H13      1.0000 0.74730  0.12420  0.69310  Biso   1.000  H
  H14      1.0000 0.71510  0.10590  0.76230  Biso   1.000  H
  H15      1.0000 0.80700  0.15880  0.76960  Biso   1.000  H
  C30      1.0000 0.12790  0.55390  0.88170  Biso   1.000  C
  H16      1.0000 0.08860  0.53750  0.91130  Biso   1.000  H
  H17      1.0000 0.10670  0.60540  0.86060  Biso   1.000  H
  H18      1.0000 0.19460  0.55710  0.91150  Biso   1.000  H
  C31      1.0000 0.13450  0.49860  0.63120  Biso   1.000  C
  H19      1.0000 0.06740  0.50900  0.60560  Biso   1.000  H
  H20      1.0000 0.16710  0.48260  0.59690  Biso   1.000  H
  H21      1.0000 0.16420  0.54620  0.65620  Biso   1.000  H
  O1       1.0000 0.79940  0.38550  0.77307  Biso   1.000  O
  O2       1.0000 0.95650  0.38880  0.82080  Biso   1.000  O
  O3       1.0000 0.10620  0.24230  0.06140  Biso   1.000  O
  O4       1.0000 0.00640  0.18090  0.10610  Biso   1.000  O
  O5       1.0000 0.44950  0.13900  0.16250  Biso   1.000  O
  O6       1.0000 0.30750  0.20550  0.14080  Biso   1.000  O
  O7       1.0000 0.16700  0.32560  0.89770  Biso   1.000  O
  O8       1.0000 0.24520  0.34830  0.82700  Biso   1.000  O
  O9       1.0000 0.59150  0.36480  0.76145  Biso   1.000  O
  O10      1.0000 0.61540  0.46660  0.69580  Biso   1.000  O
  O11      1.0000 0.47670  0.72950  0.72070  Biso   1.000  O
  O12      1.0000 0.38460  0.74520  0.78990  Biso   1.000  O
  O13      1.0000 0.68140  0.42900  0.57350  Biso   1.000  O
  O14      1.0000 0.68200  0.21730  0.72410  Biso   1.000  O
  H22      1.0000 0.68070  0.22940  0.76680  Biso   1.000  H
  O15      1.0000 0.11800  0.49250  0.82020  Biso   1.000  O
  H23      1.0000 0.13490  0.50390  0.78270  Biso   1.000  H
  O16      1.0000 0.14210  0.43130  0.68720  Biso   1.000  O
  H24      1.0000 0.19970  0.43910  0.71490  Biso   1.000  H
  Dy3      1.0000 0.82359  0.84370  0.83119  Biso   1.000  Dy
  Dy4      1.0000 0.42261  0.86380  0.72896  Biso   1.000  Dy
  C32      1.0000 0.63460  0.82580  0.61380  Biso   1.000  C
  C33      1.0000 0.55280  0.79820  0.55740  Biso   1.000  C
  H25      1.0000 0.49130  0.80550  0.56200  Biso   1.000  H
  C34      1.0000 0.56120  0.76030  0.49530  Biso   1.000  C
  C35      1.0000 0.65360  0.74800  0.49000  Biso   1.000  C
  H26      1.0000 0.66080  0.72100  0.44970  Biso   1.000  H
  C36      1.0000 0.73520  0.77530  0.54390  Biso   1.000  C
  C37      1.0000 0.72720  0.81360  0.60620  Biso   1.000  C
  H27      1.0000 0.78250  0.83090  0.64250  Biso   1.000  H
  C38      1.0000 0.62710  0.87250  0.67620  Biso   1.000  C
  C39      1.0000 0.47810  0.72430  0.44010  Biso   1.000  C
  C40      1.0000 0.83160  0.76140  0.53670  Biso   1.000  C
  C41      1.0000 0.90860  0.75220  0.53060  Biso   1.000  C
  C42      1.0000 0.00430  0.75070  0.52280  Biso   1.000  C
  C43      1.0000 0.01610  0.71760  0.45820  Biso   1.000  C
  H28      1.0000 0.96330  0.69450  0.42330  Biso   1.000  H
  C44      1.0000 0.10570  0.71940  0.44680  Biso   1.000  C
  C45      1.0000 0.18630  0.75390  0.49420  Biso   1.000  C
  H29      1.0000 0.24550  0.75490  0.48480  Biso   1.000  H
  C46      1.0000 0.17490  0.78840  0.55920  Biso   1.000  C
  C47      1.0000 0.08470  0.78540  0.57050  Biso   1.000  C
  H30      1.0000 0.07860  0.80830  0.61300  Biso   1.000  H
  C48      1.0000 0.11790  0.68710  0.37870  Biso   1.000  C
  C49      1.0000 0.25590  0.82300  0.61440  Biso   1.000  C
  C50      1.0000 0.95620  0.99290  0.71120  Biso   1.000  C
  C51      1.0000 0.96310  0.97300  0.64180  Biso   1.000  C
  H31      1.0000 0.94290  0.92270  0.62240  Biso   1.000  H
  C52      1.0000 0.99920  0.02650  0.60170  Biso   1.000  C
  C53      1.0000 0.03210  0.10060  0.63190  Biso   1.000  C
  H32      1.0000 0.05850  0.13610  0.60600  Biso   1.000  H
  C54      1.0000 0.02640  0.12270  0.70090  Biso   1.000  C
  C55      1.0000 0.98960  0.06890  0.73930  Biso   1.000  C
  H33      1.0000 0.98670  0.08320  0.78530  Biso   1.000  H
  C56      1.0000 0.91770  0.93780  0.75720  Biso   1.000  C
  C57      1.0000 0.05290  0.20260  0.73370  Biso   1.000  C
  C58      1.0000 0.00000  0.00850  0.52930  Biso   1.000  C
  C59      1.0000 0.79680  0.94310  0.99250  Biso   1.000  C
  H34      1.0000 0.73060  0.96020  0.98140  Biso   1.000  H
  H35      1.0000 0.83910  0.98390  0.02020  Biso   1.000  H
  H36      1.0000 0.80600  0.89460  0.02060  Biso   1.000  H
  C60      1.0000 0.75680  0.64530  0.76150  Biso   1.000  C
  H37      1.0000 0.75270  0.62420  0.80690  Biso   1.000  H
  H38      1.0000 0.78490  0.60590  0.73770  Biso   1.000  H
  H39      1.0000 0.69300  0.65880  0.73040  Biso   1.000  H
  C61      1.0000 0.37210  0.05390  0.61830  Biso   1.000  C
  H40      1.0000 0.41140  0.03750  0.58870  Biso   1.000  H
  H41      1.0000 0.39330  0.10540  0.63940  Biso   1.000  H
  H42      1.0000 0.30540  0.05710  0.58850  Biso   1.000  H
  C62      1.0000 0.36550  0.99860  0.86880  Biso   1.000  C
  H43      1.0000 0.43260  0.00900  0.89440  Biso   1.000  H
  H44      1.0000 0.33290  0.98260  0.90310  Biso   1.000  H
  H45      1.0000 0.33580  0.04620  0.84380  Biso   1.000  H
  O17      1.0000 0.70060  0.88550  0.72693  Biso   1.000  O
  O18      1.0000 0.54350  0.88880  0.67920  Biso   1.000  O
  O19      1.0000 0.39380  0.74230  0.43860  Biso   1.000  O
  O20      1.0000 0.49360  0.68090  0.39390  Biso   1.000  O
  O21      1.0000 0.05050  0.63900  0.33750  Biso   1.000  O
  O22      1.0000 0.19250  0.70550  0.35920  Biso   1.000  O
  O23      1.0000 0.33300  0.82560  0.60230  Biso   1.000  O
  O24      1.0000 0.25480  0.84830  0.67300  Biso   1.000  O
  O25      1.0000 0.90850  0.86480  0.73855  Biso   1.000  O
  O26      1.0000 0.88460  0.96660  0.80420  Biso   1.000  O
  O27      1.0000 0.02330  0.22950  0.77930  Biso   1.000  O
  O28      1.0000 0.11540  0.24520  0.71010  Biso   1.000  O
  O29      1.0000 0.81860  0.92900  0.92650  Biso   1.000  O
  O30      1.0000 0.81800  0.71730  0.77590  Biso   1.000  O
  H46      1.0000 0.81930  0.72940  0.73320  Biso   1.000  H
  O31      1.0000 0.38200  0.99250  0.67980  Biso   1.000  O
  H47      1.0000 0.36510  0.00390  0.71730  Biso   1.000  H
  O32      1.0000 0.35790  0.93130  0.81280  Biso   1.000  O
  H48      1.0000 0.30030  0.93910  0.78510  Biso   1.000  H
  Dy5      1.0000 0.32359  0.65630  0.33119  Biso   1.000  Dy
  Dy6      1.0000 0.92261  0.63620  0.22896  Biso   1.000  Dy
  C63      1.0000 0.13460  0.67420  0.11380  Biso   1.000  C
  C64      1.0000 0.05280  0.70180  0.05740  Biso   1.000  C
  H49      1.0000 0.99130  0.69450  0.06200  Biso   1.000  H
  C65      1.0000 0.06120  0.73970  0.99530  Biso   1.000  C
  C66      1.0000 0.15360  0.75200  0.99000  Biso   1.000  C
  H50      1.0000 0.16080  0.77900  0.94970  Biso   1.000  H
  C67      1.0000 0.23520  0.72470  0.04390  Biso   1.000  C
  C68      1.0000 0.22720  0.68640  0.10620  Biso   1.000  C
  H51      1.0000 0.28250  0.66910  0.14250  Biso   1.000  H
  C69      1.0000 0.12710  0.62750  0.17620  Biso   1.000  C
  C70      1.0000 0.97810  0.77570  0.94010  Biso   1.000  C
  C71      1.0000 0.33160  0.73860  0.03670  Biso   1.000  C
  C72      1.0000 0.40860  0.74780  0.03060  Biso   1.000  C
  C73      1.0000 0.50430  0.74930  0.02280  Biso   1.000  C
  C74      1.0000 0.51610  0.78240  0.95820  Biso   1.000  C
  H52      1.0000 0.46330  0.80550  0.92330  Biso   1.000  H
  C75      1.0000 0.60570  0.78060  0.94680  Biso   1.000  C
  C76      1.0000 0.68630  0.74610  0.99420  Biso   1.000  C
  H53      1.0000 0.74550  0.74510  0.98480  Biso   1.000  H
  C77      1.0000 0.67490  0.71160  0.05920  Biso   1.000  C
  C78      1.0000 0.58470  0.71460  0.07050  Biso   1.000  C
  H54      1.0000 0.57860  0.69170  0.11300  Biso   1.000  H
  C79      1.0000 0.61790  0.81290  0.87870  Biso   1.000  C
  C80      1.0000 0.75590  0.67700  0.11440  Biso   1.000  C
  C81      1.0000 0.45620  0.50710  0.21120  Biso   1.000  C
  C82      1.0000 0.46310  0.52700  0.14180  Biso   1.000  C
  H55      1.0000 0.44290  0.57730  0.12240  Biso   1.000  H
  C83      1.0000 0.49920  0.47350  0.10170  Biso   1.000  C
  C84      1.0000 0.53210  0.39940  0.13190  Biso   1.000  C
  H56      1.0000 0.55850  0.36390  0.10600  Biso   1.000  H
  C85      1.0000 0.52640  0.37730  0.20090  Biso   1.000  C
  C86      1.0000 0.48960  0.43110  0.23930  Biso   1.000  C
  H57      1.0000 0.48670  0.41680  0.28530  Biso   1.000  H
  C87      1.0000 0.41770  0.56220  0.25720  Biso   1.000  C
  C88      1.0000 0.55290  0.29740  0.23370  Biso   1.000  C
  C89      1.0000 0.50000  0.49150  0.02930  Biso   1.000  C
  C90      1.0000 0.29680  0.55690  0.49250  Biso   1.000  C
  H58      1.0000 0.23060  0.53980  0.48140  Biso   1.000  H
  H59      1.0000 0.33910  0.51610  0.52020  Biso   1.000  H
  H60      1.0000 0.30600  0.60540  0.52060  Biso   1.000  H
  C91      1.0000 0.25680  0.85470  0.26150  Biso   1.000  C
  H61      1.0000 0.25270  0.87580  0.30690  Biso   1.000  H
  H62      1.0000 0.28490  0.89410  0.23770  Biso   1.000  H
  H63      1.0000 0.19300  0.84120  0.23040  Biso   1.000  H
  C92      1.0000 0.87210  0.44610  0.11830  Biso   1.000  C
  H64      1.0000 0.91140  0.46250  0.08870  Biso   1.000  H
  H65      1.0000 0.89330  0.39460  0.13940  Biso   1.000  H
  H66      1.0000 0.80540  0.44290  0.08850  Biso   1.000  H
  C93      1.0000 0.86550  0.50140  0.36880  Biso   1.000  C
  H67      1.0000 0.93260  0.49100  0.39440  Biso   1.000  H
  H68      1.0000 0.83290  0.51740  0.40310  Biso   1.000  H
  H69      1.0000 0.83580  0.45380  0.34380  Biso   1.000  H
  O33      1.0000 0.20060  0.61450  0.22693  Biso   1.000  O
  O34      1.0000 0.04350  0.61120  0.17920  Biso   1.000  O
  O35      1.0000 0.89380  0.75770  0.93860  Biso   1.000  O
  O36      1.0000 0.99360  0.81910  0.89390  Biso   1.000  O
  O37      1.0000 0.55050  0.86100  0.83750  Biso   1.000  O
  O38      1.0000 0.69250  0.79450  0.85920  Biso   1.000  O
  O39      1.0000 0.83300  0.67440  0.10230  Biso   1.000  O
  O40      1.0000 0.75480  0.65170  0.17300  Biso   1.000  O
  O41      1.0000 0.40850  0.63520  0.23855  Biso   1.000  O
  O42      1.0000 0.38460  0.53340  0.30420  Biso   1.000  O
  O43      1.0000 0.52330  0.27050  0.27930  Biso   1.000  O
  O44      1.0000 0.61540  0.25480  0.21010  Biso   1.000  O
  O45      1.0000 0.31860  0.57100  0.42650  Biso   1.000  O
  O46      1.0000 0.31800  0.78270  0.27590  Biso   1.000  O
  H70      1.0000 0.31930  0.77060  0.23320  Biso   1.000  H
  O47      1.0000 0.88200  0.50750  0.17980  Biso   1.000  O
  H71      1.0000 0.86510  0.49610  0.21730  Biso   1.000  H
  O48      1.0000 0.85790  0.56870  0.31280  Biso   1.000  O
  H72      1.0000 0.80030  0.56090  0.28510  Biso   1.000  H
  Dy7      1.0000 0.17641  0.15630  0.16881  Biso   1.000  Dy
  Dy8      1.0000 0.57739  0.13620  0.27104  Biso   1.000  Dy
  C94      1.0000 0.36540  0.17420  0.38620  Biso   1.000  C
  C95      1.0000 0.44720  0.20180  0.44260  Biso   1.000  C
  H73      1.0000 0.50870  0.19450  0.43800  Biso   1.000  H
  C96      1.0000 0.43880  0.23970  0.50470  Biso   1.000  C
  C97      1.0000 0.34640  0.25200  0.51000  Biso   1.000  C
  H74      1.0000 0.33920  0.27900  0.55030  Biso   1.000  H
  C98      1.0000 0.26480  0.22470  0.45610  Biso   1.000  C
  C99      1.0000 0.27280  0.18640  0.39380  Biso   1.000  C
  H75      1.0000 0.21750  0.16910  0.35750  Biso   1.000  H
  C100     1.0000 0.37290  0.12750  0.32380  Biso   1.000  C
  C101     1.0000 0.52190  0.27570  0.55990  Biso   1.000  C
  C102     1.0000 0.16840  0.23860  0.46330  Biso   1.000  C
  C103     1.0000 0.09140  0.24780  0.46940  Biso   1.000  C
  C104     1.0000 0.99570  0.24930  0.47720  Biso   1.000  C
  C105     1.0000 0.98390  0.28240  0.54180  Biso   1.000  C
  H76      1.0000 0.03670  0.30550  0.57670  Biso   1.000  H
  C106     1.0000 0.89430  0.28060  0.55320  Biso   1.000  C
  C107     1.0000 0.81370  0.24610  0.50580  Biso   1.000  C
  H77      1.0000 0.75450  0.24510  0.51520  Biso   1.000  H
  C108     1.0000 0.82510  0.21160  0.44080  Biso   1.000  C
  C109     1.0000 0.91530  0.21460  0.42950  Biso   1.000  C
  H78      1.0000 0.92140  0.19170  0.38700  Biso   1.000  H
  C110     1.0000 0.88210  0.31290  0.62130  Biso   1.000  C
  C111     1.0000 0.74410  0.17700  0.38560  Biso   1.000  C
  C112     1.0000 0.04380  0.00710  0.28880  Biso   1.000  C
  C113     1.0000 0.03690  0.02700  0.35820  Biso   1.000  C
  H79      1.0000 0.05710  0.07730  0.37760  Biso   1.000  H
  C114     1.0000 0.00080  0.97350  0.39830  Biso   1.000  C
  C115     1.0000 0.96790  0.89940  0.36810  Biso   1.000  C
  H80      1.0000 0.94150  0.86390  0.39400  Biso   1.000  H
  C116     1.0000 0.97360  0.87730  0.29910  Biso   1.000  C
  C117     1.0000 0.01040  0.93110  0.26070  Biso   1.000  C
  H81      1.0000 0.01330  0.91680  0.21470  Biso   1.000  H
  C118     1.0000 0.08230  0.06220  0.24280  Biso   1.000  C
  C119     1.0000 0.94710  0.79740  0.26630  Biso   1.000  C
  C120     1.0000 0.00000  0.99150  0.47070  Biso   1.000  C
  C121     1.0000 0.20320  0.05690  0.00750  Biso   1.000  C
  H82      1.0000 0.26940  0.03980  0.01860  Biso   1.000  H
  H83      1.0000 0.16090  0.01610  0.97980  Biso   1.000  H
  H84      1.0000 0.19400  0.10540  0.97940  Biso   1.000  H
  C122     1.0000 0.24320  0.35470  0.23850  Biso   1.000  C
  H85      1.0000 0.24730  0.37580  0.19310  Biso   1.000  H
  H86      1.0000 0.21510  0.39410  0.26230  Biso   1.000  H
  H87      1.0000 0.30700  0.34120  0.26960  Biso   1.000  H
  C123     1.0000 0.62790  0.94610  0.38170  Biso   1.000  C
  H88      1.0000 0.58860  0.96250  0.41130  Biso   1.000  H
  H89      1.0000 0.60670  0.89460  0.36060  Biso   1.000  H
  H90      1.0000 0.69460  0.94290  0.41150  Biso   1.000  H
  C124     1.0000 0.63450  0.00140  0.13120  Biso   1.000  C
  H91      1.0000 0.56740  0.99100  0.10560  Biso   1.000  H
  H92      1.0000 0.66710  0.01740  0.09690  Biso   1.000  H
  H93      1.0000 0.66420  0.95380  0.15620  Biso   1.000  H
  O49      1.0000 0.29940  0.11450  0.27307  Biso   1.000  O
  O50      1.0000 0.45650  0.11120  0.32080  Biso   1.000  O
  O51      1.0000 0.60620  0.25770  0.56140  Biso   1.000  O
  O52      1.0000 0.50640  0.31910  0.60610  Biso   1.000  O
  O53      1.0000 0.94950  0.36100  0.66250  Biso   1.000  O
  O54      1.0000 0.80750  0.29450  0.64080  Biso   1.000  O
  O55      1.0000 0.66700  0.17440  0.39770  Biso   1.000  O
  O56      1.0000 0.74520  0.15170  0.32700  Biso   1.000  O
  O57      1.0000 0.09150  0.13520  0.26145  Biso   1.000  O
  O58      1.0000 0.11540  0.03340  0.19580  Biso   1.000  O
  O59      1.0000 0.97670  0.77050  0.22070  Biso   1.000  O
  O60      1.0000 0.88460  0.75480  0.28990  Biso   1.000  O
  O61      1.0000 0.18140  0.07100  0.07350  Biso   1.000  O
  O62      1.0000 0.18200  0.28270  0.22410  Biso   1.000  O
  H94      1.0000 0.18070  0.27060  0.26680  Biso   1.000  H
  O63      1.0000 0.61800  0.00750  0.32020  Biso   1.000  O
  H95      1.0000 0.63490  0.99610  0.28270  Biso   1.000  H
  O64      1.0000 0.64210  0.06870  0.18720  Biso   1.000  O
  H96      1.0000 0.69970  0.06090  0.21490  Biso   1.000  H
