data_image0
_cell_length_a       9.5736
_cell_length_b       13.8317
_cell_length_c       15.3442
_cell_angle_alpha    90
_cell_angle_beta     93.436
_cell_angle_gamma    90

_symmetry_space_group_name_H-M    P 1
_symmetry_int_tables_number       1

loop_
  _symmetry_equiv_pos_as_xyz
  'x, y, z'

loop_
  _atom_site_label
  _atom_site_occupancy
  _atom_site_fract_x
  _atom_site_fract_y
  _atom_site_fract_z
  _atom_site_thermal_displace_type
  _atom_site_B_iso_or_equiv
  _atom_site_type_symbol
  Ho1      1.0000 0.54270  0.38866  0.91439  Biso   1.000  Ho
  Ho2      1.0000 0.95730  0.88866  0.58561  Biso   1.000  Ho
  Ho3      1.0000 0.45730  0.61134  0.08561  Biso   1.000  Ho
  Ho4      1.0000 0.04270  0.11134  0.41439  Biso   1.000  Ho
  H1       1.0000 0.23590  0.68850  0.81240  Biso   1.000  H
  H2       1.0000 0.16980  0.60690  0.75210  Biso   1.000  H
  H3       1.0000 0.16420  0.61110  0.93500  Biso   1.000  H
  H4       1.0000 0.05080  0.46280  0.82650  Biso   1.000  H
  H5       1.0000 0.05200  0.46280  0.92880  Biso   1.000  H
  H6       1.0000 0.90910  0.59770  0.92560  Biso   1.000  H
  H7       1.0000 0.89520  0.59090  0.74280  Biso   1.000  H
  H8       1.0000 0.81010  0.66290  0.79830  Biso   1.000  H
  H9       1.0000 0.01430  0.73530  0.85380  Biso   1.000  H
  H10      1.0000 0.50270  0.18240  0.01910  Biso   1.000  H
  H11      1.0000 0.85210  0.16110  0.03370  Biso   1.000  H
  H12      1.0000 0.84950  0.10790  0.12380  Biso   1.000  H
  H13      1.0000 0.84330  0.04800  0.03700  Biso   1.000  H
  H14      1.0000 0.49670  0.04400  0.09730  Biso   1.000  H
  H15      1.0000 0.61820  0.97340  0.07620  Biso   1.000  H
  H16      1.0000 0.62680  0.03250  0.16350  Biso   1.000  H
  H17      1.0000 0.26410  0.18850  0.68760  Biso   1.000  H
  H18      1.0000 0.33020  0.10690  0.74790  Biso   1.000  H
  H19      1.0000 0.33580  0.11110  0.56500  Biso   1.000  H
  H20      1.0000 0.44920  0.96280  0.67350  Biso   1.000  H
  H21      1.0000 0.44800  0.96280  0.57120  Biso   1.000  H
  H22      1.0000 0.59090  0.09770  0.57440  Biso   1.000  H
  H23      1.0000 0.60480  0.09090  0.75720  Biso   1.000  H
  H24      1.0000 0.68990  0.16290  0.70170  Biso   1.000  H
  H25      1.0000 0.48570  0.23530  0.64620  Biso   1.000  H
  H26      1.0000 0.99730  0.68240  0.48090  Biso   1.000  H
  H27      1.0000 0.64790  0.66110  0.46630  Biso   1.000  H
  H28      1.0000 0.65050  0.60790  0.37620  Biso   1.000  H
  H29      1.0000 0.65670  0.54800  0.46300  Biso   1.000  H
  H30      1.0000 0.00330  0.54400  0.40270  Biso   1.000  H
  H31      1.0000 0.88180  0.47340  0.42380  Biso   1.000  H
  H32      1.0000 0.87320  0.53250  0.33650  Biso   1.000  H
  H33      1.0000 0.76410  0.31150  0.18760  Biso   1.000  H
  H34      1.0000 0.83020  0.39310  0.24790  Biso   1.000  H
  H35      1.0000 0.83580  0.38890  0.06500  Biso   1.000  H
  H36      1.0000 0.94920  0.53720  0.17350  Biso   1.000  H
  H37      1.0000 0.94800  0.53720  0.07120  Biso   1.000  H
  H38      1.0000 0.09090  0.40230  0.07440  Biso   1.000  H
  H39      1.0000 0.10480  0.40910  0.25720  Biso   1.000  H
  H40      1.0000 0.18990  0.33710  0.20170  Biso   1.000  H
  H41      1.0000 0.98570  0.26470  0.14620  Biso   1.000  H
  H42      1.0000 0.49730  0.81760  0.98090  Biso   1.000  H
  H43      1.0000 0.14790  0.83890  0.96630  Biso   1.000  H
  H44      1.0000 0.15050  0.89210  0.87620  Biso   1.000  H
  H45      1.0000 0.15670  0.95200  0.96300  Biso   1.000  H
  H46      1.0000 0.50330  0.95600  0.90270  Biso   1.000  H
  H47      1.0000 0.38180  0.02660  0.92380  Biso   1.000  H
  H48      1.0000 0.37320  0.96750  0.83650  Biso   1.000  H
  H49      1.0000 0.73590  0.81150  0.31240  Biso   1.000  H
  H50      1.0000 0.66980  0.89310  0.25210  Biso   1.000  H
  H51      1.0000 0.66420  0.88890  0.43500  Biso   1.000  H
  H52      1.0000 0.55080  0.03720  0.32650  Biso   1.000  H
  H53      1.0000 0.55200  0.03720  0.42880  Biso   1.000  H
  H54      1.0000 0.40910  0.90230  0.42560  Biso   1.000  H
  H55      1.0000 0.39520  0.90910  0.24280  Biso   1.000  H
  H56      1.0000 0.31010  0.83710  0.29830  Biso   1.000  H
  H57      1.0000 0.51430  0.76470  0.35380  Biso   1.000  H
  H58      1.0000 0.00270  0.31760  0.51910  Biso   1.000  H
  H59      1.0000 0.35210  0.33890  0.53370  Biso   1.000  H
  H60      1.0000 0.34950  0.39210  0.62380  Biso   1.000  H
  H61      1.0000 0.34330  0.45200  0.53700  Biso   1.000  H
  H62      1.0000 0.99670  0.45600  0.59730  Biso   1.000  H
  H63      1.0000 0.11820  0.52660  0.57620  Biso   1.000  H
  H64      1.0000 0.12680  0.46750  0.66350  Biso   1.000  H
  C1       1.0000 0.15980  0.64230  0.80590  Biso   1.000  C
  C2       1.0000 0.16910  0.57290  0.88150  Biso   1.000  C
  C3       1.0000 0.04630  0.50390  0.87750  Biso   1.000  C
  C4       1.0000 0.90790  0.55750  0.87290  Biso   1.000  C
  C5       1.0000 0.89700  0.62700  0.79710  Biso   1.000  C
  C6       1.0000 0.01880  0.69710  0.80030  Biso   1.000  C
  C7       1.0000 0.30680  0.51840  0.88800  Biso   1.000  C
  C8       1.0000 0.78110  0.49140  0.87750  Biso   1.000  C
  C9       1.0000 0.00320  0.76530  0.72480  Biso   1.000  C
  C10      1.0000 0.59980  0.18420  0.01990  Biso   1.000  C
  C11      1.0000 0.81490  0.10690  0.06380  Biso   1.000  C
  C12      1.0000 0.59600  0.03380  0.10280  Biso   1.000  C
  C13      1.0000 0.34020  0.14230  0.69410  Biso   1.000  C
  C14      1.0000 0.33090  0.07290  0.61850  Biso   1.000  C
  C15      1.0000 0.45370  0.00390  0.62250  Biso   1.000  C
  C16      1.0000 0.59210  0.05750  0.62710  Biso   1.000  C
  C17      1.0000 0.60300  0.12700  0.70290  Biso   1.000  C
  C18      1.0000 0.48120  0.19710  0.69970  Biso   1.000  C
  C19      1.0000 0.19320  0.01840  0.61200  Biso   1.000  C
  C20      1.0000 0.71890  0.99140  0.62250  Biso   1.000  C
  C21      1.0000 0.49680  0.26530  0.77520  Biso   1.000  C
  C22      1.0000 0.90020  0.68420  0.48010  Biso   1.000  C
  C23      1.0000 0.68510  0.60690  0.43620  Biso   1.000  C
  C24      1.0000 0.90400  0.53380  0.39720  Biso   1.000  C
  C25      1.0000 0.84020  0.35770  0.19410  Biso   1.000  C
  C26      1.0000 0.83090  0.42710  0.11850  Biso   1.000  C
  C27      1.0000 0.95370  0.49610  0.12250  Biso   1.000  C
  C28      1.0000 0.09210  0.44250  0.12710  Biso   1.000  C
  C29      1.0000 0.10300  0.37300  0.20290  Biso   1.000  C
  C30      1.0000 0.98120  0.30290  0.19970  Biso   1.000  C
  C31      1.0000 0.69320  0.48160  0.11200  Biso   1.000  C
  C32      1.0000 0.21890  0.50860  0.12250  Biso   1.000  C
  C33      1.0000 0.99680  0.23470  0.27520  Biso   1.000  C
  C34      1.0000 0.40020  0.81580  0.98010  Biso   1.000  C
  C35      1.0000 0.18510  0.89310  0.93620  Biso   1.000  C
  C36      1.0000 0.40400  0.96620  0.89720  Biso   1.000  C
  C37      1.0000 0.65980  0.85770  0.30590  Biso   1.000  C
  C38      1.0000 0.66910  0.92710  0.38150  Biso   1.000  C
  C39      1.0000 0.54630  0.99610  0.37750  Biso   1.000  C
  C40      1.0000 0.40790  0.94250  0.37290  Biso   1.000  C
  C41      1.0000 0.39700  0.87300  0.29710  Biso   1.000  C
  C42      1.0000 0.51880  0.80290  0.30030  Biso   1.000  C
  C43      1.0000 0.80680  0.98160  0.38800  Biso   1.000  C
  C44      1.0000 0.28110  0.00860  0.37750  Biso   1.000  C
  C45      1.0000 0.50320  0.73470  0.22480  Biso   1.000  C
  C46      1.0000 0.09980  0.31580  0.51990  Biso   1.000  C
  C47      1.0000 0.31490  0.39310  0.56380  Biso   1.000  C
  C48      1.0000 0.09600  0.46620  0.60280  Biso   1.000  C
  N1       1.0000 0.66660  0.11250  0.05930  Biso   1.000  N
  N2       1.0000 0.83340  0.61250  0.44070  Biso   1.000  N
  N3       1.0000 0.33340  0.88750  0.94070  Biso   1.000  N
  N4       1.0000 0.16660  0.38750  0.55930  Biso   1.000  N
  O1       1.0000 0.39440  0.53720  0.95150  Biso   1.000  O
  O2       1.0000 0.37150  0.33470  0.01060  Biso   1.000  O
  O3       1.0000 0.33450  0.45510  0.83510  Biso   1.000  O
  O4       1.0000 0.66000  0.53020  0.86520  Biso   1.000  O
  O5       1.0000 0.79440  0.40530  0.89890  Biso   1.000  O
  O6       1.0000 0.92170  0.83670  0.73040  Biso   1.000  O
  O7       1.0000 0.06510  0.75110  0.65720  Biso   1.000  O
  O8       1.0000 0.65060  0.25220  0.98450  Biso   1.000  O
  O9       1.0000 0.10560  0.03720  0.54850  Biso   1.000  O
  O10      1.0000 0.12850  0.83470  0.48940  Biso   1.000  O
  O11      1.0000 0.16550  0.95510  0.66490  Biso   1.000  O
  O12      1.0000 0.84000  0.03020  0.63480  Biso   1.000  O
  O13      1.0000 0.70560  0.90530  0.60110  Biso   1.000  O
  O14      1.0000 0.57830  0.33670  0.76960  Biso   1.000  O
  O15      1.0000 0.43490  0.25110  0.84280  Biso   1.000  O
  O16      1.0000 0.84940  0.75220  0.51550  Biso   1.000  O
  O17      1.0000 0.60560  0.46280  0.04850  Biso   1.000  O
  O18      1.0000 0.62850  0.66530  0.98940  Biso   1.000  O
  O19      1.0000 0.66550  0.54490  0.16490  Biso   1.000  O
  O20      1.0000 0.34000  0.46980  0.13480  Biso   1.000  O
  O21      1.0000 0.20560  0.59470  0.10110  Biso   1.000  O
  O22      1.0000 0.07830  0.16330  0.26960  Biso   1.000  O
  O23      1.0000 0.93490  0.24890  0.34280  Biso   1.000  O
  O24      1.0000 0.34940  0.74780  0.01550  Biso   1.000  O
  O25      1.0000 0.89440  0.96280  0.45150  Biso   1.000  O
  O26      1.0000 0.87150  0.16530  0.51060  Biso   1.000  O
  O27      1.0000 0.83450  0.04490  0.33510  Biso   1.000  O
  O28      1.0000 0.16000  0.96980  0.36520  Biso   1.000  O
  O29      1.0000 0.29440  0.09470  0.39890  Biso   1.000  O
  O30      1.0000 0.42170  0.66330  0.23040  Biso   1.000  O
  O31      1.0000 0.56510  0.74890  0.15720  Biso   1.000  O
  O32      1.0000 0.15060  0.24780  0.48450  Biso   1.000  O
