data_image0
_cell_length_a       9.621
_cell_length_b       13.908
_cell_length_c       15.337
_cell_angle_alpha    90
_cell_angle_beta     93.425
_cell_angle_gamma    90

_symmetry_space_group_name_H-M    P 1
_symmetry_int_tables_number       1

loop_
  _symmetry_equiv_pos_as_xyz
  'x, y, z'

loop_
  _atom_site_label
  _atom_site_occupancy
  _atom_site_fract_x
  _atom_site_fract_y
  _atom_site_fract_z
  _atom_site_thermal_displace_type
  _atom_site_B_iso_or_equiv
  _atom_site_type_symbol
  Tb1      1.0000 0.04234  0.11147  0.91414  Biso   1.000  Tb
  Tb2      1.0000 0.45766  0.61147  0.58586  Biso   1.000  Tb
  Tb3      1.0000 0.95766  0.88853  0.08586  Biso   1.000  Tb
  Tb4      1.0000 0.54234  0.38853  0.41414  Biso   1.000  Tb
  H1       1.0000 0.66740  0.89230  0.75180  Biso   1.000  H
  H2       1.0000 0.73460  0.81140  0.81180  Biso   1.000  H
  H3       1.0000 0.66610  0.88810  0.93400  Biso   1.000  H
  H4       1.0000 0.55240  0.03630  0.92850  Biso   1.000  H
  H5       1.0000 0.55080  0.03710  0.82610  Biso   1.000  H
  H6       1.0000 0.40770  0.90330  0.92530  Biso   1.000  H
  H7       1.0000 0.30990  0.83550  0.79770  Biso   1.000  H
  H8       1.0000 0.39430  0.90650  0.74120  Biso   1.000  H
  H9       1.0000 0.51420  0.76470  0.85500  Biso   1.000  H
  H10      1.0000 0.00310  0.33050  0.01530  Biso   1.000  H
  H11      1.0000 0.99350  0.45590  0.08820  Biso   1.000  H
  H12      1.0000 0.11860  0.47970  0.15490  Biso   1.000  H
  H13      1.0000 0.11050  0.52680  0.06190  Biso   1.000  H
  H14      1.0000 0.35160  0.34020  0.03920  Biso   1.000  H
  H15      1.0000 0.33930  0.45220  0.03000  Biso   1.000  H
  H16      1.0000 0.34950  0.40480  0.12290  Biso   1.000  H
  H17      1.0000 0.83260  0.39230  0.74820  Biso   1.000  H
  H18      1.0000 0.76540  0.31140  0.68820  Biso   1.000  H
  H19      1.0000 0.83390  0.38810  0.56600  Biso   1.000  H
  H20      1.0000 0.94760  0.53630  0.57150  Biso   1.000  H
  H21      1.0000 0.94920  0.53710  0.67390  Biso   1.000  H
  H22      1.0000 0.09230  0.40330  0.57470  Biso   1.000  H
  H23      1.0000 0.19010  0.33550  0.70230  Biso   1.000  H
  H24      1.0000 0.10570  0.40650  0.75880  Biso   1.000  H
  H25      1.0000 0.98580  0.26470  0.64500  Biso   1.000  H
  H26      1.0000 0.49690  0.83050  0.48470  Biso   1.000  H
  H27      1.0000 0.50650  0.95590  0.41180  Biso   1.000  H
  H28      1.0000 0.38140  0.97970  0.34510  Biso   1.000  H
  H29      1.0000 0.38950  0.02680  0.43810  Biso   1.000  H
  H30      1.0000 0.14840  0.84020  0.46080  Biso   1.000  H
  H31      1.0000 0.16070  0.95220  0.47000  Biso   1.000  H
  H32      1.0000 0.15050  0.90480  0.37710  Biso   1.000  H
  H33      1.0000 0.33260  0.10770  0.24820  Biso   1.000  H
  H34      1.0000 0.26540  0.18860  0.18820  Biso   1.000  H
  H35      1.0000 0.33390  0.11190  0.06600  Biso   1.000  H
  H36      1.0000 0.44760  0.96370  0.07150  Biso   1.000  H
  H37      1.0000 0.44920  0.96290  0.17390  Biso   1.000  H
  H38      1.0000 0.59230  0.09670  0.07470  Biso   1.000  H
  H39      1.0000 0.69010  0.16450  0.20230  Biso   1.000  H
  H40      1.0000 0.60570  0.09350  0.25880  Biso   1.000  H
  H41      1.0000 0.48580  0.23530  0.14500  Biso   1.000  H
  H42      1.0000 0.99690  0.66950  0.98470  Biso   1.000  H
  H43      1.0000 0.00650  0.54410  0.91180  Biso   1.000  H
  H44      1.0000 0.88140  0.52030  0.84510  Biso   1.000  H
  H45      1.0000 0.88950  0.47320  0.93810  Biso   1.000  H
  H46      1.0000 0.64840  0.65980  0.96080  Biso   1.000  H
  H47      1.0000 0.66070  0.54780  0.97000  Biso   1.000  H
  H48      1.0000 0.65050  0.59520  0.87710  Biso   1.000  H
  H49      1.0000 0.16740  0.60770  0.25180  Biso   1.000  H
  H50      1.0000 0.23460  0.68860  0.31180  Biso   1.000  H
  H51      1.0000 0.16610  0.61190  0.43400  Biso   1.000  H
  H52      1.0000 0.05240  0.46370  0.42850  Biso   1.000  H
  H53      1.0000 0.05080  0.46290  0.32610  Biso   1.000  H
  H54      1.0000 0.90770  0.59670  0.42530  Biso   1.000  H
  H55      1.0000 0.80990  0.66450  0.29770  Biso   1.000  H
  H56      1.0000 0.89430  0.59350  0.24120  Biso   1.000  H
  H57      1.0000 0.01420  0.73530  0.35500  Biso   1.000  H
  H58      1.0000 0.50310  0.16950  0.51530  Biso   1.000  H
  H59      1.0000 0.49350  0.04410  0.58820  Biso   1.000  H
  H60      1.0000 0.61860  0.02030  0.65490  Biso   1.000  H
  H61      1.0000 0.61050  0.97320  0.56190  Biso   1.000  H
  H62      1.0000 0.85160  0.15980  0.53920  Biso   1.000  H
  H63      1.0000 0.83930  0.04780  0.53000  Biso   1.000  H
  H64      1.0000 0.84950  0.09520  0.62290  Biso   1.000  H
  C1       1.0000 0.65870  0.85730  0.80590  Biso   1.000  C
  C2       1.0000 0.67030  0.92590  0.88030  Biso   1.000  C
  C3       1.0000 0.54630  0.99580  0.87690  Biso   1.000  C
  C4       1.0000 0.40730  0.94250  0.87220  Biso   1.000  C
  C5       1.0000 0.39600  0.87160  0.79600  Biso   1.000  C
  C6       1.0000 0.51880  0.80280  0.80150  Biso   1.000  C
  C7       1.0000 0.28220  0.00940  0.87610  Biso   1.000  C
  C8       1.0000 0.80780  0.98200  0.88680  Biso   1.000  C
  C9       1.0000 0.50470  0.73580  0.72510  Biso   1.000  C
  C10      1.0000 0.09900  0.32390  0.02020  Biso   1.000  C
  C11      1.0000 0.09100  0.46980  0.09430  Biso   1.000  C
  C12      1.0000 0.31400  0.39740  0.06350  Biso   1.000  C
  C13      1.0000 0.84130  0.35730  0.69410  Biso   1.000  C
  C14      1.0000 0.82970  0.42590  0.61970  Biso   1.000  C
  C15      1.0000 0.95370  0.49580  0.62310  Biso   1.000  C
  C16      1.0000 0.09270  0.44250  0.62780  Biso   1.000  C
  C17      1.0000 0.10400  0.37160  0.70400  Biso   1.000  C
  C18      1.0000 0.98120  0.30280  0.69850  Biso   1.000  C
  C19      1.0000 0.21780  0.50940  0.62390  Biso   1.000  C
  C20      1.0000 0.69220  0.48200  0.61320  Biso   1.000  C
  C21      1.0000 0.99530  0.23580  0.77490  Biso   1.000  C
  C22      1.0000 0.40100  0.82390  0.47980  Biso   1.000  C
  C23      1.0000 0.40900  0.96980  0.40570  Biso   1.000  C
  C24      1.0000 0.18600  0.89740  0.43650  Biso   1.000  C
  C25      1.0000 0.34130  0.14270  0.19410  Biso   1.000  C
  C26      1.0000 0.32970  0.07410  0.11970  Biso   1.000  C
  C27      1.0000 0.45370  0.00420  0.12310  Biso   1.000  C
  C28      1.0000 0.59270  0.05750  0.12780  Biso   1.000  C
  C29      1.0000 0.60400  0.12840  0.20400  Biso   1.000  C
  C30      1.0000 0.48120  0.19720  0.19850  Biso   1.000  C
  C31      1.0000 0.71780  0.99060  0.12390  Biso   1.000  C
  C32      1.0000 0.19220  0.01800  0.11320  Biso   1.000  C
  C33      1.0000 0.49530  0.26420  0.27490  Biso   1.000  C
  C34      1.0000 0.90100  0.67610  0.97980  Biso   1.000  C
  C35      1.0000 0.90900  0.53020  0.90570  Biso   1.000  C
  C36      1.0000 0.68600  0.60260  0.93650  Biso   1.000  C
  C37      1.0000 0.15870  0.64270  0.30590  Biso   1.000  C
  C38      1.0000 0.17030  0.57410  0.38030  Biso   1.000  C
  C39      1.0000 0.04630  0.50420  0.37690  Biso   1.000  C
  C40      1.0000 0.90730  0.55750  0.37220  Biso   1.000  C
  C41      1.0000 0.89600  0.62840  0.29600  Biso   1.000  C
  C42      1.0000 0.01880  0.69720  0.30150  Biso   1.000  C
  C43      1.0000 0.78220  0.49060  0.37610  Biso   1.000  C
  C44      1.0000 0.30780  0.51800  0.38680  Biso   1.000  C
  C45      1.0000 0.00470  0.76420  0.22510  Biso   1.000  C
  C46      1.0000 0.59900  0.17610  0.52020  Biso   1.000  C
  C47      1.0000 0.59100  0.03020  0.59430  Biso   1.000  C
  C48      1.0000 0.81400  0.10260  0.56350  Biso   1.000  C
  N1       1.0000 0.16900  0.39010  0.06130  Biso   1.000  N
  N2       1.0000 0.33100  0.89010  0.43870  Biso   1.000  N
  N3       1.0000 0.83100  0.60990  0.93870  Biso   1.000  N
  N4       1.0000 0.66900  0.10990  0.56130  Biso   1.000  N
  O1       1.0000 0.16180  0.97020  0.86360  Biso   1.000  O
  O2       1.0000 0.87070  0.16890  0.01160  Biso   1.000  O
  O3       1.0000 0.29350  0.09550  0.89680  Biso   1.000  O
  O4       1.0000 0.83240  0.04560  0.83330  Biso   1.000  O
  O5       1.0000 0.89360  0.96290  0.94970  Biso   1.000  O
  O6       1.0000 0.42480  0.66530  0.73190  Biso   1.000  O
  O7       1.0000 0.56710  0.74950  0.65630  Biso   1.000  O
  O8       1.0000 0.14950  0.25160  0.98600  Biso   1.000  O
  O9       1.0000 0.33820  0.47020  0.63640  Biso   1.000  O
  O10      1.0000 0.62930  0.66890  0.48840  Biso   1.000  O
  O11      1.0000 0.20650  0.59550  0.60320  Biso   1.000  O
  O12      1.0000 0.66760  0.54560  0.66670  Biso   1.000  O
  O13      1.0000 0.60640  0.46290  0.55030  Biso   1.000  O
  O14      1.0000 0.07520  0.16530  0.76810  Biso   1.000  O
  O15      1.0000 0.93290  0.24950  0.84370  Biso   1.000  O
  O16      1.0000 0.35050  0.75160  0.51400  Biso   1.000  O
  O17      1.0000 0.83820  0.02980  0.13640  Biso   1.000  O
  O18      1.0000 0.12930  0.83110  0.98840  Biso   1.000  O
  O19      1.0000 0.70650  0.90450  0.10320  Biso   1.000  O
  O20      1.0000 0.16760  0.95440  0.16670  Biso   1.000  O
  O21      1.0000 0.10640  0.03710  0.05030  Biso   1.000  O
  O22      1.0000 0.57520  0.33470  0.26810  Biso   1.000  O
  O23      1.0000 0.43290  0.25050  0.34370  Biso   1.000  O
  O24      1.0000 0.85050  0.74840  0.01400  Biso   1.000  O
  O25      1.0000 0.66180  0.52980  0.36360  Biso   1.000  O
  O26      1.0000 0.37070  0.33110  0.51160  Biso   1.000  O
  O27      1.0000 0.79350  0.40450  0.39680  Biso   1.000  O
  O28      1.0000 0.33240  0.45440  0.33330  Biso   1.000  O
  O29      1.0000 0.39360  0.53710  0.44970  Biso   1.000  O
  O30      1.0000 0.92480  0.83470  0.23190  Biso   1.000  O
  O31      1.0000 0.06710  0.75050  0.15630  Biso   1.000  O
  O32      1.0000 0.64950  0.24840  0.48600  Biso   1.000  O
