data_image0
_cell_length_a       9.5983
_cell_length_b       13.8789
_cell_length_c       15.3443
_cell_angle_alpha    90
_cell_angle_beta     93.451
_cell_angle_gamma    90

_symmetry_space_group_name_H-M    P 1
_symmetry_int_tables_number       1

loop_
  _symmetry_equiv_pos_as_xyz
  'x, y, z'

loop_
  _atom_site_label
  _atom_site_occupancy
  _atom_site_fract_x
  _atom_site_fract_y
  _atom_site_fract_z
  _atom_site_thermal_displace_type
  _atom_site_B_iso_or_equiv
  _atom_site_type_symbol
  Dy1      1.0000 0.04247  0.88872  0.91421  Biso   1.000  Dy
  Dy2      1.0000 0.45753  0.38872  0.58579  Biso   1.000  Dy
  Dy3      1.0000 0.95753  0.11128  0.08579  Biso   1.000  Dy
  Dy4      1.0000 0.54247  0.61128  0.41421  Biso   1.000  Dy
  H1       1.0000 0.39550  0.09110  0.74310  Biso   1.000  H
  H2       1.0000 0.31030  0.16220  0.79900  Biso   1.000  H
  H3       1.0000 0.51540  0.23520  0.85530  Biso   1.000  H
  H4       1.0000 0.73580  0.18820  0.81220  Biso   1.000  H
  H5       1.0000 0.66830  0.10710  0.75200  Biso   1.000  H
  H6       1.0000 0.66270  0.11040  0.93630  Biso   1.000  H
  H7       1.0000 0.55210  0.96340  0.82580  Biso   1.000  H
  H8       1.0000 0.55220  0.96180  0.92810  Biso   1.000  H
  H9       1.0000 0.40940  0.09660  0.92550  Biso   1.000  H
  H10      1.0000 0.00310  0.68290  0.01820  Biso   1.000  H
  H11      1.0000 0.99600  0.54220  0.09530  Biso   1.000  H
  H12      1.0000 0.12130  0.47370  0.07820  Biso   1.000  H
  H13      1.0000 0.12300  0.53480  0.16420  Biso   1.000  H
  H14      1.0000 0.35020  0.66190  0.03650  Biso   1.000  H
  H15      1.0000 0.34550  0.61000  0.12700  Biso   1.000  H
  H16      1.0000 0.34390  0.54920  0.04080  Biso   1.000  H
  H17      1.0000 0.10450  0.59110  0.75690  Biso   1.000  H
  H18      1.0000 0.18970  0.66220  0.70100  Biso   1.000  H
  H19      1.0000 0.98460  0.73520  0.64470  Biso   1.000  H
  H20      1.0000 0.76420  0.68820  0.68780  Biso   1.000  H
  H21      1.0000 0.83170  0.60710  0.74800  Biso   1.000  H
  H22      1.0000 0.83730  0.61040  0.56370  Biso   1.000  H
  H23      1.0000 0.94790  0.46340  0.67420  Biso   1.000  H
  H24      1.0000 0.94780  0.46180  0.57190  Biso   1.000  H
  H25      1.0000 0.09060  0.59660  0.57450  Biso   1.000  H
  H26      1.0000 0.49690  0.18290  0.48180  Biso   1.000  H
  H27      1.0000 0.50400  0.04220  0.40470  Biso   1.000  H
  H28      1.0000 0.37870  0.97370  0.42180  Biso   1.000  H
  H29      1.0000 0.37700  0.03480  0.33580  Biso   1.000  H
  H30      1.0000 0.14980  0.16190  0.46350  Biso   1.000  H
  H31      1.0000 0.15450  0.11000  0.37300  Biso   1.000  H
  H32      1.0000 0.15610  0.04920  0.45920  Biso   1.000  H
  H33      1.0000 0.60450  0.90890  0.25690  Biso   1.000  H
  H34      1.0000 0.68970  0.83780  0.20100  Biso   1.000  H
  H35      1.0000 0.48460  0.76480  0.14470  Biso   1.000  H
  H36      1.0000 0.26420  0.81180  0.18780  Biso   1.000  H
  H37      1.0000 0.33170  0.89290  0.24800  Biso   1.000  H
  H38      1.0000 0.33730  0.88960  0.06370  Biso   1.000  H
  H39      1.0000 0.44790  0.03660  0.17420  Biso   1.000  H
  H40      1.0000 0.44780  0.03820  0.07190  Biso   1.000  H
  H41      1.0000 0.59060  0.90340  0.07450  Biso   1.000  H
  H42      1.0000 0.99690  0.31710  0.98180  Biso   1.000  H
  H43      1.0000 0.00400  0.45780  0.90470  Biso   1.000  H
  H44      1.0000 0.87870  0.52630  0.92180  Biso   1.000  H
  H45      1.0000 0.87700  0.46520  0.83580  Biso   1.000  H
  H46      1.0000 0.64980  0.33810  0.96350  Biso   1.000  H
  H47      1.0000 0.65450  0.39000  0.87300  Biso   1.000  H
  H48      1.0000 0.65610  0.45080  0.95920  Biso   1.000  H
  H49      1.0000 0.89550  0.40890  0.24310  Biso   1.000  H
  H50      1.0000 0.81030  0.33780  0.29900  Biso   1.000  H
  H51      1.0000 0.01540  0.26480  0.35530  Biso   1.000  H
  H52      1.0000 0.23580  0.31180  0.31220  Biso   1.000  H
  H53      1.0000 0.16830  0.39290  0.25200  Biso   1.000  H
  H54      1.0000 0.16270  0.38960  0.43630  Biso   1.000  H
  H55      1.0000 0.05210  0.53660  0.32580  Biso   1.000  H
  H56      1.0000 0.05220  0.53820  0.42810  Biso   1.000  H
  H57      1.0000 0.90940  0.40340  0.42550  Biso   1.000  H
  H58      1.0000 0.50310  0.81710  0.51820  Biso   1.000  H
  H59      1.0000 0.49600  0.95780  0.59530  Biso   1.000  H
  H60      1.0000 0.62130  0.02630  0.57820  Biso   1.000  H
  H61      1.0000 0.62300  0.96520  0.66420  Biso   1.000  H
  H62      1.0000 0.85020  0.83810  0.53650  Biso   1.000  H
  H63      1.0000 0.84550  0.89000  0.62700  Biso   1.000  H
  H64      1.0000 0.84390  0.95080  0.54080  Biso   1.000  H
  C1       1.0000 0.39700  0.12650  0.79760  Biso   1.000  C
  C2       1.0000 0.51960  0.19710  0.80180  Biso   1.000  C
  C3       1.0000 0.65940  0.14250  0.80600  Biso   1.000  C
  C4       1.0000 0.66810  0.07270  0.88260  Biso   1.000  C
  C5       1.0000 0.54670  0.00350  0.87720  Biso   1.000  C
  C6       1.0000 0.40790  0.05680  0.87270  Biso   1.000  C
  C7       1.0000 0.28090  0.99110  0.87770  Biso   1.000  C
  C8       1.0000 0.50370  0.26540  0.72440  Biso   1.000  C
  C9       1.0000 0.80590  0.01870  0.88820  Biso   1.000  C
  C10      1.0000 0.10010  0.68410  0.01960  Biso   1.000  C
  C11      1.0000 0.09500  0.53410  0.10300  Biso   1.000  C
  C12      1.0000 0.31300  0.60790  0.06660  Biso   1.000  C
  C13      1.0000 0.10300  0.62650  0.70240  Biso   1.000  C
  C14      1.0000 0.98040  0.69710  0.69820  Biso   1.000  C
  C15      1.0000 0.84060  0.64250  0.69400  Biso   1.000  C
  C16      1.0000 0.83190  0.57270  0.61740  Biso   1.000  C
  C17      1.0000 0.95330  0.50350  0.62280  Biso   1.000  C
  C18      1.0000 0.09210  0.55680  0.62730  Biso   1.000  C
  C19      1.0000 0.21910  0.49110  0.62230  Biso   1.000  C
  C20      1.0000 0.99630  0.76540  0.77560  Biso   1.000  C
  C21      1.0000 0.69410  0.51870  0.61180  Biso   1.000  C
  C22      1.0000 0.39990  0.18410  0.48040  Biso   1.000  C
  C23      1.0000 0.40500  0.03410  0.39700  Biso   1.000  C
  C24      1.0000 0.18700  0.10790  0.43340  Biso   1.000  C
  C25      1.0000 0.60300  0.87350  0.20240  Biso   1.000  C
  C26      1.0000 0.48040  0.80290  0.19820  Biso   1.000  C
  C27      1.0000 0.34060  0.85750  0.19400  Biso   1.000  C
  C28      1.0000 0.33190  0.92730  0.11740  Biso   1.000  C
  C29      1.0000 0.45330  0.99650  0.12280  Biso   1.000  C
  C30      1.0000 0.59210  0.94320  0.12730  Biso   1.000  C
  C31      1.0000 0.71910  0.00890  0.12230  Biso   1.000  C
  C32      1.0000 0.49630  0.73460  0.27560  Biso   1.000  C
  C33      1.0000 0.19410  0.98130  0.11180  Biso   1.000  C
  C34      1.0000 0.89990  0.31590  0.98040  Biso   1.000  C
  C35      1.0000 0.90500  0.46590  0.89700  Biso   1.000  C
  C36      1.0000 0.68700  0.39210  0.93340  Biso   1.000  C
  C37      1.0000 0.89700  0.37350  0.29760  Biso   1.000  C
  C38      1.0000 0.01960  0.30290  0.30180  Biso   1.000  C
  C39      1.0000 0.15940  0.35750  0.30600  Biso   1.000  C
  C40      1.0000 0.16810  0.42730  0.38260  Biso   1.000  C
  C41      1.0000 0.04670  0.49650  0.37720  Biso   1.000  C
  C42      1.0000 0.90790  0.44320  0.37270  Biso   1.000  C
  C43      1.0000 0.78090  0.50890  0.37770  Biso   1.000  C
  C44      1.0000 0.00370  0.23460  0.22440  Biso   1.000  C
  C45      1.0000 0.30590  0.48130  0.38820  Biso   1.000  C
  C46      1.0000 0.60010  0.81590  0.51960  Biso   1.000  C
  C47      1.0000 0.59500  0.96590  0.60300  Biso   1.000  C
  C48      1.0000 0.81300  0.89210  0.56660  Biso   1.000  C
  N1       1.0000 0.16400  0.61180  0.05980  Biso   1.000  N
  N2       1.0000 0.33600  0.11180  0.44020  Biso   1.000  N
  N3       1.0000 0.83600  0.38820  0.94020  Biso   1.000  N
  N4       1.0000 0.66400  0.88820  0.55980  Biso   1.000  N
  O1       1.0000 0.29500  0.90550  0.89750  Biso   1.000  O
  O2       1.0000 0.87120  0.83370  0.01080  Biso   1.000  O
  O3       1.0000 0.16090  0.02980  0.86470  Biso   1.000  O
  O4       1.0000 0.89380  0.03750  0.95070  Biso   1.000  O
  O5       1.0000 0.83260  0.95560  0.83480  Biso   1.000  O
  O6       1.0000 0.42290  0.33620  0.73240  Biso   1.000  O
  O7       1.0000 0.56610  0.25210  0.65780  Biso   1.000  O
  O8       1.0000 0.15040  0.75150  0.98450  Biso   1.000  O
  O9       1.0000 0.20500  0.40550  0.60250  Biso   1.000  O
  O10      1.0000 0.62880  0.33370  0.48920  Biso   1.000  O
  O11      1.0000 0.33910  0.52980  0.63530  Biso   1.000  O
  O12      1.0000 0.60620  0.53750  0.54930  Biso   1.000  O
  O13      1.0000 0.66740  0.45560  0.66520  Biso   1.000  O
  O14      1.0000 0.07710  0.83620  0.76760  Biso   1.000  O
  O15      1.0000 0.93390  0.75210  0.84220  Biso   1.000  O
  O16      1.0000 0.34960  0.25150  0.51550  Biso   1.000  O
  O17      1.0000 0.70500  0.09450  0.10250  Biso   1.000  O
  O18      1.0000 0.12880  0.16630  0.98920  Biso   1.000  O
  O19      1.0000 0.83910  0.97020  0.13530  Biso   1.000  O
  O20      1.0000 0.10620  0.96250  0.04930  Biso   1.000  O
  O21      1.0000 0.16740  0.04440  0.16520  Biso   1.000  O
  O22      1.0000 0.57710  0.66380  0.26760  Biso   1.000  O
  O23      1.0000 0.43390  0.74790  0.34220  Biso   1.000  O
  O24      1.0000 0.84960  0.24850  0.01550  Biso   1.000  O
  O25      1.0000 0.79500  0.59450  0.39750  Biso   1.000  O
  O26      1.0000 0.37120  0.66630  0.51080  Biso   1.000  O
  O27      1.0000 0.66090  0.47020  0.36470  Biso   1.000  O
  O28      1.0000 0.39380  0.46250  0.45070  Biso   1.000  O
  O29      1.0000 0.33260  0.54440  0.33480  Biso   1.000  O
  O30      1.0000 0.92290  0.16380  0.23240  Biso   1.000  O
  O31      1.0000 0.06610  0.24790  0.15780  Biso   1.000  O
  O32      1.0000 0.65040  0.74850  0.48450  Biso   1.000  O
