data_image0
_cell_length_a       9.543
_cell_length_b       13.8215
_cell_length_c       15.2993
_cell_angle_alpha    90
_cell_angle_beta     93.388
_cell_angle_gamma    90

_symmetry_space_group_name_H-M    P 1
_symmetry_int_tables_number       1

loop_
  _symmetry_equiv_pos_as_xyz
  'x, y, z'

loop_
  _atom_site_label
  _atom_site_occupancy
  _atom_site_fract_x
  _atom_site_fract_y
  _atom_site_fract_z
  _atom_site_thermal_displace_type
  _atom_site_B_iso_or_equiv
  _atom_site_type_symbol
  Tm1      1.0000 0.54323  0.11137  0.91444  Biso   1.000  Tm
  Tm2      1.0000 0.95677  0.61137  0.58556  Biso   1.000  Tm
  Tm3      1.0000 0.45677  0.88863  0.08556  Biso   1.000  Tm
  Tm4      1.0000 0.04323  0.38863  0.41444  Biso   1.000  Tm
  H1       1.0000 0.89240  0.90840  0.74010  Biso   1.000  H
  H2       1.0000 0.80690  0.83650  0.79630  Biso   1.000  H
  H3       1.0000 0.90690  0.90300  0.92490  Biso   1.000  H
  H4       1.0000 0.05210  0.03750  0.92890  Biso   1.000  H
  H5       1.0000 0.05320  0.03650  0.82640  Biso   1.000  H
  H6       1.0000 0.16260  0.88810  0.93670  Biso   1.000  H
  H7       1.0000 0.16920  0.89380  0.75220  Biso   1.000  H
  H8       1.0000 0.23700  0.81180  0.81170  Biso   1.000  H
  H9       1.0000 0.01510  0.76490  0.85460  Biso   1.000  H
  H10      1.0000 0.50180  0.31700  0.01760  Biso   1.000  H
  H11      1.0000 0.85340  0.33710  0.03380  Biso   1.000  H
  H12      1.0000 0.84530  0.45030  0.03690  Biso   1.000  H
  H13      1.0000 0.84910  0.39050  0.12400  Biso   1.000  H
  H14      1.0000 0.49950  0.45730  0.09490  Biso   1.000  H
  H15      1.0000 0.63010  0.46540  0.16160  Biso   1.000  H
  H16      1.0000 0.62530  0.52500  0.07440  Biso   1.000  H
  H17      1.0000 0.60760  0.40840  0.75990  Biso   1.000  H
  H18      1.0000 0.69310  0.33650  0.70370  Biso   1.000  H
  H19      1.0000 0.59310  0.40300  0.57510  Biso   1.000  H
  H20      1.0000 0.44790  0.53750  0.57110  Biso   1.000  H
  H21      1.0000 0.44680  0.53650  0.67360  Biso   1.000  H
  H22      1.0000 0.33740  0.38810  0.56330  Biso   1.000  H
  H23      1.0000 0.33080  0.39380  0.74780  Biso   1.000  H
  H24      1.0000 0.26300  0.31180  0.68830  Biso   1.000  H
  H25      1.0000 0.48490  0.26490  0.64540  Biso   1.000  H
  H26      1.0000 0.99820  0.81700  0.48240  Biso   1.000  H
  H27      1.0000 0.64660  0.83710  0.46620  Biso   1.000  H
  H28      1.0000 0.65470  0.95030  0.46310  Biso   1.000  H
  H29      1.0000 0.65090  0.89050  0.37600  Biso   1.000  H
  H30      1.0000 0.00050  0.95730  0.40510  Biso   1.000  H
  H31      1.0000 0.86990  0.96540  0.33840  Biso   1.000  H
  H32      1.0000 0.87470  0.02500  0.42560  Biso   1.000  H
  H33      1.0000 0.10760  0.09160  0.25990  Biso   1.000  H
  H34      1.0000 0.19310  0.16350  0.20370  Biso   1.000  H
  H35      1.0000 0.09310  0.09700  0.07510  Biso   1.000  H
  H36      1.0000 0.94790  0.96250  0.07110  Biso   1.000  H
  H37      1.0000 0.94680  0.96350  0.17360  Biso   1.000  H
  H38      1.0000 0.83740  0.11190  0.06330  Biso   1.000  H
  H39      1.0000 0.83080  0.10620  0.24780  Biso   1.000  H
  H40      1.0000 0.76300  0.18820  0.18830  Biso   1.000  H
  H41      1.0000 0.98490  0.23510  0.14540  Biso   1.000  H
  H42      1.0000 0.49820  0.68300  0.98240  Biso   1.000  H
  H43      1.0000 0.14660  0.66290  0.96620  Biso   1.000  H
  H44      1.0000 0.15470  0.54970  0.96310  Biso   1.000  H
  H45      1.0000 0.15090  0.60950  0.87600  Biso   1.000  H
  H46      1.0000 0.50050  0.54270  0.90510  Biso   1.000  H
  H47      1.0000 0.36990  0.53460  0.83840  Biso   1.000  H
  H48      1.0000 0.37470  0.47500  0.92560  Biso   1.000  H
  H49      1.0000 0.39240  0.59160  0.24010  Biso   1.000  H
  H50      1.0000 0.30690  0.66350  0.29630  Biso   1.000  H
  H51      1.0000 0.40690  0.59700  0.42490  Biso   1.000  H
  H52      1.0000 0.55210  0.46250  0.42890  Biso   1.000  H
  H53      1.0000 0.55320  0.46350  0.32640  Biso   1.000  H
  H54      1.0000 0.66260  0.61190  0.43670  Biso   1.000  H
  H55      1.0000 0.66920  0.60620  0.25220  Biso   1.000  H
  H56      1.0000 0.73700  0.68820  0.31170  Biso   1.000  H
  H57      1.0000 0.51510  0.73510  0.35460  Biso   1.000  H
  H58      1.0000 0.00180  0.18300  0.51760  Biso   1.000  H
  H59      1.0000 0.35340  0.16290  0.53380  Biso   1.000  H
  H60      1.0000 0.34530  0.04970  0.53690  Biso   1.000  H
  H61      1.0000 0.34910  0.10950  0.62400  Biso   1.000  H
  H62      1.0000 0.99950  0.04270  0.59490  Biso   1.000  H
  H63      1.0000 0.13010  0.03460  0.66160  Biso   1.000  H
  H64      1.0000 0.12530  0.97500  0.57440  Biso   1.000  H
  C1       1.0000 0.89380  0.87280  0.79480  Biso   1.000  C
  C2       1.0000 0.90640  0.94350  0.87230  Biso   1.000  C
  C3       1.0000 0.04680  0.99590  0.87770  Biso   1.000  C
  C4       1.0000 0.16860  0.92650  0.88320  Biso   1.000  C
  C5       1.0000 0.16010  0.85760  0.80590  Biso   1.000  C
  C6       1.0000 0.02020  0.80280  0.80070  Biso   1.000  C
  C7       1.0000 0.78110  0.00850  0.87720  Biso   1.000  C
  C8       1.0000 0.30760  0.97970  0.88890  Biso   1.000  C
  C9       1.0000 0.00330  0.73340  0.72370  Biso   1.000  C
  C10      1.0000 0.59900  0.31560  0.01800  Biso   1.000  C
  C11      1.0000 0.81600  0.39100  0.06400  Biso   1.000  C
  C12      1.0000 0.60000  0.46500  0.10100  Biso   1.000  C
  C13      1.0000 0.60620  0.37280  0.70520  Biso   1.000  C
  C14      1.0000 0.59360  0.44350  0.62770  Biso   1.000  C
  C15      1.0000 0.45320  0.49590  0.62230  Biso   1.000  C
  C16      1.0000 0.33140  0.42650  0.61680  Biso   1.000  C
  C17      1.0000 0.33990  0.35760  0.69410  Biso   1.000  C
  C18      1.0000 0.47980  0.30280  0.69930  Biso   1.000  C
  C19      1.0000 0.71890  0.50850  0.62280  Biso   1.000  C
  C20      1.0000 0.19240  0.47970  0.61110  Biso   1.000  C
  C21      1.0000 0.49670  0.23340  0.77630  Biso   1.000  C
  C22      1.0000 0.90100  0.81560  0.48200  Biso   1.000  C
  C23      1.0000 0.68400  0.89100  0.43600  Biso   1.000  C
  C24      1.0000 0.90000  0.96500  0.39900  Biso   1.000  C
  C25      1.0000 0.10620  0.12720  0.20520  Biso   1.000  C
  C26      1.0000 0.09360  0.05650  0.12770  Biso   1.000  C
  C27      1.0000 0.95320  0.00410  0.12230  Biso   1.000  C
  C28      1.0000 0.83140  0.07350  0.11680  Biso   1.000  C
  C29      1.0000 0.83990  0.14240  0.19410  Biso   1.000  C
  C30      1.0000 0.97980  0.19720  0.19930  Biso   1.000  C
  C31      1.0000 0.21890  0.99150  0.12280  Biso   1.000  C
  C32      1.0000 0.69240  0.02030  0.11110  Biso   1.000  C
  C33      1.0000 0.99670  0.26660  0.27630  Biso   1.000  C
  C34      1.0000 0.40100  0.68440  0.98200  Biso   1.000  C
  C35      1.0000 0.18400  0.60900  0.93600  Biso   1.000  C
  C36      1.0000 0.40000  0.53500  0.89900  Biso   1.000  C
  C37      1.0000 0.39380  0.62720  0.29480  Biso   1.000  C
  C38      1.0000 0.40640  0.55650  0.37230  Biso   1.000  C
  C39      1.0000 0.54680  0.50410  0.37770  Biso   1.000  C
  C40      1.0000 0.66860  0.57350  0.38320  Biso   1.000  C
  C41      1.0000 0.66010  0.64240  0.30590  Biso   1.000  C
  C42      1.0000 0.52020  0.69720  0.30070  Biso   1.000  C
  C43      1.0000 0.28110  0.49150  0.37720  Biso   1.000  C
  C44      1.0000 0.80760  0.52030  0.38890  Biso   1.000  C
  C45      1.0000 0.50330  0.76660  0.22370  Biso   1.000  C
  C46      1.0000 0.09900  0.18440  0.51800  Biso   1.000  C
  C47      1.0000 0.31600  0.10900  0.56400  Biso   1.000  C
  C48      1.0000 0.10000  0.03500  0.60100  Biso   1.000  C
  N1       1.0000 0.66500  0.38630  0.05770  Biso   1.000  N
  N2       1.0000 0.83500  0.88630  0.44230  Biso   1.000  N
  N3       1.0000 0.33500  0.61370  0.94230  Biso   1.000  N
  N4       1.0000 0.16500  0.11370  0.55770  Biso   1.000  N
  O1       1.0000 0.37390  0.16410  0.00920  Biso   1.000  O
  O2       1.0000 0.65940  0.97160  0.86530  Biso   1.000  O
  O3       1.0000 0.79360  0.09530  0.89860  Biso   1.000  O
  O4       1.0000 0.92060  0.66310  0.73010  Biso   1.000  O
  O5       1.0000 0.06690  0.74720  0.65630  Biso   1.000  O
  O6       1.0000 0.33770  0.04360  0.83620  Biso   1.000  O
  O7       1.0000 0.39420  0.96150  0.95280  Biso   1.000  O
  O8       1.0000 0.65030  0.24870  0.98180  Biso   1.000  O
  O9       1.0000 0.12610  0.66410  0.49080  Biso   1.000  O
  O10      1.0000 0.84060  0.47160  0.63470  Biso   1.000  O
  O11      1.0000 0.70640  0.59530  0.60140  Biso   1.000  O
  O12      1.0000 0.57940  0.16310  0.76990  Biso   1.000  O
  O13      1.0000 0.43310  0.24720  0.84370  Biso   1.000  O
  O14      1.0000 0.16230  0.54360  0.66380  Biso   1.000  O
  O15      1.0000 0.10580  0.46150  0.54720  Biso   1.000  O
  O16      1.0000 0.84970  0.74870  0.51820  Biso   1.000  O
  O17      1.0000 0.62610  0.83590  0.99080  Biso   1.000  O
  O18      1.0000 0.34060  0.02840  0.13470  Biso   1.000  O
  O19      1.0000 0.20640  0.90470  0.10140  Biso   1.000  O
  O20      1.0000 0.07940  0.33690  0.26990  Biso   1.000  O
  O21      1.0000 0.93310  0.25280  0.34370  Biso   1.000  O
  O22      1.0000 0.66230  0.95640  0.16380  Biso   1.000  O
  O23      1.0000 0.60580  0.03850  0.04720  Biso   1.000  O
  O24      1.0000 0.34970  0.75130  0.01820  Biso   1.000  O
  O25      1.0000 0.87390  0.33590  0.50920  Biso   1.000  O
  O26      1.0000 0.15940  0.52840  0.36530  Biso   1.000  O
  O27      1.0000 0.29360  0.40470  0.39860  Biso   1.000  O
  O28      1.0000 0.42060  0.83690  0.23010  Biso   1.000  O
  O29      1.0000 0.56690  0.75280  0.15630  Biso   1.000  O
  O30      1.0000 0.83770  0.45640  0.33620  Biso   1.000  O
  O31      1.0000 0.89420  0.53850  0.45280  Biso   1.000  O
  O32      1.0000 0.15030  0.25130  0.48180  Biso   1.000  O
