data_image0
_cell_length_a       9.5631
_cell_length_b       13.8741
_cell_length_c       15.3
_cell_angle_alpha    90
_cell_angle_beta     93.382
_cell_angle_gamma    90

_symmetry_space_group_name_H-M    P 1
_symmetry_int_tables_number       1

loop_
  _symmetry_equiv_pos_as_xyz
  'x, y, z'

loop_
  _atom_site_label
  _atom_site_occupancy
  _atom_site_fract_x
  _atom_site_fract_y
  _atom_site_fract_z
  _atom_site_thermal_displace_type
  _atom_site_B_iso_or_equiv
  _atom_site_type_symbol
  Er1      1.0000 0.54267  0.88905  0.91423  Biso   1.000  Er
  Er2      1.0000 0.95733  0.38905  0.58577  Biso   1.000  Er
  Er3      1.0000 0.45733  0.11095  0.08577  Biso   1.000  Er
  Er4      1.0000 0.04267  0.61095  0.41423  Biso   1.000  Er
  H1       1.0000 0.23700  0.18870  0.81160  Biso   1.000  H
  H2       1.0000 0.16940  0.10700  0.75200  Biso   1.000  H
  H3       1.0000 0.01310  0.23500  0.85560  Biso   1.000  H
  H4       1.0000 0.80890  0.16530  0.79510  Biso   1.000  H
  H5       1.0000 0.89540  0.09470  0.73880  Biso   1.000  H
  H6       1.0000 0.90710  0.09550  0.92500  Biso   1.000  H
  H7       1.0000 0.05270  0.96270  0.92840  Biso   1.000  H
  H8       1.0000 0.05330  0.96370  0.82590  Biso   1.000  H
  H9       1.0000 0.16430  0.11230  0.93630  Biso   1.000  H
  H10      1.0000 0.50170  0.68350  0.01740  Biso   1.000  H
  H11      1.0000 0.49970  0.54190  0.09510  Biso   1.000  H
  H12      1.0000 0.62680  0.47540  0.07600  Biso   1.000  H
  H13      1.0000 0.62990  0.53670  0.16220  Biso   1.000  H
  H14      1.0000 0.84960  0.66250  0.03260  Biso   1.000  H
  H15      1.0000 0.84480  0.61300  0.12440  Biso   1.000  H
  H16      1.0000 0.84330  0.54990  0.03940  Biso   1.000  H
  H17      1.0000 0.26300  0.68870  0.68840  Biso   1.000  H
  H18      1.0000 0.33060  0.60700  0.74800  Biso   1.000  H
  H19      1.0000 0.48690  0.73500  0.64440  Biso   1.000  H
  H20      1.0000 0.69110  0.66530  0.70490  Biso   1.000  H
  H21      1.0000 0.60460  0.59470  0.76120  Biso   1.000  H
  H22      1.0000 0.59290  0.59550  0.57500  Biso   1.000  H
  H23      1.0000 0.44730  0.46270  0.57160  Biso   1.000  H
  H24      1.0000 0.44670  0.46370  0.67410  Biso   1.000  H
  H25      1.0000 0.33570  0.61230  0.56370  Biso   1.000  H
  H26      1.0000 0.99830  0.18350  0.48260  Biso   1.000  H
  H27      1.0000 0.00030  0.04190  0.40490  Biso   1.000  H
  H28      1.0000 0.87320  0.97540  0.42400  Biso   1.000  H
  H29      1.0000 0.87010  0.03670  0.33780  Biso   1.000  H
  H30      1.0000 0.65040  0.16250  0.46740  Biso   1.000  H
  H31      1.0000 0.65520  0.11300  0.37560  Biso   1.000  H
  H32      1.0000 0.65670  0.04990  0.46060  Biso   1.000  H
  H33      1.0000 0.76300  0.81130  0.18840  Biso   1.000  H
  H34      1.0000 0.83060  0.89300  0.24800  Biso   1.000  H
  H35      1.0000 0.98690  0.76500  0.14440  Biso   1.000  H
  H36      1.0000 0.19110  0.83470  0.20490  Biso   1.000  H
  H37      1.0000 0.10460  0.90530  0.26120  Biso   1.000  H
  H38      1.0000 0.09290  0.90450  0.07500  Biso   1.000  H
  H39      1.0000 0.94730  0.03730  0.07160  Biso   1.000  H
  H40      1.0000 0.94670  0.03630  0.17410  Biso   1.000  H
  H41      1.0000 0.83570  0.88770  0.06370  Biso   1.000  H
  H42      1.0000 0.49830  0.31650  0.98260  Biso   1.000  H
  H43      1.0000 0.50030  0.45810  0.90490  Biso   1.000  H
  H44      1.0000 0.37320  0.52460  0.92400  Biso   1.000  H
  H45      1.0000 0.37010  0.46330  0.83780  Biso   1.000  H
  H46      1.0000 0.15040  0.33750  0.96740  Biso   1.000  H
  H47      1.0000 0.15520  0.38700  0.87560  Biso   1.000  H
  H48      1.0000 0.15670  0.45010  0.96060  Biso   1.000  H
  H49      1.0000 0.73700  0.31130  0.31160  Biso   1.000  H
  H50      1.0000 0.66940  0.39300  0.25200  Biso   1.000  H
  H51      1.0000 0.51310  0.26500  0.35560  Biso   1.000  H
  H52      1.0000 0.30890  0.33470  0.29510  Biso   1.000  H
  H53      1.0000 0.39540  0.40530  0.23880  Biso   1.000  H
  H54      1.0000 0.40710  0.40450  0.42500  Biso   1.000  H
  H55      1.0000 0.55270  0.53730  0.42840  Biso   1.000  H
  H56      1.0000 0.55330  0.53630  0.32590  Biso   1.000  H
  H57      1.0000 0.66430  0.38770  0.43630  Biso   1.000  H
  H58      1.0000 0.00170  0.81650  0.51740  Biso   1.000  H
  H59      1.0000 0.99970  0.95810  0.59510  Biso   1.000  H
  H60      1.0000 0.12680  0.02460  0.57600  Biso   1.000  H
  H61      1.0000 0.12990  0.96330  0.66220  Biso   1.000  H
  H62      1.0000 0.34960  0.83750  0.53260  Biso   1.000  H
  H63      1.0000 0.34480  0.88700  0.62440  Biso   1.000  H
  H64      1.0000 0.34330  0.95010  0.53940  Biso   1.000  H
  C1       1.0000 0.16060  0.14280  0.80590  Biso   1.000  C
  C2       1.0000 0.01890  0.19740  0.80170  Biso   1.000  C
  C3       1.0000 0.89560  0.12920  0.79390  Biso   1.000  C
  C4       1.0000 0.90620  0.05560  0.87220  Biso   1.000  C
  C5       1.0000 0.04690  0.00420  0.87720  Biso   1.000  C
  C6       1.0000 0.16960  0.07430  0.88260  Biso   1.000  C
  C7       1.0000 0.30660  0.01950  0.88810  Biso   1.000  C
  C8       1.0000 0.00370  0.26520  0.72480  Biso   1.000  C
  C9       1.0000 0.78050  0.99120  0.87740  Biso   1.000  C
  C10      1.0000 0.59900  0.68500  0.01820  Biso   1.000  C
  C11      1.0000 0.60000  0.53500  0.10100  Biso   1.000  C
  C12      1.0000 0.81200  0.60900  0.06400  Biso   1.000  C
  C13      1.0000 0.33940  0.64280  0.69410  Biso   1.000  C
  C14      1.0000 0.48110  0.69740  0.69830  Biso   1.000  C
  C15      1.0000 0.60440  0.62920  0.70610  Biso   1.000  C
  C16      1.0000 0.59380  0.55560  0.62780  Biso   1.000  C
  C17      1.0000 0.45310  0.50420  0.62280  Biso   1.000  C
  C18      1.0000 0.33040  0.57430  0.61740  Biso   1.000  C
  C19      1.0000 0.19340  0.51950  0.61190  Biso   1.000  C
  C20      1.0000 0.49630  0.76520  0.77520  Biso   1.000  C
  C21      1.0000 0.71950  0.49120  0.62260  Biso   1.000  C
  C22      1.0000 0.90100  0.18500  0.48180  Biso   1.000  C
  C23      1.0000 0.90000  0.03500  0.39900  Biso   1.000  C
  C24      1.0000 0.68800  0.10900  0.43600  Biso   1.000  C
  C25      1.0000 0.83940  0.85720  0.19410  Biso   1.000  C
  C26      1.0000 0.98110  0.80260  0.19830  Biso   1.000  C
  C27      1.0000 0.10440  0.87080  0.20610  Biso   1.000  C
  C28      1.0000 0.09380  0.94440  0.12780  Biso   1.000  C
  C29      1.0000 0.95310  0.99580  0.12280  Biso   1.000  C
  C30      1.0000 0.83040  0.92570  0.11740  Biso   1.000  C
  C31      1.0000 0.69340  0.98050  0.11190  Biso   1.000  C
  C32      1.0000 0.99630  0.73480  0.27520  Biso   1.000  C
  C33      1.0000 0.21950  0.00880  0.12260  Biso   1.000  C
  C34      1.0000 0.40100  0.31500  0.98180  Biso   1.000  C
  C35      1.0000 0.40000  0.46500  0.89900  Biso   1.000  C
  C36      1.0000 0.18800  0.39100  0.93600  Biso   1.000  C
  C37      1.0000 0.66060  0.35720  0.30590  Biso   1.000  C
  C38      1.0000 0.51890  0.30260  0.30170  Biso   1.000  C
  C39      1.0000 0.39560  0.37080  0.29390  Biso   1.000  C
  C40      1.0000 0.40620  0.44440  0.37220  Biso   1.000  C
  C41      1.0000 0.54690  0.49580  0.37720  Biso   1.000  C
  C42      1.0000 0.66960  0.42570  0.38260  Biso   1.000  C
  C43      1.0000 0.80660  0.48050  0.38810  Biso   1.000  C
  C44      1.0000 0.50370  0.23480  0.22480  Biso   1.000  C
  C45      1.0000 0.28050  0.50880  0.37740  Biso   1.000  C
  C46      1.0000 0.09900  0.81500  0.51820  Biso   1.000  C
  C47      1.0000 0.10000  0.96500  0.60100  Biso   1.000  C
  C48      1.0000 0.31200  0.89100  0.56400  Biso   1.000  C
  N1       1.0000 0.66300  0.61320  0.05710  Biso   1.000  N
  N2       1.0000 0.83700  0.11320  0.44290  Biso   1.000  N
  N3       1.0000 0.33700  0.38680  0.94290  Biso   1.000  N
  N4       1.0000 0.16300  0.88680  0.55710  Biso   1.000  N
  O1       1.0000 0.33600  0.95570  0.83480  Biso   1.000  O
  O2       1.0000 0.37350  0.83480  0.01060  Biso   1.000  O
  O3       1.0000 0.39420  0.03750  0.95170  Biso   1.000  O
  O4       1.0000 0.06760  0.25370  0.65600  Biso   1.000  O
  O5       1.0000 0.92230  0.33670  0.73040  Biso   1.000  O
  O6       1.0000 0.79390  0.90570  0.89880  Biso   1.000  O
  O7       1.0000 0.65880  0.02910  0.86350  Biso   1.000  O
  O8       1.0000 0.64930  0.75250  0.98290  Biso   1.000  O
  O9       1.0000 0.16400  0.45570  0.66520  Biso   1.000  O
  O10      1.0000 0.12650  0.33480  0.48940  Biso   1.000  O
  O11      1.0000 0.10580  0.53750  0.54830  Biso   1.000  O
  O12      1.0000 0.43240  0.75370  0.84400  Biso   1.000  O
  O13      1.0000 0.57770  0.83670  0.76960  Biso   1.000  O
  O14      1.0000 0.70610  0.40570  0.60120  Biso   1.000  O
  O15      1.0000 0.84120  0.52910  0.63650  Biso   1.000  O
  O16      1.0000 0.85070  0.25250  0.51710  Biso   1.000  O
  O17      1.0000 0.66400  0.04430  0.16520  Biso   1.000  O
  O18      1.0000 0.62650  0.16520  0.98940  Biso   1.000  O
  O19      1.0000 0.60580  0.96250  0.04830  Biso   1.000  O
  O20      1.0000 0.93240  0.74630  0.34400  Biso   1.000  O
  O21      1.0000 0.07770  0.66330  0.26960  Biso   1.000  O
  O22      1.0000 0.20610  0.09430  0.10120  Biso   1.000  O
  O23      1.0000 0.34120  0.97090  0.13650  Biso   1.000  O
  O24      1.0000 0.35070  0.24750  0.01710  Biso   1.000  O
  O25      1.0000 0.83600  0.54430  0.33480  Biso   1.000  O
  O26      1.0000 0.87350  0.66520  0.51060  Biso   1.000  O
  O27      1.0000 0.89420  0.46250  0.45170  Biso   1.000  O
  O28      1.0000 0.56760  0.24630  0.15600  Biso   1.000  O
  O29      1.0000 0.42230  0.16330  0.23040  Biso   1.000  O
  O30      1.0000 0.29390  0.59430  0.39880  Biso   1.000  O
  O31      1.0000 0.15880  0.47090  0.36350  Biso   1.000  O
  O32      1.0000 0.14930  0.74750  0.48290  Biso   1.000  O
