data_image0
_cell_length_a       15.8635
_cell_length_b       15.8635
_cell_length_c       20.06
_cell_angle_alpha    84.2263
_cell_angle_beta     84.2263
_cell_angle_gamma    71.3996

_symmetry_space_group_name_H-M    P 1
_symmetry_int_tables_number       1

loop_
  _symmetry_equiv_pos_as_xyz
  'x, y, z'

loop_
  _atom_site_label
  _atom_site_occupancy
  _atom_site_fract_x
  _atom_site_fract_y
  _atom_site_fract_z
  _atom_site_thermal_displace_type
  _atom_site_B_iso_or_equiv
  _atom_site_type_symbol
  Cd1      1.0000 0.72085  0.67837  0.81164  Biso   1.000  Cd
  Cd2      1.0000 0.82758  0.82352  0.73118  Biso   1.000  Cd
  Cd3      1.0000 0.32163  0.27915  0.68836  Biso   1.000  Cd
  Cd4      1.0000 0.17648  0.17242  0.76882  Biso   1.000  Cd
  Cd5      1.0000 0.27915  0.32163  0.18836  Biso   1.000  Cd
  Cd6      1.0000 0.17242  0.17648  0.26882  Biso   1.000  Cd
  Cd7      1.0000 0.67837  0.72085  0.31164  Biso   1.000  Cd
  Cd8      1.0000 0.82352  0.82758  0.23118  Biso   1.000  Cd
  H1       1.0000 0.96660  0.83020  0.89350  Biso   1.000  H
  H2       1.0000 0.05690  0.75130  0.89700  Biso   1.000  H
  H3       1.0000 0.06580  0.78960  0.99790  Biso   1.000  H
  H4       1.0000 0.96710  0.85470  0.99960  Biso   1.000  H
  H5       1.0000 0.01510  0.66190  0.04080  Biso   1.000  H
  H6       1.0000 0.82620  0.68780  0.06540  Biso   1.000  H
  H7       1.0000 0.79910  0.68310  0.99320  Biso   1.000  H
  H8       1.0000 0.88610  0.61390  0.01960  Biso   1.000  H
  H9       1.0000 0.83540  0.85500  0.93870  Biso   1.000  H
  H10      1.0000 0.76910  0.81370  0.98290  Biso   1.000  H
  H11      1.0000 0.82300  0.86340  0.01650  Biso   1.000  H
  H12      1.0000 0.06460  0.63120  0.88710  Biso   1.000  H
  H13      1.0000 0.03120  0.59040  0.95520  Biso   1.000  H
  H14      1.0000 0.99010  0.58550  0.88830  Biso   1.000  H
  H15      1.0000 0.97460  0.63480  0.62190  Biso   1.000  H
  H16      1.0000 0.93860  0.59760  0.56480  Biso   1.000  H
  H17      1.0000 0.07270  0.50350  0.54500  Biso   1.000  H
  H18      1.0000 0.10750  0.53690  0.60530  Biso   1.000  H
  H19      1.0000 0.03250  0.38970  0.61430  Biso   1.000  H
  H20      1.0000 0.89410  0.41250  0.73580  Biso   1.000  H
  H21      1.0000 0.98720  0.34020  0.72390  Biso   1.000  H
  H22      1.0000 0.96840  0.39900  0.78530  Biso   1.000  H
  H23      1.0000 0.84960  0.51440  0.58410  Biso   1.000  H
  H24      1.0000 0.90340  0.42560  0.62270  Biso   1.000  H
  H25      1.0000 0.81150  0.48410  0.65430  Biso   1.000  H
  H26      1.0000 0.54930  0.75410  0.59170  Biso   1.000  H
  H27      1.0000 0.66290  0.72570  0.65910  Biso   1.000  H
  H28      1.0000 0.53070  0.65290  0.81430  Biso   1.000  H
  H29      1.0000 0.40350  0.68750  0.75140  Biso   1.000  H
  H30      1.0000 0.10170  0.80730  0.54740  Biso   1.000  H
  H31      1.0000 0.95520  0.82860  0.58430  Biso   1.000  H
  H32      1.0000 0.02100  0.76700  0.76890  Biso   1.000  H
  H33      1.0000 0.17200  0.73700  0.73390  Biso   1.000  H
  H34      1.0000 0.36340  0.80720  0.43430  Biso   1.000  H
  H35      1.0000 0.47460  0.79840  0.35070  Biso   1.000  H
  H36      1.0000 0.64370  0.60730  0.45090  Biso   1.000  H
  H37      1.0000 0.53880  0.60580  0.53600  Biso   1.000  H
  H38      1.0000 0.26320  0.74780  0.51480  Biso   1.000  H
  H39      1.0000 0.16980  0.03340  0.60650  Biso   1.000  H
  H40      1.0000 0.24870  0.94310  0.60300  Biso   1.000  H
  H41      1.0000 0.21040  0.93420  0.50210  Biso   1.000  H
  H42      1.0000 0.14530  0.03290  0.50040  Biso   1.000  H
  H43      1.0000 0.33810  0.98490  0.45920  Biso   1.000  H
  H44      1.0000 0.31220  0.17380  0.43460  Biso   1.000  H
  H45      1.0000 0.31690  0.20090  0.50680  Biso   1.000  H
  H46      1.0000 0.38610  0.11390  0.48040  Biso   1.000  H
  H47      1.0000 0.14500  0.16460  0.56130  Biso   1.000  H
  H48      1.0000 0.18630  0.23090  0.51710  Biso   1.000  H
  H49      1.0000 0.13660  0.17700  0.48350  Biso   1.000  H
  H50      1.0000 0.36880  0.93540  0.61290  Biso   1.000  H
  H51      1.0000 0.40960  0.96880  0.54480  Biso   1.000  H
  H52      1.0000 0.41450  0.00990  0.61170  Biso   1.000  H
  H53      1.0000 0.36520  0.02540  0.87810  Biso   1.000  H
  H54      1.0000 0.40240  0.06140  0.93520  Biso   1.000  H
  H55      1.0000 0.49650  0.92730  0.95500  Biso   1.000  H
  H56      1.0000 0.46310  0.89250  0.89470  Biso   1.000  H
  H57      1.0000 0.61030  0.96750  0.88570  Biso   1.000  H
  H58      1.0000 0.58750  0.10590  0.76420  Biso   1.000  H
  H59      1.0000 0.65980  0.01280  0.77610  Biso   1.000  H
  H60      1.0000 0.60100  0.03160  0.71470  Biso   1.000  H
  H61      1.0000 0.48560  0.15040  0.91590  Biso   1.000  H
  H62      1.0000 0.57440  0.09660  0.87730  Biso   1.000  H
  H63      1.0000 0.51590  0.18850  0.84570  Biso   1.000  H
  H64      1.0000 0.24590  0.45070  0.90830  Biso   1.000  H
  H65      1.0000 0.27430  0.33710  0.84090  Biso   1.000  H
  H66      1.0000 0.34710  0.46930  0.68570  Biso   1.000  H
  H67      1.0000 0.31250  0.59650  0.74860  Biso   1.000  H
  H68      1.0000 0.19270  0.89830  0.95260  Biso   1.000  H
  H69      1.0000 0.17140  0.04480  0.91570  Biso   1.000  H
  H70      1.0000 0.23300  0.97900  0.73110  Biso   1.000  H
  H71      1.0000 0.26300  0.82800  0.76610  Biso   1.000  H
  H72      1.0000 0.19280  0.63660  0.06570  Biso   1.000  H
  H73      1.0000 0.20160  0.52540  0.14930  Biso   1.000  H
  H74      1.0000 0.39270  0.35630  0.04910  Biso   1.000  H
  H75      1.0000 0.39420  0.46120  0.96400  Biso   1.000  H
  H76      1.0000 0.25220  0.73680  0.98520  Biso   1.000  H
  H77      1.0000 0.03340  0.16980  0.10650  Biso   1.000  H
  H78      1.0000 0.94310  0.24870  0.10300  Biso   1.000  H
  H79      1.0000 0.93420  0.21040  0.00210  Biso   1.000  H
  H80      1.0000 0.03290  0.14530  0.00040  Biso   1.000  H
  H81      1.0000 0.98490  0.33810  0.95920  Biso   1.000  H
  H82      1.0000 0.17380  0.31220  0.93460  Biso   1.000  H
  H83      1.0000 0.20090  0.31690  0.00680  Biso   1.000  H
  H84      1.0000 0.11390  0.38610  0.98040  Biso   1.000  H
  H85      1.0000 0.16460  0.14500  0.06130  Biso   1.000  H
  H86      1.0000 0.23090  0.18630  0.01710  Biso   1.000  H
  H87      1.0000 0.17700  0.13660  0.98350  Biso   1.000  H
  H88      1.0000 0.93540  0.36880  0.11290  Biso   1.000  H
  H89      1.0000 0.96880  0.40960  0.04480  Biso   1.000  H
  H90      1.0000 0.00990  0.41450  0.11170  Biso   1.000  H
  H91      1.0000 0.02540  0.36520  0.37810  Biso   1.000  H
  H92      1.0000 0.06140  0.40240  0.43520  Biso   1.000  H
  H93      1.0000 0.92730  0.49650  0.45500  Biso   1.000  H
  H94      1.0000 0.89250  0.46310  0.39470  Biso   1.000  H
  H95      1.0000 0.96750  0.61030  0.38570  Biso   1.000  H
  H96      1.0000 0.10590  0.58750  0.26420  Biso   1.000  H
  H97      1.0000 0.01280  0.65980  0.27610  Biso   1.000  H
  H98      1.0000 0.03160  0.60100  0.21470  Biso   1.000  H
  H99      1.0000 0.15040  0.48560  0.41590  Biso   1.000  H
  H100     1.0000 0.09660  0.57440  0.37730  Biso   1.000  H
  H101     1.0000 0.18850  0.51590  0.34570  Biso   1.000  H
  H102     1.0000 0.45070  0.24590  0.40830  Biso   1.000  H
  H103     1.0000 0.33710  0.27430  0.34090  Biso   1.000  H
  H104     1.0000 0.46930  0.34710  0.18570  Biso   1.000  H
  H105     1.0000 0.59650  0.31250  0.24860  Biso   1.000  H
  H106     1.0000 0.89830  0.19270  0.45260  Biso   1.000  H
  H107     1.0000 0.04480  0.17140  0.41570  Biso   1.000  H
  H108     1.0000 0.97900  0.23300  0.23110  Biso   1.000  H
  H109     1.0000 0.82800  0.26300  0.26610  Biso   1.000  H
  H110     1.0000 0.63660  0.19280  0.56570  Biso   1.000  H
  H111     1.0000 0.52540  0.20160  0.64930  Biso   1.000  H
  H112     1.0000 0.35630  0.39270  0.54910  Biso   1.000  H
  H113     1.0000 0.46120  0.39420  0.46400  Biso   1.000  H
  H114     1.0000 0.73680  0.25220  0.48520  Biso   1.000  H
  H115     1.0000 0.83020  0.96660  0.39350  Biso   1.000  H
  H116     1.0000 0.75130  0.05690  0.39700  Biso   1.000  H
  H117     1.0000 0.78960  0.06580  0.49790  Biso   1.000  H
  H118     1.0000 0.85470  0.96710  0.49960  Biso   1.000  H
  H119     1.0000 0.66190  0.01510  0.54080  Biso   1.000  H
  H120     1.0000 0.68780  0.82620  0.56540  Biso   1.000  H
  H121     1.0000 0.68310  0.79910  0.49320  Biso   1.000  H
  H122     1.0000 0.61390  0.88610  0.51960  Biso   1.000  H
  H123     1.0000 0.85500  0.83540  0.43870  Biso   1.000  H
  H124     1.0000 0.81370  0.76910  0.48290  Biso   1.000  H
  H125     1.0000 0.86340  0.82300  0.51650  Biso   1.000  H
  H126     1.0000 0.63120  0.06460  0.38710  Biso   1.000  H
  H127     1.0000 0.59040  0.03120  0.45520  Biso   1.000  H
  H128     1.0000 0.58550  0.99010  0.38830  Biso   1.000  H
  H129     1.0000 0.63480  0.97460  0.12190  Biso   1.000  H
  H130     1.0000 0.59760  0.93860  0.06480  Biso   1.000  H
  H131     1.0000 0.50350  0.07270  0.04500  Biso   1.000  H
  H132     1.0000 0.53690  0.10750  0.10530  Biso   1.000  H
  H133     1.0000 0.38970  0.03250  0.11430  Biso   1.000  H
  H134     1.0000 0.41250  0.89410  0.23580  Biso   1.000  H
  H135     1.0000 0.34020  0.98720  0.22390  Biso   1.000  H
  H136     1.0000 0.39900  0.96840  0.28530  Biso   1.000  H
  H137     1.0000 0.51440  0.84960  0.08410  Biso   1.000  H
  H138     1.0000 0.42560  0.90340  0.12270  Biso   1.000  H
  H139     1.0000 0.48410  0.81150  0.15430  Biso   1.000  H
  H140     1.0000 0.75410  0.54930  0.09170  Biso   1.000  H
  H141     1.0000 0.72570  0.66290  0.15910  Biso   1.000  H
  H142     1.0000 0.65290  0.53070  0.31430  Biso   1.000  H
  H143     1.0000 0.68750  0.40350  0.25140  Biso   1.000  H
  H144     1.0000 0.80730  0.10170  0.04740  Biso   1.000  H
  H145     1.0000 0.82860  0.95520  0.08430  Biso   1.000  H
  H146     1.0000 0.76700  0.02100  0.26890  Biso   1.000  H
  H147     1.0000 0.73700  0.17200  0.23390  Biso   1.000  H
  H148     1.0000 0.80720  0.36340  0.93430  Biso   1.000  H
  H149     1.0000 0.79840  0.47460  0.85070  Biso   1.000  H
  H150     1.0000 0.60730  0.64370  0.95090  Biso   1.000  H
  H151     1.0000 0.60580  0.53880  0.03600  Biso   1.000  H
  H152     1.0000 0.74780  0.26320  0.01480  Biso   1.000  H
  C1       1.0000 0.90135  0.73655  0.99170  Biso   1.000  C
  C2       1.0000 0.94513  0.70693  0.92353  Biso   1.000  C
  C3       1.0000 0.99796  0.77576  0.91900  Biso   1.000  C
  C4       1.0000 0.00485  0.79485  0.99060  Biso   1.000  C
  C5       1.0000 0.97217  0.72197  0.03848  Biso   1.000  C
  C6       1.0000 0.84827  0.67467  0.02010  Biso   1.000  C
  C7       1.0000 0.82500  0.82560  0.98150  Biso   1.000  C
  C8       1.0000 0.94968  0.76588  0.10350  Biso   1.000  C
  C9       1.0000 0.88205  0.71905  0.87030  Biso   1.000  C
  C10      1.0000 0.01371  0.62111  0.91260  Biso   1.000  C
  C11      1.0000 0.99123  0.46763  0.69610  Biso   1.000  C
  C12      1.0000 0.91216  0.53656  0.66195  Biso   1.000  C
  C13      1.0000 0.96917  0.58117  0.60595  Biso   1.000  C
  C14      1.0000 0.06136  0.51516  0.59220  Biso   1.000  C
  C15      1.0000 0.05671  0.42631  0.63860  Biso   1.000  C
  C16      1.0000 0.95704  0.39844  0.73930  Biso   1.000  C
  C17      1.0000 0.03381  0.51061  0.74540  Biso   1.000  C
  C18      1.0000 0.84965  0.60245  0.70330  Biso   1.000  C
  C19      1.0000 0.14977  0.37337  0.65950  Biso   1.000  C
  C20      1.0000 0.86483  0.48543  0.62760  Biso   1.000  C
  C21      1.0000 0.38628  0.72248  0.62701  Biso   1.000  C
  C22      1.0000 0.37600  0.72500  0.55830  Biso   1.000  C
  C23      1.0000 0.24860  0.74840  0.61730  Biso   1.000  C
  C24      1.0000 0.46168  0.71528  0.66380  Biso   1.000  C
  C25      1.0000 0.54282  0.73362  0.63640  Biso   1.000  C
  C26      1.0000 0.60892  0.71992  0.67830  Biso   1.000  C
  C27      1.0000 0.53208  0.67768  0.77030  Biso   1.000  C
  C28      1.0000 0.45671  0.69311  0.73050  Biso   1.000  C
  C29      1.0000 0.15231  0.76591  0.63625  Biso   1.000  C
  C30      1.0000 0.08677  0.79637  0.59273  Biso   1.000  C
  C31      1.0000 0.99861  0.81101  0.61520  Biso   1.000  C
  C32      1.0000 0.03688  0.77408  0.72331  Biso   1.000  C
  C33      1.0000 0.12901  0.75561  0.70272  Biso   1.000  C
  C34      1.0000 0.44033  0.71373  0.50012  Biso   1.000  C
  C35      1.0000 0.42017  0.76717  0.43955  Biso   1.000  C
  C36      1.0000 0.48603  0.75883  0.38870  Biso   1.000  C
  C37      1.0000 0.58601  0.64581  0.44710  Biso   1.000  C
  C38      1.0000 0.52497  0.64797  0.49980  Biso   1.000  C
  C39      1.0000 0.26345  0.09865  0.50830  Biso   1.000  C
  C40      1.0000 0.29307  0.05487  0.57647  Biso   1.000  C
  C41      1.0000 0.22424  0.00204  0.58100  Biso   1.000  C
  C42      1.0000 0.20515  0.99515  0.50940  Biso   1.000  C
  C43      1.0000 0.27803  0.02783  0.46152  Biso   1.000  C
  C44      1.0000 0.32533  0.15173  0.47990  Biso   1.000  C
  C45      1.0000 0.17440  0.17500  0.51850  Biso   1.000  C
  C46      1.0000 0.23412  0.05032  0.39650  Biso   1.000  C
  C47      1.0000 0.28095  0.11795  0.62970  Biso   1.000  C
  C48      1.0000 0.37889  0.98629  0.58740  Biso   1.000  C
  C49      1.0000 0.53237  0.00877  0.80390  Biso   1.000  C
  C50      1.0000 0.46344  0.08784  0.83805  Biso   1.000  C
  C51      1.0000 0.41883  0.03083  0.89405  Biso   1.000  C
  C52      1.0000 0.48484  0.93864  0.90780  Biso   1.000  C
  C53      1.0000 0.57369  0.94329  0.86140  Biso   1.000  C
  C54      1.0000 0.60156  0.04296  0.76070  Biso   1.000  C
  C55      1.0000 0.48939  0.96619  0.75460  Biso   1.000  C
  C56      1.0000 0.39755  0.15035  0.79670  Biso   1.000  C
  C57      1.0000 0.62663  0.85023  0.84050  Biso   1.000  C
  C58      1.0000 0.51457  0.13517  0.87240  Biso   1.000  C
  C59      1.0000 0.27752  0.61372  0.87299  Biso   1.000  C
  C60      1.0000 0.27500  0.62400  0.94170  Biso   1.000  C
  C61      1.0000 0.25160  0.75140  0.88270  Biso   1.000  C
  C62      1.0000 0.28472  0.53832  0.83620  Biso   1.000  C
  C63      1.0000 0.26638  0.45718  0.86360  Biso   1.000  C
  C64      1.0000 0.28008  0.39108  0.82170  Biso   1.000  C
  C65      1.0000 0.32232  0.46792  0.72970  Biso   1.000  C
  C66      1.0000 0.30689  0.54329  0.76950  Biso   1.000  C
  C67      1.0000 0.23409  0.84769  0.86375  Biso   1.000  C
  C68      1.0000 0.20363  0.91323  0.90727  Biso   1.000  C
  C69      1.0000 0.18899  0.00139  0.88480  Biso   1.000  C
  C70      1.0000 0.22592  0.96312  0.77669  Biso   1.000  C
  C71      1.0000 0.24439  0.87099  0.79728  Biso   1.000  C
  C72      1.0000 0.28627  0.55967  0.99988  Biso   1.000  C
  C73      1.0000 0.23283  0.57983  0.06045  Biso   1.000  C
  C74      1.0000 0.24117  0.51397  0.11130  Biso   1.000  C
  C75      1.0000 0.35419  0.41399  0.05290  Biso   1.000  C
  C76      1.0000 0.35203  0.47503  0.00020  Biso   1.000  C
  C77      1.0000 0.09865  0.26345  0.00830  Biso   1.000  C
  C78      1.0000 0.05487  0.29307  0.07647  Biso   1.000  C
  C79      1.0000 0.00204  0.22424  0.08100  Biso   1.000  C
  C80      1.0000 0.99515  0.20515  0.00940  Biso   1.000  C
  C81      1.0000 0.02783  0.27803  0.96152  Biso   1.000  C
  C82      1.0000 0.15173  0.32533  0.97990  Biso   1.000  C
  C83      1.0000 0.17500  0.17440  0.01850  Biso   1.000  C
  C84      1.0000 0.05032  0.23412  0.89650  Biso   1.000  C
  C85      1.0000 0.11795  0.28095  0.12970  Biso   1.000  C
  C86      1.0000 0.98629  0.37889  0.08740  Biso   1.000  C
  C87      1.0000 0.00877  0.53237  0.30390  Biso   1.000  C
  C88      1.0000 0.08784  0.46344  0.33805  Biso   1.000  C
  C89      1.0000 0.03083  0.41883  0.39405  Biso   1.000  C
  C90      1.0000 0.93864  0.48484  0.40780  Biso   1.000  C
  C91      1.0000 0.94329  0.57369  0.36140  Biso   1.000  C
  C92      1.0000 0.04296  0.60156  0.26070  Biso   1.000  C
  C93      1.0000 0.96619  0.48939  0.25460  Biso   1.000  C
  C94      1.0000 0.15035  0.39755  0.29670  Biso   1.000  C
  C95      1.0000 0.85023  0.62663  0.34050  Biso   1.000  C
  C96      1.0000 0.13517  0.51457  0.37240  Biso   1.000  C
  C97      1.0000 0.61372  0.27752  0.37299  Biso   1.000  C
  C98      1.0000 0.62400  0.27500  0.44170  Biso   1.000  C
  C99      1.0000 0.75140  0.25160  0.38270  Biso   1.000  C
  C100     1.0000 0.53832  0.28472  0.33620  Biso   1.000  C
  C101     1.0000 0.45718  0.26638  0.36360  Biso   1.000  C
  C102     1.0000 0.39108  0.28008  0.32170  Biso   1.000  C
  C103     1.0000 0.46792  0.32232  0.22970  Biso   1.000  C
  C104     1.0000 0.54329  0.30689  0.26950  Biso   1.000  C
  C105     1.0000 0.84769  0.23409  0.36375  Biso   1.000  C
  C106     1.0000 0.91323  0.20363  0.40727  Biso   1.000  C
  C107     1.0000 0.00139  0.18899  0.38480  Biso   1.000  C
  C108     1.0000 0.96312  0.22592  0.27669  Biso   1.000  C
  C109     1.0000 0.87099  0.24439  0.29728  Biso   1.000  C
  C110     1.0000 0.55967  0.28627  0.49988  Biso   1.000  C
  C111     1.0000 0.57983  0.23283  0.56045  Biso   1.000  C
  C112     1.0000 0.51397  0.24117  0.61130  Biso   1.000  C
  C113     1.0000 0.41399  0.35419  0.55290  Biso   1.000  C
  C114     1.0000 0.47503  0.35203  0.50020  Biso   1.000  C
  C115     1.0000 0.73655  0.90135  0.49170  Biso   1.000  C
  C116     1.0000 0.70693  0.94513  0.42353  Biso   1.000  C
  C117     1.0000 0.77576  0.99796  0.41900  Biso   1.000  C
  C118     1.0000 0.79485  0.00485  0.49060  Biso   1.000  C
  C119     1.0000 0.72197  0.97217  0.53848  Biso   1.000  C
  C120     1.0000 0.67467  0.84827  0.52010  Biso   1.000  C
  C121     1.0000 0.82560  0.82500  0.48150  Biso   1.000  C
  C122     1.0000 0.76588  0.94968  0.60350  Biso   1.000  C
  C123     1.0000 0.71905  0.88205  0.37030  Biso   1.000  C
  C124     1.0000 0.62111  0.01371  0.41260  Biso   1.000  C
  C125     1.0000 0.46763  0.99123  0.19610  Biso   1.000  C
  C126     1.0000 0.53656  0.91216  0.16195  Biso   1.000  C
  C127     1.0000 0.58117  0.96917  0.10595  Biso   1.000  C
  C128     1.0000 0.51516  0.06136  0.09220  Biso   1.000  C
  C129     1.0000 0.42631  0.05671  0.13860  Biso   1.000  C
  C130     1.0000 0.39844  0.95704  0.23930  Biso   1.000  C
  C131     1.0000 0.51061  0.03381  0.24540  Biso   1.000  C
  C132     1.0000 0.60245  0.84965  0.20330  Biso   1.000  C
  C133     1.0000 0.37337  0.14977  0.15950  Biso   1.000  C
  C134     1.0000 0.48543  0.86483  0.12760  Biso   1.000  C
  C135     1.0000 0.72248  0.38628  0.12701  Biso   1.000  C
  C136     1.0000 0.72500  0.37600  0.05830  Biso   1.000  C
  C137     1.0000 0.74840  0.24860  0.11730  Biso   1.000  C
  C138     1.0000 0.71528  0.46168  0.16380  Biso   1.000  C
  C139     1.0000 0.73362  0.54282  0.13640  Biso   1.000  C
  C140     1.0000 0.71992  0.60892  0.17830  Biso   1.000  C
  C141     1.0000 0.67768  0.53208  0.27030  Biso   1.000  C
  C142     1.0000 0.69311  0.45671  0.23050  Biso   1.000  C
  C143     1.0000 0.76591  0.15231  0.13625  Biso   1.000  C
  C144     1.0000 0.79637  0.08677  0.09273  Biso   1.000  C
  C145     1.0000 0.81101  0.99861  0.11520  Biso   1.000  C
  C146     1.0000 0.77408  0.03688  0.22331  Biso   1.000  C
  C147     1.0000 0.75561  0.12901  0.20272  Biso   1.000  C
  C148     1.0000 0.71373  0.44033  0.00012  Biso   1.000  C
  C149     1.0000 0.76717  0.42017  0.93955  Biso   1.000  C
  C150     1.0000 0.75883  0.48603  0.88870  Biso   1.000  C
  C151     1.0000 0.64581  0.58601  0.94710  Biso   1.000  C
  C152     1.0000 0.64797  0.52497  0.99980  Biso   1.000  C
  N1       1.0000 0.30684  0.73932  0.66082  Biso   1.000  N
  N2       1.0000 0.28891  0.74201  0.55152  Biso   1.000  N
  N3       1.0000 0.60376  0.69920  0.74333  Biso   1.000  N
  N4       1.0000 0.97358  0.80024  0.68225  Biso   1.000  N
  N5       1.0000 0.56708  0.69582  0.39082  Biso   1.000  N
  N6       1.0000 0.26068  0.69316  0.83918  Biso   1.000  N
  N7       1.0000 0.25799  0.71109  0.94848  Biso   1.000  N
  N8       1.0000 0.30080  0.39624  0.75667  Biso   1.000  N
  N9       1.0000 0.19976  0.02642  0.81775  Biso   1.000  N
  N10      1.0000 0.30418  0.43292  0.10918  Biso   1.000  N
  N11      1.0000 0.69316  0.26068  0.33918  Biso   1.000  N
  N12      1.0000 0.71109  0.25799  0.44848  Biso   1.000  N
  N13      1.0000 0.39624  0.30080  0.25667  Biso   1.000  N
  N14      1.0000 0.02642  0.19976  0.31775  Biso   1.000  N
  N15      1.0000 0.43292  0.30418  0.60918  Biso   1.000  N
  N16      1.0000 0.73932  0.30684  0.16082  Biso   1.000  N
  N17      1.0000 0.74201  0.28891  0.05152  Biso   1.000  N
  N18      1.0000 0.69920  0.60376  0.24333  Biso   1.000  N
  N19      1.0000 0.80024  0.97358  0.18225  Biso   1.000  N
  N20      1.0000 0.69582  0.56708  0.89082  Biso   1.000  N
  O1       1.0000 0.88376  0.78280  0.83080  Biso   1.000  O
  O2       1.0000 0.83459  0.66693  0.86881  Biso   1.000  O
  O3       1.0000 0.00632  0.79806  0.12517  Biso   1.000  O
  O4       1.0000 0.88075  0.76053  0.13701  Biso   1.000  O
  O5       1.0000 0.83885  0.68081  0.70141  Biso   1.000  O
  O6       1.0000 0.80206  0.56722  0.74660  Biso   1.000  O
  O7       1.0000 0.15855  0.31431  0.70739  Biso   1.000  O
  O8       1.0000 0.21334  0.38520  0.62537  Biso   1.000  O
  O9       1.0000 0.21720  0.11624  0.66920  Biso   1.000  O
  O10      1.0000 0.33307  0.16541  0.63119  Biso   1.000  O
  O11      1.0000 0.20194  0.99368  0.37483  Biso   1.000  O
  O12      1.0000 0.23947  0.11925  0.36299  Biso   1.000  O
  O13      1.0000 0.31919  0.16115  0.79859  Biso   1.000  O
  O14      1.0000 0.43278  0.19794  0.75340  Biso   1.000  O
  O15      1.0000 0.68569  0.84145  0.79261  Biso   1.000  O
  O16      1.0000 0.61480  0.78666  0.87463  Biso   1.000  O
  O17      1.0000 0.11624  0.21720  0.16920  Biso   1.000  O
  O18      1.0000 0.16541  0.33307  0.13119  Biso   1.000  O
  O19      1.0000 0.99368  0.20194  0.87483  Biso   1.000  O
  O20      1.0000 0.11925  0.23947  0.86299  Biso   1.000  O
  O21      1.0000 0.16115  0.31919  0.29859  Biso   1.000  O
  O22      1.0000 0.19794  0.43278  0.25340  Biso   1.000  O
  O23      1.0000 0.84145  0.68569  0.29261  Biso   1.000  O
  O24      1.0000 0.78666  0.61480  0.37463  Biso   1.000  O
  O25      1.0000 0.78280  0.88376  0.33080  Biso   1.000  O
  O26      1.0000 0.66693  0.83459  0.36881  Biso   1.000  O
  O27      1.0000 0.79806  0.00632  0.62517  Biso   1.000  O
  O28      1.0000 0.76053  0.88075  0.63701  Biso   1.000  O
  O29      1.0000 0.68081  0.83885  0.20141  Biso   1.000  O
  O30      1.0000 0.56722  0.80206  0.24660  Biso   1.000  O
  O31      1.0000 0.31431  0.15855  0.20739  Biso   1.000  O
  O32      1.0000 0.38520  0.21334  0.12537  Biso   1.000  O
