data_image0
_cell_length_a       15.5863
_cell_length_b       15.5863
_cell_length_c       15.5863
_cell_angle_alpha    90
_cell_angle_beta     90
_cell_angle_gamma    90

_symmetry_space_group_name_H-M    "P 1"
_symmetry_int_tables_number       1

loop_
  _symmetry_equiv_pos_as_xyz
  'x, y, z'

loop_
  _atom_site_label
  _atom_site_occupancy
  _atom_site_fract_x
  _atom_site_fract_y
  _atom_site_fract_z
  _atom_site_thermal_displace_type
  _atom_site_B_iso_or_equiv
  _atom_site_type_symbol
  O1       1.0000 0.12292  0.01071  0.36103  Biso   1.000  O
  O2       1.0000 0.62292  0.51071  0.86103  Biso   1.000  O
  O3       1.0000 0.37708  0.98929  0.86103  Biso   1.000  O
  O4       1.0000 0.87708  0.48929  0.36103  Biso   1.000  O
  O5       1.0000 0.87708  0.51071  0.13897  Biso   1.000  O
  O6       1.0000 0.37708  0.01071  0.63897  Biso   1.000  O
  O7       1.0000 0.62292  0.48929  0.63897  Biso   1.000  O
  O8       1.0000 0.12292  0.98929  0.13897  Biso   1.000  O
  O9       1.0000 0.36103  0.12292  0.01071  Biso   1.000  O
  O10      1.0000 0.86103  0.62292  0.51071  Biso   1.000  O
  O11      1.0000 0.86103  0.37708  0.98929  Biso   1.000  O
  O12      1.0000 0.36103  0.87708  0.48929  Biso   1.000  O
  O13      1.0000 0.13897  0.87708  0.51071  Biso   1.000  O
  O14      1.0000 0.63897  0.37708  0.01071  Biso   1.000  O
  O15      1.0000 0.63897  0.62292  0.48929  Biso   1.000  O
  O16      1.0000 0.13897  0.12292  0.98929  Biso   1.000  O
  O17      1.0000 0.01071  0.36103  0.12292  Biso   1.000  O
  O18      1.0000 0.51071  0.86103  0.62292  Biso   1.000  O
  O19      1.0000 0.98929  0.86103  0.37708  Biso   1.000  O
  O20      1.0000 0.48929  0.36103  0.87708  Biso   1.000  O
  O21      1.0000 0.51071  0.13897  0.87708  Biso   1.000  O
  O22      1.0000 0.01071  0.63897  0.37708  Biso   1.000  O
  O23      1.0000 0.48929  0.63897  0.62292  Biso   1.000  O
  O24      1.0000 0.98929  0.13897  0.12292  Biso   1.000  O
  O25      1.0000 0.76071  0.37292  0.88897  Biso   1.000  O
  O26      1.0000 0.26071  0.87292  0.38897  Biso   1.000  O
  O27      1.0000 0.73929  0.62708  0.38897  Biso   1.000  O
  O28      1.0000 0.23929  0.12708  0.88897  Biso   1.000  O
  O29      1.0000 0.26071  0.12708  0.11103  Biso   1.000  O
  O30      1.0000 0.76071  0.62708  0.61103  Biso   1.000  O
  O31      1.0000 0.23929  0.87292  0.61103  Biso   1.000  O
  O32      1.0000 0.73929  0.37292  0.11103  Biso   1.000  O
  O33      1.0000 0.87292  0.61103  0.23929  Biso   1.000  O
  O34      1.0000 0.37292  0.11103  0.73929  Biso   1.000  O
  O35      1.0000 0.12708  0.11103  0.26071  Biso   1.000  O
  O36      1.0000 0.62708  0.61103  0.76071  Biso   1.000  O
  O37      1.0000 0.62708  0.38897  0.73929  Biso   1.000  O
  O38      1.0000 0.12708  0.88897  0.23929  Biso   1.000  O
  O39      1.0000 0.37292  0.88897  0.76071  Biso   1.000  O
  O40      1.0000 0.87292  0.38897  0.26071  Biso   1.000  O
  O41      1.0000 0.11103  0.26071  0.12708  Biso   1.000  O
  O42      1.0000 0.61103  0.76071  0.62708  Biso   1.000  O
  O43      1.0000 0.61103  0.23929  0.87292  Biso   1.000  O
  O44      1.0000 0.11103  0.73929  0.37292  Biso   1.000  O
  O45      1.0000 0.88897  0.76071  0.37292  Biso   1.000  O
  O46      1.0000 0.38897  0.26071  0.87292  Biso   1.000  O
  O47      1.0000 0.38897  0.73929  0.62708  Biso   1.000  O
  O48      1.0000 0.88897  0.23929  0.12708  Biso   1.000  O
  Fe1      1.0000 0.12500  0.87500  0.37500  Biso   1.000  Fe
  Fe2      1.0000 0.37500  0.12500  0.87500  Biso   1.000  Fe
  Fe3      1.0000 0.87500  0.37500  0.12500  Biso   1.000  Fe
  Fe4      1.0000 0.37500  0.87500  0.62500  Biso   1.000  Fe
  Fe5      1.0000 0.62500  0.62500  0.62500  Biso   1.000  Fe
  Fe6      1.0000 0.87500  0.62500  0.37500  Biso   1.000  Fe
  Fe7      1.0000 0.62500  0.37500  0.87500  Biso   1.000  Fe
  Fe8      1.0000 0.12500  0.12500  0.12500  Biso   1.000  Fe
  C1       1.0000 0.12500  0.03543  0.28543  Biso   1.000  C
  C2       1.0000 0.62500  0.53543  0.78543  Biso   1.000  C
  C3       1.0000 0.37500  0.96457  0.78543  Biso   1.000  C
  C4       1.0000 0.87500  0.46457  0.28543  Biso   1.000  C
  C5       1.0000 0.87500  0.53543  0.21457  Biso   1.000  C
  C6       1.0000 0.37500  0.03543  0.71457  Biso   1.000  C
  C7       1.0000 0.62500  0.46457  0.71457  Biso   1.000  C
  C8       1.0000 0.12500  0.96457  0.21457  Biso   1.000  C
  C9       1.0000 0.28543  0.12500  0.03543  Biso   1.000  C
  C10      1.0000 0.78543  0.62500  0.53543  Biso   1.000  C
  C11      1.0000 0.78543  0.37500  0.96457  Biso   1.000  C
  C12      1.0000 0.28543  0.87500  0.46457  Biso   1.000  C
  C13      1.0000 0.21457  0.87500  0.53543  Biso   1.000  C
  C14      1.0000 0.71457  0.37500  0.03543  Biso   1.000  C
  C15      1.0000 0.71457  0.62500  0.46457  Biso   1.000  C
  C16      1.0000 0.21457  0.12500  0.96457  Biso   1.000  C
  C17      1.0000 0.03543  0.28543  0.12500  Biso   1.000  C
  C18      1.0000 0.53543  0.78543  0.62500  Biso   1.000  C
  C19      1.0000 0.96457  0.78543  0.37500  Biso   1.000  C
  C20      1.0000 0.46457  0.28543  0.87500  Biso   1.000  C
  C21      1.0000 0.53543  0.21457  0.87500  Biso   1.000  C
  C22      1.0000 0.03543  0.71457  0.37500  Biso   1.000  C
  C23      1.0000 0.46457  0.71457  0.62500  Biso   1.000  C
  C24      1.0000 0.96457  0.21457  0.12500  Biso   1.000  C
