data_image0
_cell_length_a       15.4519
_cell_length_b       15.4519
_cell_length_c       15.4519
_cell_angle_alpha    90
_cell_angle_beta     90
_cell_angle_gamma    90

_symmetry_space_group_name_H-M    "P 1"
_symmetry_int_tables_number       1

loop_
  _symmetry_equiv_pos_as_xyz
  'x, y, z'

loop_
  _atom_site_label
  _atom_site_occupancy
  _atom_site_fract_x
  _atom_site_fract_y
  _atom_site_fract_z
  _atom_site_thermal_displace_type
  _atom_site_B_iso_or_equiv
  _atom_site_type_symbol
  O1       1.0000 0.12410  0.01038  0.36166  Biso   1.000  O
  O2       1.0000 0.62410  0.51038  0.86166  Biso   1.000  O
  O3       1.0000 0.37590  0.98962  0.86166  Biso   1.000  O
  O4       1.0000 0.87590  0.48962  0.36166  Biso   1.000  O
  O5       1.0000 0.87590  0.51038  0.13834  Biso   1.000  O
  O6       1.0000 0.37590  0.01038  0.63834  Biso   1.000  O
  O7       1.0000 0.62410  0.48962  0.63834  Biso   1.000  O
  O8       1.0000 0.12410  0.98962  0.13834  Biso   1.000  O
  O9       1.0000 0.36166  0.12410  0.01038  Biso   1.000  O
  O10      1.0000 0.86166  0.62410  0.51038  Biso   1.000  O
  O11      1.0000 0.86166  0.37590  0.98962  Biso   1.000  O
  O12      1.0000 0.36166  0.87590  0.48962  Biso   1.000  O
  O13      1.0000 0.13834  0.87590  0.51038  Biso   1.000  O
  O14      1.0000 0.63834  0.37590  0.01038  Biso   1.000  O
  O15      1.0000 0.63834  0.62410  0.48962  Biso   1.000  O
  O16      1.0000 0.13834  0.12410  0.98962  Biso   1.000  O
  O17      1.0000 0.01038  0.36166  0.12410  Biso   1.000  O
  O18      1.0000 0.51038  0.86166  0.62410  Biso   1.000  O
  O19      1.0000 0.98962  0.86166  0.37590  Biso   1.000  O
  O20      1.0000 0.48962  0.36166  0.87590  Biso   1.000  O
  O21      1.0000 0.51038  0.13834  0.87590  Biso   1.000  O
  O22      1.0000 0.01038  0.63834  0.37590  Biso   1.000  O
  O23      1.0000 0.48962  0.63834  0.62410  Biso   1.000  O
  O24      1.0000 0.98962  0.13834  0.12410  Biso   1.000  O
  O25      1.0000 0.76038  0.37410  0.88834  Biso   1.000  O
  O26      1.0000 0.26038  0.87410  0.38834  Biso   1.000  O
  O27      1.0000 0.73962  0.62590  0.38834  Biso   1.000  O
  O28      1.0000 0.23962  0.12590  0.88834  Biso   1.000  O
  O29      1.0000 0.26038  0.12590  0.11166  Biso   1.000  O
  O30      1.0000 0.76038  0.62590  0.61166  Biso   1.000  O
  O31      1.0000 0.23962  0.87410  0.61166  Biso   1.000  O
  O32      1.0000 0.73962  0.37410  0.11166  Biso   1.000  O
  O33      1.0000 0.87410  0.61166  0.23962  Biso   1.000  O
  O34      1.0000 0.37410  0.11166  0.73962  Biso   1.000  O
  O35      1.0000 0.12590  0.11166  0.26038  Biso   1.000  O
  O36      1.0000 0.62590  0.61166  0.76038  Biso   1.000  O
  O37      1.0000 0.62590  0.38834  0.73962  Biso   1.000  O
  O38      1.0000 0.12590  0.88834  0.23962  Biso   1.000  O
  O39      1.0000 0.37410  0.88834  0.76038  Biso   1.000  O
  O40      1.0000 0.87410  0.38834  0.26038  Biso   1.000  O
  O41      1.0000 0.11166  0.26038  0.12590  Biso   1.000  O
  O42      1.0000 0.61166  0.76038  0.62590  Biso   1.000  O
  O43      1.0000 0.61166  0.23962  0.87410  Biso   1.000  O
  O44      1.0000 0.11166  0.73962  0.37410  Biso   1.000  O
  O45      1.0000 0.88834  0.76038  0.37410  Biso   1.000  O
  O46      1.0000 0.38834  0.26038  0.87410  Biso   1.000  O
  O47      1.0000 0.38834  0.73962  0.62590  Biso   1.000  O
  O48      1.0000 0.88834  0.23962  0.12590  Biso   1.000  O
  Co1      1.0000 0.12500  0.87500  0.37500  Biso   1.000  Co
  Co2      1.0000 0.37500  0.12500  0.87500  Biso   1.000  Co
  Co3      1.0000 0.87500  0.37500  0.12500  Biso   1.000  Co
  Co4      1.0000 0.37500  0.87500  0.62500  Biso   1.000  Co
  Co5      1.0000 0.62500  0.62500  0.62500  Biso   1.000  Co
  Co6      1.0000 0.87500  0.62500  0.37500  Biso   1.000  Co
  Co7      1.0000 0.62500  0.37500  0.87500  Biso   1.000  Co
  Co8      1.0000 0.12500  0.12500  0.12500  Biso   1.000  Co
  C1       1.0000 0.12500  0.03589  0.28589  Biso   1.000  C
  C2       1.0000 0.62500  0.53589  0.78589  Biso   1.000  C
  C3       1.0000 0.37500  0.96411  0.78589  Biso   1.000  C
  C4       1.0000 0.87500  0.46411  0.28589  Biso   1.000  C
  C5       1.0000 0.87500  0.53589  0.21411  Biso   1.000  C
  C6       1.0000 0.37500  0.03589  0.71411  Biso   1.000  C
  C7       1.0000 0.62500  0.46411  0.71411  Biso   1.000  C
  C8       1.0000 0.12500  0.96411  0.21411  Biso   1.000  C
  C9       1.0000 0.28589  0.12500  0.03589  Biso   1.000  C
  C10      1.0000 0.78589  0.62500  0.53589  Biso   1.000  C
  C11      1.0000 0.78589  0.37500  0.96411  Biso   1.000  C
  C12      1.0000 0.28589  0.87500  0.46411  Biso   1.000  C
  C13      1.0000 0.21411  0.87500  0.53589  Biso   1.000  C
  C14      1.0000 0.71411  0.37500  0.03589  Biso   1.000  C
  C15      1.0000 0.71411  0.62500  0.46411  Biso   1.000  C
  C16      1.0000 0.21411  0.12500  0.96411  Biso   1.000  C
  C17      1.0000 0.03589  0.28589  0.12500  Biso   1.000  C
  C18      1.0000 0.53589  0.78589  0.62500  Biso   1.000  C
  C19      1.0000 0.96411  0.78589  0.37500  Biso   1.000  C
  C20      1.0000 0.46411  0.28589  0.87500  Biso   1.000  C
  C21      1.0000 0.53589  0.21411  0.87500  Biso   1.000  C
  C22      1.0000 0.03589  0.71411  0.37500  Biso   1.000  C
  C23      1.0000 0.46411  0.71411  0.62500  Biso   1.000  C
  C24      1.0000 0.96411  0.21411  0.12500  Biso   1.000  C
