data_image0
_cell_length_a       15.3105
_cell_length_b       15.3105
_cell_length_c       15.3105
_cell_angle_alpha    90
_cell_angle_beta     90
_cell_angle_gamma    90

_symmetry_space_group_name_H-M    "P 1"
_symmetry_int_tables_number       1

loop_
  _symmetry_equiv_pos_as_xyz
  'x, y, z'

loop_
  _atom_site_label
  _atom_site_occupancy
  _atom_site_fract_x
  _atom_site_fract_y
  _atom_site_fract_z
  _atom_site_thermal_displace_type
  _atom_site_B_iso_or_equiv
  _atom_site_type_symbol
  O1       1.0000 0.87416  0.88692  0.73964  Biso   1.000  O
  O2       1.0000 0.37416  0.38692  0.23964  Biso   1.000  O
  O3       1.0000 0.62584  0.11308  0.23964  Biso   1.000  O
  O4       1.0000 0.12584  0.61308  0.73964  Biso   1.000  O
  O5       1.0000 0.12584  0.38692  0.76036  Biso   1.000  O
  O6       1.0000 0.62584  0.88692  0.26036  Biso   1.000  O
  O7       1.0000 0.37416  0.61308  0.26036  Biso   1.000  O
  O8       1.0000 0.87416  0.11308  0.76036  Biso   1.000  O
  O9       1.0000 0.73964  0.87416  0.88692  Biso   1.000  O
  O10      1.0000 0.23964  0.37416  0.38692  Biso   1.000  O
  O11      1.0000 0.23964  0.62584  0.11308  Biso   1.000  O
  O12      1.0000 0.73964  0.12584  0.61308  Biso   1.000  O
  O13      1.0000 0.76036  0.12584  0.38692  Biso   1.000  O
  O14      1.0000 0.26036  0.62584  0.88692  Biso   1.000  O
  O15      1.0000 0.26036  0.37416  0.61308  Biso   1.000  O
  O16      1.0000 0.76036  0.87416  0.11308  Biso   1.000  O
  O17      1.0000 0.88692  0.73964  0.87416  Biso   1.000  O
  O18      1.0000 0.38692  0.23964  0.37416  Biso   1.000  O
  O19      1.0000 0.11308  0.23964  0.62584  Biso   1.000  O
  O20      1.0000 0.61308  0.73964  0.12584  Biso   1.000  O
  O21      1.0000 0.38692  0.76036  0.12584  Biso   1.000  O
  O22      1.0000 0.88692  0.26036  0.62584  Biso   1.000  O
  O23      1.0000 0.61308  0.26036  0.37416  Biso   1.000  O
  O24      1.0000 0.11308  0.76036  0.87416  Biso   1.000  O
  O25      1.0000 0.63692  0.12416  0.51036  Biso   1.000  O
  O26      1.0000 0.13692  0.62416  0.01036  Biso   1.000  O
  O27      1.0000 0.86308  0.87584  0.01036  Biso   1.000  O
  O28      1.0000 0.36308  0.37584  0.51036  Biso   1.000  O
  O29      1.0000 0.13692  0.37584  0.48964  Biso   1.000  O
  O30      1.0000 0.63692  0.87584  0.98964  Biso   1.000  O
  O31      1.0000 0.36308  0.62416  0.98964  Biso   1.000  O
  O32      1.0000 0.86308  0.12416  0.48964  Biso   1.000  O
  O33      1.0000 0.62416  0.98964  0.36308  Biso   1.000  O
  O34      1.0000 0.12416  0.48964  0.86308  Biso   1.000  O
  O35      1.0000 0.37584  0.48964  0.13692  Biso   1.000  O
  O36      1.0000 0.87584  0.98964  0.63692  Biso   1.000  O
  O37      1.0000 0.87584  0.01036  0.86308  Biso   1.000  O
  O38      1.0000 0.37584  0.51036  0.36308  Biso   1.000  O
  O39      1.0000 0.12416  0.51036  0.63692  Biso   1.000  O
  O40      1.0000 0.62416  0.01036  0.13692  Biso   1.000  O
  O41      1.0000 0.48964  0.13692  0.37584  Biso   1.000  O
  O42      1.0000 0.98964  0.63692  0.87584  Biso   1.000  O
  O43      1.0000 0.98964  0.36308  0.62416  Biso   1.000  O
  O44      1.0000 0.48964  0.86308  0.12416  Biso   1.000  O
  O45      1.0000 0.51036  0.63692  0.12416  Biso   1.000  O
  O46      1.0000 0.01036  0.13692  0.62416  Biso   1.000  O
  O47      1.0000 0.01036  0.86308  0.87584  Biso   1.000  O
  O48      1.0000 0.51036  0.36308  0.37584  Biso   1.000  O
  Ni1      1.0000 0.87500  0.87500  0.87500  Biso   1.000  Ni
  Ni2      1.0000 0.37500  0.37500  0.37500  Biso   1.000  Ni
  Ni3      1.0000 0.62500  0.12500  0.37500  Biso   1.000  Ni
  Ni4      1.0000 0.12500  0.62500  0.87500  Biso   1.000  Ni
  Ni5      1.0000 0.12500  0.37500  0.62500  Biso   1.000  Ni
  Ni6      1.0000 0.62500  0.87500  0.12500  Biso   1.000  Ni
  Ni7      1.0000 0.37500  0.62500  0.12500  Biso   1.000  Ni
  Ni8      1.0000 0.87500  0.12500  0.62500  Biso   1.000  Ni
  C1       1.0000 0.87500  0.96423  0.71423  Biso   1.000  C
  C2       1.0000 0.62500  0.03577  0.21423  Biso   1.000  C
  C3       1.0000 0.12500  0.46423  0.78577  Biso   1.000  C
  C4       1.0000 0.37500  0.53577  0.28577  Biso   1.000  C
  C5       1.0000 0.71423  0.87500  0.96423  Biso   1.000  C
  C6       1.0000 0.21423  0.62500  0.03577  Biso   1.000  C
  C7       1.0000 0.78577  0.12500  0.46423  Biso   1.000  C
  C8       1.0000 0.28577  0.37500  0.53577  Biso   1.000  C
  C9       1.0000 0.96423  0.71423  0.87500  Biso   1.000  C
  C10      1.0000 0.03577  0.21423  0.62500  Biso   1.000  C
  C11      1.0000 0.46423  0.78577  0.12500  Biso   1.000  C
  C12      1.0000 0.53577  0.28577  0.37500  Biso   1.000  C
  C13      1.0000 0.71423  0.12500  0.53577  Biso   1.000  C
  C14      1.0000 0.78577  0.87500  0.03577  Biso   1.000  C
  C15      1.0000 0.21423  0.37500  0.46423  Biso   1.000  C
  C16      1.0000 0.28577  0.62500  0.96423  Biso   1.000  C
  C17      1.0000 0.62500  0.96423  0.28577  Biso   1.000  C
  C18      1.0000 0.37500  0.46423  0.21423  Biso   1.000  C
  C19      1.0000 0.87500  0.03577  0.78577  Biso   1.000  C
  C20      1.0000 0.12500  0.53577  0.71423  Biso   1.000  C
  C21      1.0000 0.46423  0.21423  0.37500  Biso   1.000  C
  C22      1.0000 0.96423  0.28577  0.62500  Biso   1.000  C
  C23      1.0000 0.53577  0.71423  0.12500  Biso   1.000  C
  C24      1.0000 0.03577  0.78577  0.87500  Biso   1.000  C
