data_image0
_cell_length_a       9.75539
_cell_length_b       13.243
_cell_length_c       13.5956
_cell_angle_alpha    118.303
_cell_angle_beta     90
_cell_angle_gamma    111.612

_symmetry_space_group_name_H-M    P 1
_symmetry_int_tables_number       1

loop_
  _symmetry_equiv_pos_as_xyz
  'x, y, z'

loop_
  _atom_site_label
  _atom_site_occupancy
  _atom_site_fract_x
  _atom_site_fract_y
  _atom_site_fract_z
  _atom_site_thermal_displace_type
  _atom_site_B_iso_or_equiv
  _atom_site_type_symbol
  Cd1      1.0000 0.32318  0.51296  0.85645  Biso   1.000  Cd
  Cd2      1.0000 0.81897  0.49182  0.60272  Biso   1.000  Cd
  Cd3      1.0000 0.81022  0.48704  0.14355  Biso   1.000  Cd
  Cd4      1.0000 0.32715  0.50818  0.39728  Biso   1.000  Cd
  H1       1.0000 0.40400  0.80600  0.00290  Biso   1.000  H
  H2       1.0000 0.59660  0.00220  0.11170  Biso   1.000  H
  H3       1.0000 0.89070  0.84120  0.05920  Biso   1.000  H
  H4       1.0000 0.68260  0.64400  0.95720  Biso   1.000  H
  H5       1.0000 0.77000  0.17720  0.20530  Biso   1.000  H
  H6       1.0000 0.97080  0.37360  0.29750  Biso   1.000  H
  H7       1.0000 0.25960  0.22000  0.23920  Biso   1.000  H
  H8       1.0000 0.06620  0.01820  0.13680  Biso   1.000  H
  H9       1.0000 0.95340  0.37400  0.78500  Biso   1.000  H
  H10      1.0000 0.75570  0.17760  0.69510  Biso   1.000  H
  H11      1.0000 0.05890  0.02220  0.63580  Biso   1.000  H
  H12      1.0000 0.24780  0.22400  0.72150  Biso   1.000  H
  H13      1.0000 0.69010  0.64840  0.45990  Biso   1.000  H
  H14      1.0000 0.88970  0.84860  0.54820  Biso   1.000  H
  H15      1.0000 0.58310  0.99680  0.64030  Biso   1.000  H
  H16      1.0000 0.39270  0.79280  0.54990  Biso   1.000  H
  H17      1.0000 0.26960  0.49180  0.05810  Biso   1.000  H
  H18      1.0000 0.39380  0.43360  0.00910  Biso   1.000  H
  H19      1.0000 0.12280  0.61840  0.99620  Biso   1.000  H
  H20      1.0000 0.09770  0.62060  0.87770  Biso   1.000  H
  H21      1.0000 0.98030  0.54600  0.43970  Biso   1.000  H
  H22      1.0000 0.96770  0.67700  0.53340  Biso   1.000  H
  H23      1.0000 0.59800  0.19400  0.99710  Biso   1.000  H
  H24      1.0000 0.59440  0.99780  0.88830  Biso   1.000  H
  H25      1.0000 0.04950  0.15880  0.94080  Biso   1.000  H
  H26      1.0000 0.03860  0.35600  0.04280  Biso   1.000  H
  H27      1.0000 0.59280  0.82280  0.79470  Biso   1.000  H
  H28      1.0000 0.59720  0.62640  0.70250  Biso   1.000  H
  H29      1.0000 0.03960  0.78000  0.76080  Biso   1.000  H
  H30      1.0000 0.04800  0.98180  0.86320  Biso   1.000  H
  H31      1.0000 0.57940  0.62600  0.21500  Biso   1.000  H
  H32      1.0000 0.57810  0.82240  0.30490  Biso   1.000  H
  H33      1.0000 0.03670  0.97780  0.36420  Biso   1.000  H
  H34      1.0000 0.02380  0.77600  0.27850  Biso   1.000  H
  H35      1.0000 0.04170  0.35160  0.54010  Biso   1.000  H
  H36      1.0000 0.04110  0.15140  0.45180  Biso   1.000  H
  H37      1.0000 0.58630  0.00320  0.35970  Biso   1.000  H
  H38      1.0000 0.59990  0.20720  0.45010  Biso   1.000  H
  H39      1.0000 0.77780  0.50820  0.94190  Biso   1.000  H
  H40      1.0000 0.96020  0.56640  0.99090  Biso   1.000  H
  H41      1.0000 0.50440  0.38160  0.00380  Biso   1.000  H
  H42      1.0000 0.47710  0.37940  0.12230  Biso   1.000  H
  H43      1.0000 0.43430  0.45400  0.56030  Biso   1.000  H
  H44      1.0000 0.29070  0.32300  0.46660  Biso   1.000  H
  C1       1.0000 0.50320  0.81240  0.01460  Biso   1.000  C
  C2       1.0000 0.61940  0.93100  0.07930  Biso   1.000  C
  C3       1.0000 0.76490  0.94520  0.09830  Biso   1.000  C
  C4       1.0000 0.79070  0.83680  0.04960  Biso   1.000  C
  C5       1.0000 0.66620  0.71840  0.98750  Biso   1.000  C
  C6       1.0000 0.89260  0.07480  0.16110  Biso   1.000  C
  C7       1.0000 0.86930  0.18320  0.21010  Biso   1.000  C
  C8       1.0000 0.99040  0.30040  0.26700  Biso   1.000  C
  C9       1.0000 0.15810  0.21080  0.23150  Biso   1.000  C
  C10      1.0000 0.04400  0.09040  0.17110  Biso   1.000  C
  C11      1.0000 0.97490  0.30180  0.75330  Biso   1.000  C
  C12      1.0000 0.85610  0.18440  0.70210  Biso   1.000  C
  C13      1.0000 0.88330  0.07620  0.65990  Biso   1.000  C
  C14      1.0000 0.03460  0.09300  0.66650  Biso   1.000  C
  C15      1.0000 0.14610  0.21420  0.71770  Biso   1.000  C
  C16      1.0000 0.66820  0.72020  0.49680  Biso   1.000  C
  C17      1.0000 0.78790  0.84000  0.54990  Biso   1.000  C
  C18      1.0000 0.75780  0.94700  0.60440  Biso   1.000  C
  C19      1.0000 0.60880  0.92720  0.60400  Biso   1.000  C
  C20      1.0000 0.49460  0.80420  0.54930  Biso   1.000  C
  C21      1.0000 0.69080  0.18760  0.98540  Biso   1.000  C
  C22      1.0000 0.68840  0.06900  0.92070  Biso   1.000  C
  C23      1.0000 0.81970  0.05480  0.90170  Biso   1.000  C
  C24      1.0000 0.95390  0.16320  0.95040  Biso   1.000  C
  C25      1.0000 0.94780  0.28160  0.01250  Biso   1.000  C
  C26      1.0000 0.81780  0.92520  0.83890  Biso   1.000  C
  C27      1.0000 0.68610  0.81680  0.78990  Biso   1.000  C
  C28      1.0000 0.69000  0.69960  0.73300  Biso   1.000  C
  C29      1.0000 0.94730  0.78920  0.76850  Biso   1.000  C
  C30      1.0000 0.95360  0.90960  0.82890  Biso   1.000  C
  C31      1.0000 0.67310  0.69820  0.24670  Biso   1.000  C
  C32      1.0000 0.67170  0.81560  0.29790  Biso   1.000  C
  C33      1.0000 0.80710  0.92380  0.34010  Biso   1.000  C
  C34      1.0000 0.94160  0.90700  0.33350  Biso   1.000  C
  C35      1.0000 0.93190  0.78580  0.28230  Biso   1.000  C
  C36      1.0000 0.94800  0.27980  0.50320  Biso   1.000  C
  C37      1.0000 0.94790  0.16000  0.45010  Biso   1.000  C
  C38      1.0000 0.81080  0.05300  0.39560  Biso   1.000  C
  C39      1.0000 0.68160  0.07280  0.39600  Biso   1.000  C
  C40      1.0000 0.69040  0.19580  0.45070  Biso   1.000  C
  S1       1.0000 0.22268  0.61696  0.68840  Biso   1.000  S
  S2       1.0000 0.57714  0.37088  0.72320  Biso   1.000  S
  S3       1.0000 0.60572  0.38304  0.31160  Biso   1.000  S
  S4       1.0000 0.20626  0.62912  0.27680  Biso   1.000  S
  N1       1.0000 0.52500  0.70680  0.96880  Biso   1.000  N
  N2       1.0000 0.13350  0.31540  0.28020  Biso   1.000  N
  N3       1.0000 0.12210  0.31900  0.76190  Biso   1.000  N
  N4       1.0000 0.52410  0.70140  0.49550  Biso   1.000  N
  N5       1.0000 0.81820  0.29320  0.03120  Biso   1.000  N
  N6       1.0000 0.81810  0.68460  0.71980  Biso   1.000  N
  N7       1.0000 0.80310  0.68100  0.23810  Biso   1.000  N
  N8       1.0000 0.82270  0.29860  0.50450  Biso   1.000  N
  O1       1.0000 0.29830  0.54480  0.70510  Biso   1.000  O
  O2       1.0000 0.30640  0.75160  0.76620  Biso   1.000  O
  O3       1.0000 0.06740  0.57320  0.71000  Biso   1.000  O
  O4       1.0000 0.21130  0.58560  0.56890  Biso   1.000  O
  O5       1.0000 0.57380  0.40100  0.63150  Biso   1.000  O
  O6       1.0000 0.50890  0.23460  0.67080  Biso   1.000  O
  O7       1.0000 0.73570  0.42920  0.77620  Biso   1.000  O
  O8       1.0000 0.49530  0.42800  0.80540  Biso   1.000  O
  O9       1.0000 0.33000  0.47080  0.00350  Biso   1.000  O
  O10      1.0000 0.14560  0.60200  0.92350  Biso   1.000  O
  O11      1.0000 0.94780  0.59120  0.50590  Biso   1.000  O
  O12      1.0000 0.75350  0.45520  0.29490  Biso   1.000  O
  O13      1.0000 0.55480  0.24840  0.23380  Biso   1.000  O
  O14      1.0000 0.49420  0.42680  0.29000  Biso   1.000  O
  O15      1.0000 0.62570  0.41440  0.43110  Biso   1.000  O
  O16      1.0000 0.17280  0.59900  0.36850  Biso   1.000  O
  O17      1.0000 0.27430  0.76540  0.32920  Biso   1.000  O
  O18      1.0000 0.30650  0.57080  0.22380  Biso   1.000  O
  O19      1.0000 0.06730  0.57200  0.19460  Biso   1.000  O
  O20      1.0000 0.85920  0.52920  0.99650  Biso   1.000  O
  O21      1.0000 0.54360  0.39800  0.07650  Biso   1.000  O
  O22      1.0000 0.35660  0.40880  0.49410  Biso   1.000  O
