data_image0
_cell_length_a       9.9998
_cell_length_b       17.664
_cell_length_c       27.294
_cell_angle_alpha    90
_cell_angle_beta     90
_cell_angle_gamma    100.51

_symmetry_space_group_name_H-M    P 1
_symmetry_int_tables_number       1

loop_
  _symmetry_equiv_pos_as_xyz
  'x, y, z'

loop_
  _atom_site_label
  _atom_site_occupancy
  _atom_site_fract_x
  _atom_site_fract_y
  _atom_site_fract_z
  _atom_site_thermal_displace_type
  _atom_site_B_iso_or_equiv
  _atom_site_type_symbol
  Cu1      1.0000 0.75405  0.17626  0.59216  Biso   1.000  Cu
  Cu2      1.0000 0.11531  0.18053  0.54955  Biso   1.000  Cu
  Cu3      1.0000 0.05419  0.29837  0.65788  Biso   1.000  Cu
  Cu4      1.0000 0.24595  0.32374  0.09216  Biso   1.000  Cu
  Cu5      1.0000 0.88469  0.31947  0.04955  Biso   1.000  Cu
  Cu6      1.0000 0.94581  0.20163  0.15788  Biso   1.000  Cu
  Cu7      1.0000 0.24595  0.82374  0.40784  Biso   1.000  Cu
  Cu8      1.0000 0.88469  0.81947  0.45045  Biso   1.000  Cu
  Cu9      1.0000 0.94581  0.70163  0.34212  Biso   1.000  Cu
  Cu10     1.0000 0.75405  0.67626  0.90784  Biso   1.000  Cu
  Cu11     1.0000 0.11531  0.68053  0.95045  Biso   1.000  Cu
  Cu12     1.0000 0.05419  0.79837  0.84212  Biso   1.000  Cu
  Mo1      1.0000 0.98427  0.14879  0.63556  Biso   1.000  Mo
  Mo2      1.0000 0.01573  0.35121  0.13556  Biso   1.000  Mo
  Mo3      1.0000 0.01573  0.85121  0.36444  Biso   1.000  Mo
  Mo4      1.0000 0.98427  0.64879  0.86444  Biso   1.000  Mo
  H1       1.0000 0.14910  0.01790  0.55390  Biso   1.000  H
  H2       1.0000 0.31070  0.94060  0.53930  Biso   1.000  H
  H3       1.0000 0.54170  0.12330  0.47390  Biso   1.000  H
  H4       1.0000 0.37340  0.19330  0.48990  Biso   1.000  H
  H5       1.0000 0.32780  0.81290  0.79490  Biso   1.000  H
  H6       1.0000 0.46110  0.88700  0.73750  Biso   1.000  H
  H7       1.0000 0.13360  0.97590  0.69630  Biso   1.000  H
  H8       1.0000 0.00890  0.89850  0.75450  Biso   1.000  H
  H9       1.0000 0.30440  0.08280  0.67650  Biso   1.000  H
  H10      1.0000 0.45940  0.16340  0.62800  Biso   1.000  H
  H11      1.0000 0.67770  0.00250  0.61140  Biso   1.000  H
  H12      1.0000 0.53040  0.91770  0.65890  Biso   1.000  H
  H13      1.0000 0.28150  0.33370  0.51670  Biso   1.000  H
  H14      1.0000 0.25140  0.44310  0.47320  Biso   1.000  H
  H15      1.0000 0.86880  0.33460  0.44250  Biso   1.000  H
  H16      1.0000 0.91220  0.22890  0.48430  Biso   1.000  H
  H17      1.0000 0.17050  0.55110  0.46190  Biso   1.000  H
  H18      1.0000 0.11760  0.65730  0.42170  Biso   1.000  H
  H19      1.0000 0.82940  0.52680  0.34660  Biso   1.000  H
  H20      1.0000 0.86370  0.41920  0.38840  Biso   1.000  H
  H21      1.0000 0.85090  0.48210  0.05390  Biso   1.000  H
  H22      1.0000 0.68930  0.55940  0.03930  Biso   1.000  H
  H23      1.0000 0.45830  0.37670  0.97390  Biso   1.000  H
  H24      1.0000 0.62660  0.30670  0.98990  Biso   1.000  H
  H25      1.0000 0.67220  0.68710  0.29490  Biso   1.000  H
  H26      1.0000 0.53890  0.61300  0.23750  Biso   1.000  H
  H27      1.0000 0.86640  0.52410  0.19630  Biso   1.000  H
  H28      1.0000 0.99110  0.60150  0.25450  Biso   1.000  H
  H29      1.0000 0.69560  0.41720  0.17650  Biso   1.000  H
  H30      1.0000 0.54060  0.33660  0.12800  Biso   1.000  H
  H31      1.0000 0.32230  0.49750  0.11140  Biso   1.000  H
  H32      1.0000 0.46960  0.58230  0.15890  Biso   1.000  H
  H33      1.0000 0.71850  0.16630  0.01670  Biso   1.000  H
  H34      1.0000 0.74860  0.05690  0.97320  Biso   1.000  H
  H35      1.0000 0.13120  0.16540  0.94250  Biso   1.000  H
  H36      1.0000 0.08780  0.27110  0.98430  Biso   1.000  H
  H37      1.0000 0.82950  0.94890  0.96190  Biso   1.000  H
  H38      1.0000 0.88240  0.84270  0.92170  Biso   1.000  H
  H39      1.0000 0.17060  0.97320  0.84660  Biso   1.000  H
  H40      1.0000 0.13630  0.08080  0.88840  Biso   1.000  H
  H41      1.0000 0.85090  0.98210  0.44610  Biso   1.000  H
  H42      1.0000 0.68930  0.05940  0.46070  Biso   1.000  H
  H43      1.0000 0.45830  0.87670  0.52610  Biso   1.000  H
  H44      1.0000 0.62660  0.80670  0.51010  Biso   1.000  H
  H45      1.0000 0.67220  0.18710  0.20510  Biso   1.000  H
  H46      1.0000 0.53890  0.11300  0.26250  Biso   1.000  H
  H47      1.0000 0.86640  0.02410  0.30370  Biso   1.000  H
  H48      1.0000 0.99110  0.10150  0.24550  Biso   1.000  H
  H49      1.0000 0.69560  0.91720  0.32350  Biso   1.000  H
  H50      1.0000 0.54060  0.83660  0.37200  Biso   1.000  H
  H51      1.0000 0.32230  0.99750  0.38860  Biso   1.000  H
  H52      1.0000 0.46960  0.08230  0.34110  Biso   1.000  H
  H53      1.0000 0.71850  0.66630  0.48330  Biso   1.000  H
  H54      1.0000 0.74860  0.55690  0.52680  Biso   1.000  H
  H55      1.0000 0.13120  0.66540  0.55750  Biso   1.000  H
  H56      1.0000 0.08780  0.77110  0.51570  Biso   1.000  H
  H57      1.0000 0.82950  0.44890  0.53810  Biso   1.000  H
  H58      1.0000 0.88240  0.34270  0.57830  Biso   1.000  H
  H59      1.0000 0.17060  0.47320  0.65340  Biso   1.000  H
  H60      1.0000 0.13630  0.58080  0.61160  Biso   1.000  H
  H61      1.0000 0.14910  0.51790  0.94610  Biso   1.000  H
  H62      1.0000 0.31070  0.44060  0.96070  Biso   1.000  H
  H63      1.0000 0.54170  0.62330  0.02610  Biso   1.000  H
  H64      1.0000 0.37340  0.69330  0.01010  Biso   1.000  H
  H65      1.0000 0.32780  0.31290  0.70510  Biso   1.000  H
  H66      1.0000 0.46110  0.38700  0.76250  Biso   1.000  H
  H67      1.0000 0.13360  0.47590  0.80370  Biso   1.000  H
  H68      1.0000 0.00890  0.39850  0.74550  Biso   1.000  H
  H69      1.0000 0.30440  0.58280  0.82350  Biso   1.000  H
  H70      1.0000 0.45940  0.66340  0.87200  Biso   1.000  H
  H71      1.0000 0.67770  0.50250  0.88860  Biso   1.000  H
  H72      1.0000 0.53040  0.41770  0.84110  Biso   1.000  H
  H73      1.0000 0.28150  0.83370  0.98330  Biso   1.000  H
  H74      1.0000 0.25140  0.94310  0.02680  Biso   1.000  H
  H75      1.0000 0.86880  0.83460  0.05750  Biso   1.000  H
  H76      1.0000 0.91220  0.72890  0.01570  Biso   1.000  H
  H77      1.0000 0.17050  0.05110  0.03810  Biso   1.000  H
  H78      1.0000 0.11760  0.15730  0.07830  Biso   1.000  H
  H79      1.0000 0.82940  0.02680  0.15340  Biso   1.000  H
  H80      1.0000 0.86370  0.91920  0.11160  Biso   1.000  H
  C1       1.0000 0.63690  0.28320  0.52030  Biso   1.000  C
  C2       1.0000 0.23090  0.03980  0.53750  Biso   1.000  C
  C3       1.0000 0.32710  0.99280  0.52890  Biso   1.000  C
  C4       1.0000 0.44690  0.02380  0.50480  Biso   1.000  C
  C5       1.0000 0.46170  0.09950  0.49060  Biso   1.000  C
  C6       1.0000 0.36050  0.14130  0.50060  Biso   1.000  C
  C7       1.0000 0.28810  0.84710  0.77500  Biso   1.000  C
  C8       1.0000 0.36800  0.89110  0.74070  Biso   1.000  C
  C9       1.0000 0.31430  0.94090  0.71090  Biso   1.000  C
  C10      1.0000 0.17610  0.94320  0.71640  Biso   1.000  C
  C11      1.0000 0.10310  0.89710  0.75140  Biso   1.000  C
  C12      1.0000 0.40290  0.99240  0.67600  Biso   1.000  C
  C13      1.0000 0.38240  0.06530  0.66450  Biso   1.000  C
  C14      1.0000 0.47550  0.11320  0.63530  Biso   1.000  C
  C15      1.0000 0.60200  0.01980  0.62570  Biso   1.000  C
  C16      1.0000 0.51480  0.96870  0.65420  Biso   1.000  C
  C17      1.0000 0.19650  0.33400  0.50130  Biso   1.000  C
  C18      1.0000 0.17870  0.40040  0.47580  Biso   1.000  C
  C19      1.0000 0.05340  0.40320  0.45420  Biso   1.000  C
  C20      1.0000 0.95490  0.33650  0.45760  Biso   1.000  C
  C21      1.0000 0.98170  0.27340  0.48270  Biso   1.000  C
  C22      1.0000 0.02530  0.47240  0.42900  Biso   1.000  C
  C23      1.0000 0.09850  0.54460  0.43870  Biso   1.000  C
  C24      1.0000 0.06620  0.60800  0.41420  Biso   1.000  C
  C25      1.0000 0.89760  0.53230  0.37120  Biso   1.000  C
  C26      1.0000 0.92000  0.46750  0.39500  Biso   1.000  C
  C27      1.0000 0.36310  0.21680  0.02030  Biso   1.000  C
  C28      1.0000 0.76910  0.46020  0.03750  Biso   1.000  C
  C29      1.0000 0.67290  0.50720  0.02890  Biso   1.000  C
  C30      1.0000 0.55310  0.47620  0.00480  Biso   1.000  C
  C31      1.0000 0.53830  0.40050  0.99060  Biso   1.000  C
  C32      1.0000 0.63950  0.35870  0.00060  Biso   1.000  C
  C33      1.0000 0.71190  0.65290  0.27500  Biso   1.000  C
  C34      1.0000 0.63200  0.60890  0.24070  Biso   1.000  C
  C35      1.0000 0.68570  0.55910  0.21090  Biso   1.000  C
  C36      1.0000 0.82390  0.55680  0.21640  Biso   1.000  C
  C37      1.0000 0.89690  0.60290  0.25140  Biso   1.000  C
  C38      1.0000 0.59710  0.50760  0.17600  Biso   1.000  C
  C39      1.0000 0.61760  0.43470  0.16450  Biso   1.000  C
  C40      1.0000 0.52450  0.38680  0.13530  Biso   1.000  C
  C41      1.0000 0.39800  0.48020  0.12570  Biso   1.000  C
  C42      1.0000 0.48520  0.53130  0.15420  Biso   1.000  C
  C43      1.0000 0.80350  0.16600  0.00130  Biso   1.000  C
  C44      1.0000 0.82130  0.09960  0.97580  Biso   1.000  C
  C45      1.0000 0.94660  0.09680  0.95420  Biso   1.000  C
  C46      1.0000 0.04510  0.16350  0.95760  Biso   1.000  C
  C47      1.0000 0.01830  0.22660  0.98270  Biso   1.000  C
  C48      1.0000 0.97470  0.02760  0.92900  Biso   1.000  C
  C49      1.0000 0.90150  0.95540  0.93870  Biso   1.000  C
  C50      1.0000 0.93380  0.89200  0.91420  Biso   1.000  C
  C51      1.0000 0.10240  0.96770  0.87120  Biso   1.000  C
  C52      1.0000 0.08000  0.03250  0.89500  Biso   1.000  C
  C53      1.0000 0.36310  0.71680  0.47970  Biso   1.000  C
  C54      1.0000 0.76910  0.96020  0.46250  Biso   1.000  C
  C55      1.0000 0.67290  0.00720  0.47110  Biso   1.000  C
  C56      1.0000 0.55310  0.97620  0.49520  Biso   1.000  C
  C57      1.0000 0.53830  0.90050  0.50940  Biso   1.000  C
  C58      1.0000 0.63950  0.85870  0.49940  Biso   1.000  C
  C59      1.0000 0.71190  0.15290  0.22500  Biso   1.000  C
  C60      1.0000 0.63200  0.10890  0.25930  Biso   1.000  C
  C61      1.0000 0.68570  0.05910  0.28910  Biso   1.000  C
  C62      1.0000 0.82390  0.05680  0.28360  Biso   1.000  C
  C63      1.0000 0.89690  0.10290  0.24860  Biso   1.000  C
  C64      1.0000 0.59710  0.00760  0.32400  Biso   1.000  C
  C65      1.0000 0.61760  0.93470  0.33550  Biso   1.000  C
  C66      1.0000 0.52450  0.88680  0.36470  Biso   1.000  C
  C67      1.0000 0.39800  0.98020  0.37430  Biso   1.000  C
  C68      1.0000 0.48520  0.03130  0.34580  Biso   1.000  C
  C69      1.0000 0.80350  0.66600  0.49870  Biso   1.000  C
  C70      1.0000 0.82130  0.59960  0.52420  Biso   1.000  C
  C71      1.0000 0.94660  0.59680  0.54580  Biso   1.000  C
  C72      1.0000 0.04510  0.66350  0.54240  Biso   1.000  C
  C73      1.0000 0.01830  0.72660  0.51730  Biso   1.000  C
  C74      1.0000 0.97470  0.52760  0.57100  Biso   1.000  C
  C75      1.0000 0.90150  0.45540  0.56130  Biso   1.000  C
  C76      1.0000 0.93380  0.39200  0.58580  Biso   1.000  C
  C77      1.0000 0.10240  0.46770  0.62880  Biso   1.000  C
  C78      1.0000 0.08000  0.53250  0.60500  Biso   1.000  C
  C79      1.0000 0.63690  0.78320  0.97970  Biso   1.000  C
  C80      1.0000 0.23090  0.53980  0.96250  Biso   1.000  C
  C81      1.0000 0.32710  0.49280  0.97110  Biso   1.000  C
  C82      1.0000 0.44690  0.52380  0.99520  Biso   1.000  C
  C83      1.0000 0.46170  0.59950  0.00940  Biso   1.000  C
  C84      1.0000 0.36050  0.64130  0.99940  Biso   1.000  C
  C85      1.0000 0.28810  0.34710  0.72500  Biso   1.000  C
  C86      1.0000 0.36800  0.39110  0.75930  Biso   1.000  C
  C87      1.0000 0.31430  0.44090  0.78910  Biso   1.000  C
  C88      1.0000 0.17610  0.44320  0.78360  Biso   1.000  C
  C89      1.0000 0.10310  0.39710  0.74860  Biso   1.000  C
  C90      1.0000 0.40290  0.49240  0.82400  Biso   1.000  C
  C91      1.0000 0.38240  0.56530  0.83550  Biso   1.000  C
  C92      1.0000 0.47550  0.61320  0.86470  Biso   1.000  C
  C93      1.0000 0.60200  0.51980  0.87430  Biso   1.000  C
  C94      1.0000 0.51480  0.46870  0.84580  Biso   1.000  C
  C95      1.0000 0.19650  0.83400  0.99870  Biso   1.000  C
  C96      1.0000 0.17870  0.90040  0.02420  Biso   1.000  C
  C97      1.0000 0.05340  0.90320  0.04580  Biso   1.000  C
  C98      1.0000 0.95490  0.83650  0.04240  Biso   1.000  C
  C99      1.0000 0.98170  0.77340  0.01730  Biso   1.000  C
  C100     1.0000 0.02530  0.97240  0.07100  Biso   1.000  C
  C101     1.0000 0.09850  0.04460  0.06130  Biso   1.000  C
  C102     1.0000 0.06620  0.10800  0.08580  Biso   1.000  C
  C103     1.0000 0.89760  0.03230  0.12880  Biso   1.000  C
  C104     1.0000 0.92000  0.96750  0.10500  Biso   1.000  C
  S1       1.0000 0.84400  0.22417  0.66642  Biso   1.000  S
  S2       1.0000 0.19222  0.22288  0.62498  Biso   1.000  S
  S3       1.0000 0.90556  0.10606  0.56050  Biso   1.000  S
  S4       1.0000 0.58130  0.33830  0.47899  Biso   1.000  S
  S5       1.0000 0.15600  0.27583  0.16642  Biso   1.000  S
  S6       1.0000 0.80778  0.27712  0.12498  Biso   1.000  S
  S7       1.0000 0.09444  0.39394  0.06050  Biso   1.000  S
  S8       1.0000 0.41870  0.16170  0.97899  Biso   1.000  S
  S9       1.0000 0.15600  0.77583  0.33358  Biso   1.000  S
  S10      1.0000 0.80778  0.77712  0.37502  Biso   1.000  S
  S11      1.0000 0.09444  0.89394  0.43950  Biso   1.000  S
  S12      1.0000 0.41870  0.66170  0.52101  Biso   1.000  S
  S13      1.0000 0.84400  0.72417  0.83358  Biso   1.000  S
  S14      1.0000 0.19222  0.72288  0.87502  Biso   1.000  S
  S15      1.0000 0.90556  0.60606  0.93950  Biso   1.000  S
  S16      1.0000 0.58130  0.83830  0.02101  Biso   1.000  S
  N1       1.0000 0.24740  0.11320  0.52410  Biso   1.000  N
  N2       1.0000 0.15600  0.85050  0.78150  Biso   1.000  N
  N3       1.0000 0.58760  0.09150  0.61680  Biso   1.000  N
  N4       1.0000 0.10010  0.27110  0.50490  Biso   1.000  N
  N5       1.0000 0.96790  0.60380  0.38110  Biso   1.000  N
  N6       1.0000 0.67550  0.24420  0.54860  Biso   1.000  N
  N7       1.0000 0.75260  0.38680  0.02410  Biso   1.000  N
  N8       1.0000 0.84400  0.64950  0.28150  Biso   1.000  N
  N9       1.0000 0.41240  0.40850  0.11680  Biso   1.000  N
  N10      1.0000 0.89990  0.22890  0.00490  Biso   1.000  N
  N11      1.0000 0.03210  0.89620  0.88110  Biso   1.000  N
  N12      1.0000 0.32450  0.25580  0.04860  Biso   1.000  N
  N13      1.0000 0.75260  0.88680  0.47590  Biso   1.000  N
  N14      1.0000 0.84400  0.14950  0.21850  Biso   1.000  N
  N15      1.0000 0.41240  0.90850  0.38320  Biso   1.000  N
  N16      1.0000 0.89990  0.72890  0.49510  Biso   1.000  N
  N17      1.0000 0.03210  0.39620  0.61890  Biso   1.000  N
  N18      1.0000 0.32450  0.75580  0.45140  Biso   1.000  N
  N19      1.0000 0.24740  0.61320  0.97590  Biso   1.000  N
  N20      1.0000 0.15600  0.35050  0.71850  Biso   1.000  N
  N21      1.0000 0.58760  0.59150  0.88320  Biso   1.000  N
  N22      1.0000 0.10010  0.77110  0.99510  Biso   1.000  N
  N23      1.0000 0.96790  0.10380  0.11890  Biso   1.000  N
  N24      1.0000 0.67550  0.74420  0.95140  Biso   1.000  N
  O1       1.0000 0.99290  0.07220  0.67330  Biso   1.000  O
  O2       1.0000 0.00710  0.42780  0.17330  Biso   1.000  O
  O3       1.0000 0.00710  0.92780  0.32670  Biso   1.000  O
  O4       1.0000 0.99290  0.57220  0.82670  Biso   1.000  O
