data_image0
_cell_length_a       17.1042
_cell_length_b       18.3052
_cell_length_c       20.236
_cell_angle_alpha    75.305
_cell_angle_beta     86.882
_cell_angle_gamma    67.409

_symmetry_space_group_name_H-M    P 1
_symmetry_int_tables_number       1

loop_
  _symmetry_equiv_pos_as_xyz
  'x, y, z'

loop_
  _atom_site_label
  _atom_site_occupancy
  _atom_site_fract_x
  _atom_site_fract_y
  _atom_site_fract_z
  _atom_site_thermal_displace_type
  _atom_site_B_iso_or_equiv
  _atom_site_type_symbol
  Cu1      1.0000 0.07860  0.15204  0.67788  Biso   1.000  Cu
  Cu2      1.0000 0.01278  0.30128  0.77457  Biso   1.000  Cu
  Cu3      1.0000 0.19708  0.29156  0.66860  Biso   1.000  Cu
  Cu4      1.0000 0.37374  0.69543  0.21973  Biso   1.000  Cu
  Cu5      1.0000 0.52600  0.65595  0.08125  Biso   1.000  Cu
  Cu6      1.0000 0.49860  0.18258  0.83481  Biso   1.000  Cu
  Cu7      1.0000 0.92140  0.84796  0.32212  Biso   1.000  Cu
  Cu8      1.0000 0.98722  0.69872  0.22543  Biso   1.000  Cu
  Cu9      1.0000 0.80292  0.70844  0.33140  Biso   1.000  Cu
  Cu10     1.0000 0.62626  0.30457  0.78027  Biso   1.000  Cu
  Cu11     1.0000 0.47400  0.34405  0.91875  Biso   1.000  Cu
  Cu12     1.0000 0.50140  0.81742  0.16519  Biso   1.000  Cu
  Mo1      1.0000 0.03572  0.31375  0.64154  Biso   1.000  Mo
  Mo2      1.0000 0.54229  0.65556  0.21161  Biso   1.000  Mo
  Mo3      1.0000 0.96428  0.68625  0.35846  Biso   1.000  Mo
  Mo4      1.0000 0.45771  0.34444  0.78839  Biso   1.000  Mo
  H1       1.0000 0.08950  0.97660  0.68990  Biso   1.000  H
  H2       1.0000 0.05830  0.91990  0.60490  Biso   1.000  H
  H3       1.0000 0.94920  0.13680  0.47010  Biso   1.000  H
  H4       1.0000 0.97070  0.19090  0.55700  Biso   1.000  H
  H5       1.0000 0.22370  0.68570  0.30220  Biso   1.000  H
  H6       1.0000 0.18360  0.60600  0.38840  Biso   1.000  H
  H7       1.0000 0.43170  0.46100  0.43220  Biso   1.000  H
  H8       1.0000 0.45940  0.55700  0.34320  Biso   1.000  H
  H9       1.0000 0.16300  0.49740  0.44690  Biso   1.000  H
  H10      1.0000 0.13520  0.40810  0.53430  Biso   1.000  H
  H11      1.0000 0.34480  0.34780  0.62940  Biso   1.000  H
  H12      1.0000 0.39000  0.42680  0.54850  Biso   1.000  H
  H13      1.0000 0.33970  0.75760  0.06230  Biso   1.000  H
  H14      1.0000 0.24410  0.85300  0.98290  Biso   1.000  H
  H15      1.0000 0.43290  0.84840  0.85090  Biso   1.000  H
  H16      1.0000 0.52350  0.75120  0.93500  Biso   1.000  H
  H17      1.0000 0.16240  0.90570  0.87710  Biso   1.000  H
  H18      1.0000 0.07320  0.00910  0.78740  Biso   1.000  H
  H19      1.0000 0.25080  0.09560  0.73770  Biso   1.000  H
  H20      1.0000 0.34830  0.98970  0.81540  Biso   1.000  H
  H21      1.0000 0.70770  0.54670  0.08970  Biso   1.000  H
  H22      1.0000 0.80830  0.47720  0.02600  Biso   1.000  H
  H23      1.0000 0.61860  0.51000  0.89400  Biso   1.000  H
  H24      1.0000 0.52710  0.57690  0.96090  Biso   1.000  H
  H25      1.0000 0.87400  0.49570  0.91690  Biso   1.000  H
  H26      1.0000 0.97540  0.43020  0.84900  Biso   1.000  H
  H27      1.0000 0.84260  0.30630  0.82140  Biso   1.000  H
  H28      1.0000 0.73410  0.37550  0.88180  Biso   1.000  H
  H29      1.0000 0.31070  0.91750  0.15340  Biso   1.000  H
  H30      1.0000 0.21130  0.01310  0.07450  Biso   1.000  H
  H31      1.0000 0.39000  0.02420  0.94210  Biso   1.000  H
  H32      1.0000 0.48940  0.91220  0.01930  Biso   1.000  H
  H33      1.0000 0.13000  0.04730  0.96970  Biso   1.000  H
  H34      1.0000 0.03200  0.15050  0.89010  Biso   1.000  H
  H35      1.0000 0.18980  0.26020  0.82770  Biso   1.000  H
  H36      1.0000 0.29270  0.16290  0.90870  Biso   1.000  H
  H37      1.0000 0.91050  0.02340  0.31010  Biso   1.000  H
  H38      1.0000 0.94170  0.08010  0.39510  Biso   1.000  H
  H39      1.0000 0.05080  0.86320  0.52990  Biso   1.000  H
  H40      1.0000 0.02930  0.80910  0.44300  Biso   1.000  H
  H41      1.0000 0.77630  0.31430  0.69780  Biso   1.000  H
  H42      1.0000 0.81640  0.39400  0.61160  Biso   1.000  H
  H43      1.0000 0.56830  0.53900  0.56780  Biso   1.000  H
  H44      1.0000 0.54060  0.44300  0.65680  Biso   1.000  H
  H45      1.0000 0.83700  0.50260  0.55310  Biso   1.000  H
  H46      1.0000 0.86480  0.59190  0.46570  Biso   1.000  H
  H47      1.0000 0.65520  0.65220  0.37060  Biso   1.000  H
  H48      1.0000 0.61000  0.57320  0.45150  Biso   1.000  H
  H49      1.0000 0.66030  0.24240  0.93770  Biso   1.000  H
  H50      1.0000 0.75590  0.14700  0.01710  Biso   1.000  H
  H51      1.0000 0.56710  0.15160  0.14910  Biso   1.000  H
  H52      1.0000 0.47650  0.24880  0.06500  Biso   1.000  H
  H53      1.0000 0.83760  0.09430  0.12290  Biso   1.000  H
  H54      1.0000 0.92680  0.99090  0.21260  Biso   1.000  H
  H55      1.0000 0.74920  0.90440  0.26230  Biso   1.000  H
  H56      1.0000 0.65170  0.01030  0.18460  Biso   1.000  H
  H57      1.0000 0.29230  0.45330  0.91030  Biso   1.000  H
  H58      1.0000 0.19170  0.52280  0.97400  Biso   1.000  H
  H59      1.0000 0.38140  0.49000  0.10600  Biso   1.000  H
  H60      1.0000 0.47290  0.42310  0.03910  Biso   1.000  H
  H61      1.0000 0.12600  0.50430  0.08310  Biso   1.000  H
  H62      1.0000 0.02460  0.56980  0.15100  Biso   1.000  H
  H63      1.0000 0.15740  0.69370  0.17860  Biso   1.000  H
  H64      1.0000 0.26590  0.62450  0.11820  Biso   1.000  H
  H65      1.0000 0.68930  0.08250  0.84660  Biso   1.000  H
  H66      1.0000 0.78870  0.98690  0.92550  Biso   1.000  H
  H67      1.0000 0.61000  0.97580  0.05790  Biso   1.000  H
  H68      1.0000 0.51060  0.08780  0.98070  Biso   1.000  H
  H69      1.0000 0.87000  0.95270  0.03030  Biso   1.000  H
  H70      1.0000 0.96800  0.84950  0.10990  Biso   1.000  H
  H71      1.0000 0.81020  0.73980  0.17230  Biso   1.000  H
  H72      1.0000 0.70730  0.83710  0.09130  Biso   1.000  H
  C1       1.0000 0.06500  0.00730  0.64600  Biso   1.000  C
  C2       1.0000 0.04350  0.97730  0.59420  Biso   1.000  C
  C3       1.0000 0.00400  0.01980  0.53140  Biso   1.000  C
  C4       1.0000 0.97700  0.10340  0.51300  Biso   1.000  C
  C5       1.0000 0.99600  0.13320  0.56400  Biso   1.000  C
  C6       1.0000 0.26690  0.63740  0.32770  Biso   1.000  C
  C7       1.0000 0.24210  0.59320  0.38050  Biso   1.000  C
  C8       1.0000 0.30300  0.52860  0.42310  Biso   1.000  C
  C9       1.0000 0.38730  0.50800  0.40700  Biso   1.000  C
  C10      1.0000 0.40200  0.56320  0.35000  Biso   1.000  C
  C11      1.0000 0.28190  0.47070  0.48230  Biso   1.000  C
  C12      1.0000 0.20420  0.46500  0.48330  Biso   1.000  C
  C13      1.0000 0.18800  0.41400  0.53660  Biso   1.000  C
  C14      1.0000 0.30750  0.37930  0.59040  Biso   1.000  C
  C15      1.0000 0.33620  0.42440  0.54320  Biso   1.000  C
  C16      1.0000 0.35750  0.77590  0.01810  Biso   1.000  C
  C17      1.0000 0.30190  0.83330  0.97170  Biso   1.000  C
  C18      1.0000 0.32360  0.86770  0.90530  Biso   1.000  C
  C19      1.0000 0.41180  0.83110  0.89390  Biso   1.000  C
  C20      1.0000 0.46490  0.77220  0.94370  Biso   1.000  C
  C21      1.0000 0.26650  0.92980  0.85320  Biso   1.000  C
  C22      1.0000 0.18370  0.94170  0.84660  Biso   1.000  C
  C23      1.0000 0.12870  0.00600  0.79570  Biso   1.000  C
  C24      1.0000 0.23450  0.05450  0.76640  Biso   1.000  C
  C25      1.0000 0.29220  0.99230  0.81130  Biso   1.000  C
  C26      1.0000 0.69040  0.54140  0.04790  Biso   1.000  C
  C27      1.0000 0.75030  0.49850  0.01110  Biso   1.000  C
  C28      1.0000 0.72730  0.48500  0.95000  Biso   1.000  C
  C29      1.0000 0.63900  0.51770  0.93340  Biso   1.000  C
  C30      1.0000 0.58580  0.55870  0.97260  Biso   1.000  C
  C31      1.0000 0.79280  0.44170  0.90870  Biso   1.000  C
  C32      1.0000 0.86550  0.45730  0.89710  Biso   1.000  C
  C33      1.0000 0.92620  0.41770  0.85680  Biso   1.000  C
  C34      1.0000 0.84860  0.34670  0.83990  Biso   1.000  C
  C35      1.0000 0.78440  0.38630  0.87740  Biso   1.000  C
  C36      1.0000 0.32790  0.93710  0.10930  Biso   1.000  C
  C37      1.0000 0.26910  0.99570  0.06330  Biso   1.000  C
  C38      1.0000 0.29010  0.03080  0.00080  Biso   1.000  C
  C39      1.0000 0.37270  0.00100  0.98490  Biso   1.000  C
  C40      1.0000 0.43270  0.93520  0.03250  Biso   1.000  C
  C41      1.0000 0.22450  0.09500  0.94840  Biso   1.000  C
  C42      1.0000 0.14350  0.09060  0.94180  Biso   1.000  C
  C43      1.0000 0.08650  0.15200  0.89330  Biso   1.000  C
  C44      1.0000 0.17740  0.21680  0.85690  Biso   1.000  C
  C45      1.0000 0.23960  0.15850  0.90550  Biso   1.000  C
  C46      1.0000 0.36010  0.16830  0.75860  Biso   1.000  C
  C47      1.0000 0.20600  0.81700  0.14380  Biso   1.000  C
  C48      1.0000 0.93500  0.99270  0.35400  Biso   1.000  C
  C49      1.0000 0.95650  0.02270  0.40580  Biso   1.000  C
  C50      1.0000 0.99600  0.98020  0.46860  Biso   1.000  C
  C51      1.0000 0.02300  0.89660  0.48700  Biso   1.000  C
  C52      1.0000 0.00400  0.86680  0.43600  Biso   1.000  C
  C53      1.0000 0.73310  0.36260  0.67230  Biso   1.000  C
  C54      1.0000 0.75790  0.40680  0.61950  Biso   1.000  C
  C55      1.0000 0.69700  0.47140  0.57690  Biso   1.000  C
  C56      1.0000 0.61270  0.49200  0.59300  Biso   1.000  C
  C57      1.0000 0.59800  0.43680  0.65000  Biso   1.000  C
  C58      1.0000 0.71810  0.52930  0.51770  Biso   1.000  C
  C59      1.0000 0.79580  0.53500  0.51670  Biso   1.000  C
  C60      1.0000 0.81200  0.58600  0.46340  Biso   1.000  C
  C61      1.0000 0.69250  0.62070  0.40960  Biso   1.000  C
  C62      1.0000 0.66380  0.57560  0.45680  Biso   1.000  C
  C63      1.0000 0.64250  0.22410  0.98190  Biso   1.000  C
  C64      1.0000 0.69810  0.16670  0.02830  Biso   1.000  C
  C65      1.0000 0.67640  0.13230  0.09470  Biso   1.000  C
  C66      1.0000 0.58820  0.16890  0.10610  Biso   1.000  C
  C67      1.0000 0.53510  0.22780  0.05630  Biso   1.000  C
  C68      1.0000 0.73350  0.07020  0.14680  Biso   1.000  C
  C69      1.0000 0.81630  0.05830  0.15340  Biso   1.000  C
  C70      1.0000 0.87130  0.99400  0.20430  Biso   1.000  C
  C71      1.0000 0.76550  0.94550  0.23360  Biso   1.000  C
  C72      1.0000 0.70780  0.00770  0.18870  Biso   1.000  C
  C73      1.0000 0.30960  0.45860  0.95210  Biso   1.000  C
  C74      1.0000 0.24970  0.50150  0.98890  Biso   1.000  C
  C75      1.0000 0.27270  0.51500  0.05000  Biso   1.000  C
  C76      1.0000 0.36100  0.48230  0.06660  Biso   1.000  C
  C77      1.0000 0.41420  0.44130  0.02740  Biso   1.000  C
  C78      1.0000 0.20720  0.55830  0.09130  Biso   1.000  C
  C79      1.0000 0.13450  0.54270  0.10290  Biso   1.000  C
  C80      1.0000 0.07380  0.58230  0.14320  Biso   1.000  C
  C81      1.0000 0.15140  0.65330  0.16010  Biso   1.000  C
  C82      1.0000 0.21560  0.61370  0.12260  Biso   1.000  C
  C83      1.0000 0.67210  0.06290  0.89070  Biso   1.000  C
  C84      1.0000 0.73090  0.00430  0.93670  Biso   1.000  C
  C85      1.0000 0.70990  0.96920  0.99920  Biso   1.000  C
  C86      1.0000 0.62730  0.99900  0.01510  Biso   1.000  C
  C87      1.0000 0.56730  0.06480  0.96750  Biso   1.000  C
  C88      1.0000 0.77550  0.90500  0.05160  Biso   1.000  C
  C89      1.0000 0.85650  0.90940  0.05820  Biso   1.000  C
  C90      1.0000 0.91350  0.84800  0.10670  Biso   1.000  C
  C91      1.0000 0.82260  0.78320  0.14310  Biso   1.000  C
  C92      1.0000 0.76040  0.84150  0.09450  Biso   1.000  C
  C93      1.0000 0.63990  0.83170  0.24140  Biso   1.000  C
  C94      1.0000 0.79400  0.18300  0.85620  Biso   1.000  C
  S1       1.0000 0.96280  0.24440  0.70800  Biso   1.000  S
  S2       1.0000 0.15300  0.21950  0.61120  Biso   1.000  S
  S3       1.0000 0.07780  0.37740  0.70720  Biso   1.000  S
  S4       1.0000 0.46480  0.59950  0.16900  Biso   1.000  S
  S5       1.0000 0.45240  0.75220  0.25910  Biso   1.000  S
  S6       1.0000 0.59880  0.71770  0.12220  Biso   1.000  S
  S7       1.0000 0.44120  0.09790  0.80280  Biso   1.000  S
  S8       1.0000 0.11810  0.88760  0.09910  Biso   1.000  S
  S9       1.0000 0.03720  0.75560  0.29200  Biso   1.000  S
  S10      1.0000 0.84700  0.78050  0.38880  Biso   1.000  S
  S11      1.0000 0.92220  0.62260  0.29280  Biso   1.000  S
  S12      1.0000 0.53520  0.40050  0.83100  Biso   1.000  S
  S13      1.0000 0.54760  0.24780  0.74090  Biso   1.000  S
  S14      1.0000 0.40120  0.28230  0.87780  Biso   1.000  S
  S15      1.0000 0.55880  0.90210  0.19720  Biso   1.000  S
  S16      1.0000 0.88190  0.11240  0.90090  Biso   1.000  S
  N1       1.0000 0.04230  0.09510  0.61670  Biso   1.000  N
  N2       1.0000 0.34430  0.62250  0.30650  Biso   1.000  N
  N3       1.0000 0.23700  0.37120  0.59200  Biso   1.000  N
  N4       1.0000 0.44120  0.74180  0.00370  Biso   1.000  N
  N5       1.0000 0.15460  0.06000  0.76090  Biso   1.000  N
  N6       1.0000 0.60640  0.57760  0.02850  Biso   1.000  N
  N7       1.0000 0.91870  0.36200  0.82810  Biso   1.000  N
  N8       1.0000 0.41260  0.90410  0.09530  Biso   1.000  N
  N9       1.0000 0.10070  0.21460  0.84940  Biso   1.000  N
  N10      1.0000 0.30080  0.22340  0.72640  Biso   1.000  N
  N11      1.0000 0.26330  0.77060  0.17420  Biso   1.000  N
  N12      1.0000 0.95770  0.90490  0.38330  Biso   1.000  N
  N13      1.0000 0.65570  0.37750  0.69350  Biso   1.000  N
  N14      1.0000 0.76300  0.62880  0.40800  Biso   1.000  N
  N15      1.0000 0.55880  0.25820  0.99630  Biso   1.000  N
  N16      1.0000 0.84540  0.94000  0.23910  Biso   1.000  N
  N17      1.0000 0.39360  0.42240  0.97150  Biso   1.000  N
  N18      1.0000 0.08130  0.63800  0.17190  Biso   1.000  N
  N19      1.0000 0.58740  0.09590  0.90470  Biso   1.000  N
  N20      1.0000 0.89930  0.78540  0.15060  Biso   1.000  N
  N21      1.0000 0.69920  0.77660  0.27360  Biso   1.000  N
  N22      1.0000 0.73670  0.22940  0.82580  Biso   1.000  N
  O1       1.0000 0.97420  0.38350  0.56940  Biso   1.000  O
  O2       1.0000 0.62270  0.58090  0.27140  Biso   1.000  O
  O3       1.0000 0.02580  0.61650  0.43060  Biso   1.000  O
  O4       1.0000 0.37730  0.41910  0.72860  Biso   1.000  O
