data_CUCKIV_charged
_audit_creation_date              2014-07-02
_audit_creation_method            'Materials Studio'
_symmetry_space_group_name_H-M    'P1'
_symmetry_Int_Tables_number       1
_symmetry_cell_setting            triclinic
loop_
_symmetry_equiv_pos_as_xyz
  x,y,z
_cell_length_a                    10.8330
_cell_length_b                    14.1700
_cell_length_c                    14.4000
_cell_angle_alpha                 100.5190
_cell_angle_beta                  90.0000
_cell_angle_gamma                 90.0000
loop_
_atom_site_label
_atom_site_type_symbol
_atom_site_fract_x
_atom_site_fract_y
_atom_site_fract_z
_atom_site_U_iso_or_equiv
_atom_site_adp_type
_atom_site_occupancy
Co1    Co    0.71144   0.82061   0.69934   0.01267  Uiso   1.00
Co2    Co    0.21144   0.67939   0.80066   0.01267  Uiso   1.00
Co3    Co    0.28856   0.17939   0.30066   0.01267  Uiso   1.00
Co4    Co    0.78856   0.32061   0.19934   0.01267  Uiso   1.00
Co5    Co    0.50000   0.50000   0.50000   0.01267  Uiso   1.00
Co6    Co    0.00000   0.00000   0.00000   0.01267  Uiso   1.00
H1     H     0.66660   0.21450   0.49460   0.01267  Uiso   1.00
H2     H     0.84880   0.01310   0.30970   0.01267  Uiso   1.00
H3     H     0.58890   0.09150   0.54610   0.01267  Uiso   1.00
H4     H     0.90300   0.95550   0.43940   0.01267  Uiso   1.00
H5     H     0.16660   0.28550   0.00540   0.01267  Uiso   1.00
H6     H     0.34880   0.48690   0.19030   0.01267  Uiso   1.00
H7     H     0.08890   0.40850   0.95390   0.01267  Uiso   1.00
H8     H     0.40300   0.54450   0.06060   0.01267  Uiso   1.00
H9     H     0.33340   0.78550   0.50540   0.01267  Uiso   1.00
H10    H     0.15120   0.98690   0.69030   0.01267  Uiso   1.00
H11    H     0.41110   0.90850   0.45390   0.01267  Uiso   1.00
H12    H     0.09700   0.04450   0.56060   0.01267  Uiso   1.00
H13    H     0.83340   0.71450   0.99460   0.01267  Uiso   1.00
H14    H     0.65120   0.51310   0.80970   0.01267  Uiso   1.00
H15    H     0.91110   0.59150   0.04610   0.01267  Uiso   1.00
H16    H     0.59700   0.45550   0.93940   0.01267  Uiso   1.00
C1     C     0.72190   0.25600   0.37470   0.01267  Uiso   1.00
C2     C     0.70940   0.19480   0.43680   0.01267  Uiso   1.00
C3     C     0.75960   0.10340   0.41500   0.01267  Uiso   1.00
C4     C     0.81720   0.07640   0.32770   0.01267  Uiso   1.00
C5     C     0.82860   0.14060   0.26810   0.01267  Uiso   1.00
C6     C     0.88110   0.12200   0.17090   0.01267  Uiso   1.00
C7     C     0.67750   0.35910   0.38780   0.01267  Uiso   1.00
C8     C     0.63820   0.97820   0.60610   0.01267  Uiso   1.00
C9     C     0.64870   0.04220   0.54490   0.01267  Uiso   1.00
C10    C     0.74710   0.03480   0.48120   0.01267  Uiso   1.00
C11    C     0.83460   0.96210   0.48130   0.01267  Uiso   1.00
C12    C     0.81850   0.90020   0.54410   0.01267  Uiso   1.00
C13    C     0.89870   0.81480   0.55210   0.01267  Uiso   1.00
C14    C     0.54010   0.97740   0.67970   0.01267  Uiso   1.00
C15    C     0.22190   0.24400   0.12530   0.01267  Uiso   1.00
C16    C     0.20940   0.30520   0.06320   0.01267  Uiso   1.00
C17    C     0.25960   0.39660   0.08500   0.01267  Uiso   1.00
C18    C     0.31720   0.42360   0.17230   0.01267  Uiso   1.00
C19    C     0.32860   0.35940   0.23190   0.01267  Uiso   1.00
C20    C     0.38110   0.37800   0.32910   0.01267  Uiso   1.00
C21    C     0.17750   0.14090   0.11220   0.01267  Uiso   1.00
C22    C     0.13820   0.52180   0.89390   0.01267  Uiso   1.00
C23    C     0.14870   0.45780   0.95510   0.01267  Uiso   1.00
C24    C     0.24710   0.46520   0.01880   0.01267  Uiso   1.00
C25    C     0.33460   0.53790   0.01870   0.01267  Uiso   1.00
C26    C     0.31850   0.59980   0.95590   0.01267  Uiso   1.00
C27    C     0.39870   0.68520   0.94790   0.01267  Uiso   1.00
C28    C     0.04010   0.52260   0.82030   0.01267  Uiso   1.00
C29    C     0.27810   0.74400   0.62530   0.01267  Uiso   1.00
C30    C     0.29060   0.80520   0.56320   0.01267  Uiso   1.00
C31    C     0.24040   0.89660   0.58500   0.01267  Uiso   1.00
C32    C     0.18280   0.92360   0.67230   0.01267  Uiso   1.00
C33    C     0.17140   0.85940   0.73190   0.01267  Uiso   1.00
C34    C     0.11890   0.87800   0.82910   0.01267  Uiso   1.00
C35    C     0.32250   0.64090   0.61220   0.01267  Uiso   1.00
C36    C     0.36180   0.02180   0.39390   0.01267  Uiso   1.00
C37    C     0.35130   0.95780   0.45510   0.01267  Uiso   1.00
C38    C     0.25290   0.96520   0.51880   0.01267  Uiso   1.00
C39    C     0.16540   0.03790   0.51870   0.01267  Uiso   1.00
C40    C     0.18150   0.09980   0.45590   0.01267  Uiso   1.00
C41    C     0.10130   0.18520   0.44790   0.01267  Uiso   1.00
C42    C     0.45990   0.02260   0.32030   0.01267  Uiso   1.00
C43    C     0.77810   0.75600   0.87470   0.01267  Uiso   1.00
C44    C     0.79060   0.69480   0.93680   0.01267  Uiso   1.00
C45    C     0.74040   0.60340   0.91500   0.01267  Uiso   1.00
C46    C     0.68280   0.57640   0.82770   0.01267  Uiso   1.00
C47    C     0.67140   0.64060   0.76810   0.01267  Uiso   1.00
C48    C     0.61890   0.62200   0.67090   0.01267  Uiso   1.00
C49    C     0.82250   0.85910   0.88780   0.01267  Uiso   1.00
C50    C     0.86180   0.47820   0.10610   0.01267  Uiso   1.00
C51    C     0.85130   0.54220   0.04490   0.01267  Uiso   1.00
C52    C     0.75290   0.53480   0.98120   0.01267  Uiso   1.00
C53    C     0.66540   0.46210   0.98130   0.01267  Uiso   1.00
C54    C     0.68150   0.40020   0.04410   0.01267  Uiso   1.00
C55    C     0.60130   0.31480   0.05210   0.01267  Uiso   1.00
C56    C     0.95990   0.47740   0.17970   0.01267  Uiso   1.00
N1     N     0.72300   0.90840   0.60480   0.01267  Uiso   1.00
N2     N     0.77970   0.22910   0.29100   0.01267  Uiso   1.00
N3     N     0.22300   0.59160   0.89520   0.01267  Uiso   1.00
N4     N     0.27970   0.27090   0.20900   0.01267  Uiso   1.00
N5     N     0.27700   0.09160   0.39520   0.01267  Uiso   1.00
N6     N     0.22030   0.77090   0.70900   0.01267  Uiso   1.00
N7     N     0.77700   0.40840   0.10480   0.01267  Uiso   1.00
N8     N     0.72030   0.72910   0.79100   0.01267  Uiso   1.00
O1     O     0.88780   0.19610   0.13190   0.01267  Uiso   1.00
O2     O     0.91280   0.03960   0.13450   0.01267  Uiso   1.00
O3     O     0.69550   0.40230   0.32140   0.01267  Uiso   1.00
O4     O     0.62560   0.39120   0.46380   0.01267  Uiso   1.00
O5     O     0.98280   0.79440   0.49560   0.01267  Uiso   1.00
O6     O     0.87210   0.77020   0.61620   0.01267  Uiso   1.00
O7     O     0.45840   0.03790   0.68670   0.01267  Uiso   1.00
O8     O     0.55080   0.91200   0.72700   0.01267  Uiso   1.00
O9     O     0.60760   0.60620   0.44950   0.01267  Uiso   1.00
O10    O     0.38780   0.30390   0.36810   0.01267  Uiso   1.00
O11    O     0.41280   0.46040   0.36550   0.01267  Uiso   1.00
O12    O     0.19550   0.09770   0.17860   0.01267  Uiso   1.00
O13    O     0.12560   0.10880   0.03620   0.01267  Uiso   1.00
O14    O     0.48280   0.70560   0.00440   0.01267  Uiso   1.00
O15    O     0.37210   0.72980   0.88380   0.01267  Uiso   1.00
O16    O     0.95840   0.46210   0.81330   0.01267  Uiso   1.00
O17    O     0.05080   0.58800   0.77300   0.01267  Uiso   1.00
O18    O     0.10760   0.89380   0.05050   0.01267  Uiso   1.00
O19    O     0.11220   0.80390   0.86810   0.01267  Uiso   1.00
O20    O     0.08720   0.96040   0.86550   0.01267  Uiso   1.00
O21    O     0.30450   0.59770   0.67860   0.01267  Uiso   1.00
O22    O     0.37440   0.60880   0.53620   0.01267  Uiso   1.00
O23    O     0.01720   0.20560   0.50440   0.01267  Uiso   1.00
O24    O     0.12790   0.22980   0.38380   0.01267  Uiso   1.00
O25    O     0.54160   0.96210   0.31330   0.01267  Uiso   1.00
O26    O     0.44920   0.08800   0.27300   0.01267  Uiso   1.00
O27    O     0.39240   0.39380   0.55050   0.01267  Uiso   1.00
O28    O     0.61220   0.69610   0.63190   0.01267  Uiso   1.00
O29    O     0.58720   0.53960   0.63450   0.01267  Uiso   1.00
O30    O     0.80450   0.90230   0.82140   0.01267  Uiso   1.00
O31    O     0.87440   0.89120   0.96380   0.01267  Uiso   1.00
O32    O     0.51720   0.29440   0.99560   0.01267  Uiso   1.00
O33    O     0.62790   0.27020   0.11620   0.01267  Uiso   1.00
O34    O     0.04160   0.53790   0.18670   0.01267  Uiso   1.00
O35    O     0.94920   0.41200   0.22700   0.01267  Uiso   1.00
O36    O     0.89240   0.10620   0.94950   0.01267  Uiso   1.00
