data_image0
_cell_length_a       28.654
_cell_length_b       15.0332
_cell_length_c       16.5899
_cell_angle_alpha    90
_cell_angle_beta     119.904
_cell_angle_gamma    90

_symmetry_space_group_name_H-M    "P 1"
_symmetry_int_tables_number       1

loop_
  _symmetry_equiv_pos_as_xyz
  'x, y, z'

loop_
  _atom_site_label
  _atom_site_occupancy
  _atom_site_fract_x
  _atom_site_fract_y
  _atom_site_fract_z
  _atom_site_thermal_displace_type
  _atom_site_B_iso_or_equiv
  _atom_site_type_symbol
  Zn1      1.0000 0.36124  0.19766  0.68724  Biso   1.000  Zn
  N1       1.0000 0.29134  0.12790  0.62420  Biso   1.000  N
  N2       1.0000 0.41250  0.12780  0.80080  Biso   1.000  N
  N3       1.0000 0.05958  0.87140  0.33810  Biso   1.000  N
  O1       1.0000 0.48170  0.27200  0.38430  Biso   1.000  O
  O2       1.0000 0.44720  0.20010  0.25530  Biso   1.000  O
  O3       1.0000 0.15130  0.17880  0.29960  Biso   1.000  O
  O4       1.0000 0.18710  0.21490  0.21380  Biso   1.000  O
  O5       1.0000 0.28033  0.09700  0.38770  Biso   1.000  O
  O6       1.0000 0.38020  0.20790  0.58800  Biso   1.000  O
  O7       1.0000 0.38450  0.06160  0.57810  Biso   1.000  O
  C1       1.0000 0.44690  0.21980  0.32710  Biso   1.000  C
  C2       1.0000 0.40330  0.18550  0.34320  Biso   1.000  C
  C3       1.0000 0.35550  0.15910  0.26950  Biso   1.000  C
  H1       1.0000 0.35090  0.16050  0.20990  Biso   1.000  H
  C4       1.0000 0.31350  0.13020  0.28220  Biso   1.000  C
  H2       1.0000 0.28040  0.11550  0.23120  Biso   1.000  H
  C5       1.0000 0.32130  0.12350  0.37070  Biso   1.000  C
  C6       1.0000 0.36920  0.14870  0.44660  Biso   1.000  C
  C7       1.0000 0.40900  0.18340  0.43080  Biso   1.000  C
  H3       1.0000 0.44030  0.20570  0.48070  Biso   1.000  H
  C8       1.0000 0.37900  0.13660  0.54450  Biso   1.000  C
  C9       1.0000 0.24320  0.03530  0.32400  Biso   1.000  C
  C10      1.0000 0.25830  0.94700  0.32820  Biso   1.000  C
  H4       1.0000 0.29300  0.92980  0.37240  Biso   1.000  H
  C11      1.0000 0.22390  0.88610  0.26990  Biso   1.000  C
  H5       1.0000 0.23510  0.82780  0.27080  Biso   1.000  H
  C12      1.0000 0.16910  0.91290  0.20530  Biso   1.000  C
  H6       1.0000 0.14400  0.87080  0.16690  Biso   1.000  H
  C13      1.0000 0.15410  0.00060  0.20090  Biso   1.000  C
  H7       1.0000 0.11910  0.01810  0.15850  Biso   1.000  H
  C14      1.0000 0.19150  0.06340  0.26010  Biso   1.000  C
  C15      1.0000 0.17600  0.15920  0.25680  Biso   1.000  C
  C16      1.0000 0.29270  0.03820  0.61850  Biso   1.000  C
  H8       1.0000 0.32570  0.00940  0.65180  Biso   1.000  H
  C17      1.0000 0.24750  0.98810  0.56540  Biso   1.000  C
  H9       1.0000 0.25020  0.92660  0.56360  Biso   1.000  H
  C18      1.0000 0.19790  0.02900  0.51460  Biso   1.000  C
  C19      1.0000 0.19600  0.12160  0.52060  Biso   1.000  C
  H10      1.0000 0.16330  0.15150  0.48770  Biso   1.000  H
  C20      1.0000 0.24270  0.16810  0.57550  Biso   1.000  C
  H11      1.0000 0.24080  0.22960  0.57940  Biso   1.000  H
  C21      1.0000 0.14920  0.97560  0.45380  Biso   1.000  C
  C22      1.0000 0.13910  0.89330  0.48470  Biso   1.000  C
  H12      1.0000 0.16250  0.87240  0.54440  Biso   1.000  H
  C23      1.0000 0.09380  0.84480  0.42410  Biso   1.000  C
  H13      1.0000 0.08710  0.79140  0.44460  Biso   1.000  H
  C24      1.0000 0.06780  0.94880  0.30990  Biso   1.000  C
  H14      1.0000 0.04330  0.96770  0.25000  Biso   1.000  H
  C25      1.0000 0.11230  0.00450  0.36620  Biso   1.000  C
  H15      1.0000 0.11640  0.05930  0.34430  Biso   1.000  H
  C26      1.0000 0.45000  0.07340  0.80200  Biso   1.000  C
  H16      1.0000 0.45260  0.06960  0.74840  Biso   1.000  H
  C27      1.0000 0.48470  0.02280  0.87760  Biso   1.000  C
  H17      1.0000 0.50980  0.98630  0.87420  Biso   1.000  H
  C28      1.0000 0.48210  0.02660  0.95870  Biso   1.000  C
  C29      1.0000 0.44310  0.08280  0.95690  Biso   1.000  C
  H18      1.0000 0.43930  0.08760  0.00920  Biso   1.000  H
  C30      1.0000 0.40950  0.13230  0.87720  Biso   1.000  C
  H19      1.0000 0.38400  0.16980  0.87840  Biso   1.000  H
  Zn2      1.0000 0.86124  0.69766  0.68724  Biso   1.000  Zn
  N4       1.0000 0.79134  0.62790  0.62420  Biso   1.000  N
  N5       1.0000 0.91250  0.62780  0.80080  Biso   1.000  N
  N6       1.0000 0.55958  0.37140  0.33810  Biso   1.000  N
  O8       1.0000 0.98170  0.77200  0.38430  Biso   1.000  O
  O9       1.0000 0.94720  0.70010  0.25530  Biso   1.000  O
  O10      1.0000 0.65130  0.67880  0.29960  Biso   1.000  O
  O11      1.0000 0.68710  0.71490  0.21380  Biso   1.000  O
  O12      1.0000 0.78033  0.59700  0.38770  Biso   1.000  O
  O13      1.0000 0.88020  0.70790  0.58800  Biso   1.000  O
  O14      1.0000 0.88450  0.56160  0.57810  Biso   1.000  O
  C31      1.0000 0.94690  0.71980  0.32710  Biso   1.000  C
  C32      1.0000 0.90330  0.68550  0.34320  Biso   1.000  C
  C33      1.0000 0.85550  0.65910  0.26950  Biso   1.000  C
  H20      1.0000 0.85090  0.66050  0.20990  Biso   1.000  H
  C34      1.0000 0.81350  0.63020  0.28220  Biso   1.000  C
  H21      1.0000 0.78040  0.61550  0.23120  Biso   1.000  H
  C35      1.0000 0.82130  0.62350  0.37070  Biso   1.000  C
  C36      1.0000 0.86920  0.64870  0.44660  Biso   1.000  C
  C37      1.0000 0.90900  0.68340  0.43080  Biso   1.000  C
  H22      1.0000 0.94030  0.70570  0.48070  Biso   1.000  H
  C38      1.0000 0.87900  0.63660  0.54450  Biso   1.000  C
  C39      1.0000 0.74320  0.53530  0.32400  Biso   1.000  C
  C40      1.0000 0.75830  0.44700  0.32820  Biso   1.000  C
  H23      1.0000 0.79300  0.42980  0.37240  Biso   1.000  H
  C41      1.0000 0.72390  0.38610  0.26990  Biso   1.000  C
  H24      1.0000 0.73510  0.32780  0.27080  Biso   1.000  H
  C42      1.0000 0.66910  0.41290  0.20530  Biso   1.000  C
  H25      1.0000 0.64400  0.37080  0.16690  Biso   1.000  H
  C43      1.0000 0.65410  0.50060  0.20090  Biso   1.000  C
  H26      1.0000 0.61910  0.51810  0.15850  Biso   1.000  H
  C44      1.0000 0.69150  0.56340  0.26010  Biso   1.000  C
  C45      1.0000 0.67600  0.65920  0.25680  Biso   1.000  C
  C46      1.0000 0.79270  0.53820  0.61850  Biso   1.000  C
  H27      1.0000 0.82570  0.50940  0.65180  Biso   1.000  H
  C47      1.0000 0.74750  0.48810  0.56540  Biso   1.000  C
  H28      1.0000 0.75020  0.42660  0.56360  Biso   1.000  H
  C48      1.0000 0.69790  0.52900  0.51460  Biso   1.000  C
  C49      1.0000 0.69600  0.62160  0.52060  Biso   1.000  C
  H29      1.0000 0.66330  0.65150  0.48770  Biso   1.000  H
  C50      1.0000 0.74270  0.66810  0.57550  Biso   1.000  C
  H30      1.0000 0.74080  0.72960  0.57940  Biso   1.000  H
  C51      1.0000 0.64920  0.47560  0.45380  Biso   1.000  C
  C52      1.0000 0.63910  0.39330  0.48470  Biso   1.000  C
  H31      1.0000 0.66250  0.37240  0.54440  Biso   1.000  H
  C53      1.0000 0.59380  0.34480  0.42410  Biso   1.000  C
  H32      1.0000 0.58710  0.29140  0.44460  Biso   1.000  H
  C54      1.0000 0.56780  0.44880  0.30990  Biso   1.000  C
  H33      1.0000 0.54330  0.46770  0.25000  Biso   1.000  H
  C55      1.0000 0.61230  0.50450  0.36620  Biso   1.000  C
  H34      1.0000 0.61640  0.55930  0.34430  Biso   1.000  H
  C56      1.0000 0.95000  0.57340  0.80200  Biso   1.000  C
  H35      1.0000 0.95260  0.56960  0.74840  Biso   1.000  H
  C57      1.0000 0.98470  0.52280  0.87760  Biso   1.000  C
  H36      1.0000 0.00980  0.48630  0.87420  Biso   1.000  H
  C58      1.0000 0.98210  0.52660  0.95870  Biso   1.000  C
  C59      1.0000 0.94310  0.58280  0.95690  Biso   1.000  C
  H37      1.0000 0.93930  0.58760  0.00920  Biso   1.000  H
  C60      1.0000 0.90950  0.63230  0.87720  Biso   1.000  C
  H38      1.0000 0.88400  0.66980  0.87840  Biso   1.000  H
  Zn3      1.0000 0.63876  0.19766  0.81276  Biso   1.000  Zn
  N7       1.0000 0.70866  0.12790  0.87580  Biso   1.000  N
  N8       1.0000 0.58750  0.12780  0.69920  Biso   1.000  N
  N9       1.0000 0.94042  0.87140  0.16190  Biso   1.000  N
  O15      1.0000 0.51830  0.27200  0.11570  Biso   1.000  O
  O16      1.0000 0.55280  0.20010  0.24470  Biso   1.000  O
  O17      1.0000 0.84870  0.17880  0.20040  Biso   1.000  O
  O18      1.0000 0.81290  0.21490  0.28620  Biso   1.000  O
  O19      1.0000 0.71967  0.09700  0.11230  Biso   1.000  O
  O20      1.0000 0.61980  0.20790  0.91200  Biso   1.000  O
  O21      1.0000 0.61550  0.06160  0.92190  Biso   1.000  O
  C61      1.0000 0.55310  0.21980  0.17290  Biso   1.000  C
  C62      1.0000 0.59670  0.18550  0.15680  Biso   1.000  C
  C63      1.0000 0.64450  0.15910  0.23050  Biso   1.000  C
  H39      1.0000 0.64910  0.16050  0.29010  Biso   1.000  H
  C64      1.0000 0.68650  0.13020  0.21780  Biso   1.000  C
  H40      1.0000 0.71960  0.11550  0.26880  Biso   1.000  H
  C65      1.0000 0.67870  0.12350  0.12930  Biso   1.000  C
  C66      1.0000 0.63080  0.14870  0.05340  Biso   1.000  C
  C67      1.0000 0.59100  0.18340  0.06920  Biso   1.000  C
  H41      1.0000 0.55970  0.20570  0.01930  Biso   1.000  H
  C68      1.0000 0.62100  0.13660  0.95550  Biso   1.000  C
  C69      1.0000 0.75680  0.03530  0.17600  Biso   1.000  C
  C70      1.0000 0.74170  0.94700  0.17180  Biso   1.000  C
  H42      1.0000 0.70700  0.92980  0.12760  Biso   1.000  H
  C71      1.0000 0.77610  0.88610  0.23010  Biso   1.000  C
  H43      1.0000 0.76490  0.82780  0.22920  Biso   1.000  H
  C72      1.0000 0.83090  0.91290  0.29470  Biso   1.000  C
  H44      1.0000 0.85600  0.87080  0.33310  Biso   1.000  H
  C73      1.0000 0.84590  0.00060  0.29910  Biso   1.000  C
  H45      1.0000 0.88090  0.01810  0.34150  Biso   1.000  H
  C74      1.0000 0.80850  0.06340  0.23990  Biso   1.000  C
  C75      1.0000 0.82400  0.15920  0.24320  Biso   1.000  C
  C76      1.0000 0.70730  0.03820  0.88150  Biso   1.000  C
  H46      1.0000 0.67430  0.00940  0.84820  Biso   1.000  H
  C77      1.0000 0.75250  0.98810  0.93460  Biso   1.000  C
  H47      1.0000 0.74980  0.92660  0.93640  Biso   1.000  H
  C78      1.0000 0.80210  0.02900  0.98540  Biso   1.000  C
  C79      1.0000 0.80400  0.12160  0.97940  Biso   1.000  C
  H48      1.0000 0.83670  0.15150  0.01230  Biso   1.000  H
  C80      1.0000 0.75730  0.16810  0.92450  Biso   1.000  C
  H49      1.0000 0.75920  0.22960  0.92060  Biso   1.000  H
  C81      1.0000 0.85080  0.97560  0.04620  Biso   1.000  C
  C82      1.0000 0.86090  0.89330  0.01530  Biso   1.000  C
  H50      1.0000 0.83750  0.87240  0.95560  Biso   1.000  H
  C83      1.0000 0.90620  0.84480  0.07590  Biso   1.000  C
  H51      1.0000 0.91290  0.79140  0.05540  Biso   1.000  H
  C84      1.0000 0.93220  0.94880  0.19010  Biso   1.000  C
  H52      1.0000 0.95670  0.96770  0.25000  Biso   1.000  H
  C85      1.0000 0.88770  0.00450  0.13380  Biso   1.000  C
  H53      1.0000 0.88360  0.05930  0.15570  Biso   1.000  H
  C86      1.0000 0.55000  0.07340  0.69800  Biso   1.000  C
  H54      1.0000 0.54740  0.06960  0.75160  Biso   1.000  H
  C87      1.0000 0.51530  0.02280  0.62240  Biso   1.000  C
  H55      1.0000 0.49020  0.98630  0.62580  Biso   1.000  H
  C88      1.0000 0.51790  0.02660  0.54130  Biso   1.000  C
  C89      1.0000 0.55690  0.08280  0.54310  Biso   1.000  C
  H56      1.0000 0.56070  0.08760  0.49080  Biso   1.000  H
  C90      1.0000 0.59050  0.13230  0.62280  Biso   1.000  C
  H57      1.0000 0.61600  0.16980  0.62160  Biso   1.000  H
  Zn4      1.0000 0.13876  0.69766  0.81276  Biso   1.000  Zn
  N10      1.0000 0.20866  0.62790  0.87580  Biso   1.000  N
  N11      1.0000 0.08750  0.62780  0.69920  Biso   1.000  N
  N12      1.0000 0.44042  0.37140  0.16190  Biso   1.000  N
  O22      1.0000 0.01830  0.77200  0.11570  Biso   1.000  O
  O23      1.0000 0.05280  0.70010  0.24470  Biso   1.000  O
  O24      1.0000 0.34870  0.67880  0.20040  Biso   1.000  O
  O25      1.0000 0.31290  0.71490  0.28620  Biso   1.000  O
  O26      1.0000 0.21967  0.59700  0.11230  Biso   1.000  O
  O27      1.0000 0.11980  0.70790  0.91200  Biso   1.000  O
  O28      1.0000 0.11550  0.56160  0.92190  Biso   1.000  O
  C91      1.0000 0.05310  0.71980  0.17290  Biso   1.000  C
  C92      1.0000 0.09670  0.68550  0.15680  Biso   1.000  C
  C93      1.0000 0.14450  0.65910  0.23050  Biso   1.000  C
  H58      1.0000 0.14910  0.66050  0.29010  Biso   1.000  H
  C94      1.0000 0.18650  0.63020  0.21780  Biso   1.000  C
  H59      1.0000 0.21960  0.61550  0.26880  Biso   1.000  H
  C95      1.0000 0.17870  0.62350  0.12930  Biso   1.000  C
  C96      1.0000 0.13080  0.64870  0.05340  Biso   1.000  C
  C97      1.0000 0.09100  0.68340  0.06920  Biso   1.000  C
  H60      1.0000 0.05970  0.70570  0.01930  Biso   1.000  H
  C98      1.0000 0.12100  0.63660  0.95550  Biso   1.000  C
  C99      1.0000 0.25680  0.53530  0.17600  Biso   1.000  C
  C100     1.0000 0.24170  0.44700  0.17180  Biso   1.000  C
  H61      1.0000 0.20700  0.42980  0.12760  Biso   1.000  H
  C101     1.0000 0.27610  0.38610  0.23010  Biso   1.000  C
  H62      1.0000 0.26490  0.32780  0.22920  Biso   1.000  H
  C102     1.0000 0.33090  0.41290  0.29470  Biso   1.000  C
  H63      1.0000 0.35600  0.37080  0.33310  Biso   1.000  H
  C103     1.0000 0.34590  0.50060  0.29910  Biso   1.000  C
  H64      1.0000 0.38090  0.51810  0.34150  Biso   1.000  H
  C104     1.0000 0.30850  0.56340  0.23990  Biso   1.000  C
  C105     1.0000 0.32400  0.65920  0.24320  Biso   1.000  C
  C106     1.0000 0.20730  0.53820  0.88150  Biso   1.000  C
  H65      1.0000 0.17430  0.50940  0.84820  Biso   1.000  H
  C107     1.0000 0.25250  0.48810  0.93460  Biso   1.000  C
  H66      1.0000 0.24980  0.42660  0.93640  Biso   1.000  H
  C108     1.0000 0.30210  0.52900  0.98540  Biso   1.000  C
  C109     1.0000 0.30400  0.62160  0.97940  Biso   1.000  C
  H67      1.0000 0.33670  0.65150  0.01230  Biso   1.000  H
  C110     1.0000 0.25730  0.66810  0.92450  Biso   1.000  C
  H68      1.0000 0.25920  0.72960  0.92060  Biso   1.000  H
  C111     1.0000 0.35080  0.47560  0.04620  Biso   1.000  C
  C112     1.0000 0.36090  0.39330  0.01530  Biso   1.000  C
  H69      1.0000 0.33750  0.37240  0.95560  Biso   1.000  H
  C113     1.0000 0.40620  0.34480  0.07590  Biso   1.000  C
  H70      1.0000 0.41290  0.29140  0.05540  Biso   1.000  H
  C114     1.0000 0.43220  0.44880  0.19010  Biso   1.000  C
  H71      1.0000 0.45670  0.46770  0.25000  Biso   1.000  H
  C115     1.0000 0.38770  0.50450  0.13380  Biso   1.000  C
  H72      1.0000 0.38360  0.55930  0.15570  Biso   1.000  H
  C116     1.0000 0.05000  0.57340  0.69800  Biso   1.000  C
  H73      1.0000 0.04740  0.56960  0.75160  Biso   1.000  H
  C117     1.0000 0.01530  0.52280  0.62240  Biso   1.000  C
  H74      1.0000 0.99020  0.48630  0.62580  Biso   1.000  H
  C118     1.0000 0.01790  0.52660  0.54130  Biso   1.000  C
  C119     1.0000 0.05690  0.58280  0.54310  Biso   1.000  C
  H75      1.0000 0.06070  0.58760  0.49080  Biso   1.000  H
  C120     1.0000 0.09050  0.63230  0.62280  Biso   1.000  C
  H76      1.0000 0.11600  0.66980  0.62160  Biso   1.000  H
  Zn5      1.0000 0.63876  0.80234  0.31276  Biso   1.000  Zn
  N13      1.0000 0.70866  0.87210  0.37580  Biso   1.000  N
  N14      1.0000 0.58750  0.87220  0.19920  Biso   1.000  N
  N15      1.0000 0.94042  0.12860  0.66190  Biso   1.000  N
  O29      1.0000 0.51830  0.72800  0.61570  Biso   1.000  O
  O30      1.0000 0.55280  0.79990  0.74470  Biso   1.000  O
  O31      1.0000 0.84870  0.82120  0.70040  Biso   1.000  O
  O32      1.0000 0.81290  0.78510  0.78620  Biso   1.000  O
  O33      1.0000 0.71967  0.90300  0.61230  Biso   1.000  O
  O34      1.0000 0.61980  0.79210  0.41200  Biso   1.000  O
  O35      1.0000 0.61550  0.93840  0.42190  Biso   1.000  O
  C121     1.0000 0.55310  0.78020  0.67290  Biso   1.000  C
  C122     1.0000 0.59670  0.81450  0.65680  Biso   1.000  C
  C123     1.0000 0.64450  0.84090  0.73050  Biso   1.000  C
  H77      1.0000 0.64910  0.83950  0.79010  Biso   1.000  H
  C124     1.0000 0.68650  0.86980  0.71780  Biso   1.000  C
  H78      1.0000 0.71960  0.88450  0.76880  Biso   1.000  H
  C125     1.0000 0.67870  0.87650  0.62930  Biso   1.000  C
  C126     1.0000 0.63080  0.85130  0.55340  Biso   1.000  C
  C127     1.0000 0.59100  0.81660  0.56920  Biso   1.000  C
  H79      1.0000 0.55970  0.79430  0.51930  Biso   1.000  H
  C128     1.0000 0.62100  0.86340  0.45550  Biso   1.000  C
  C129     1.0000 0.75680  0.96470  0.67600  Biso   1.000  C
  C130     1.0000 0.74170  0.05300  0.67180  Biso   1.000  C
  H80      1.0000 0.70700  0.07020  0.62760  Biso   1.000  H
  C131     1.0000 0.77610  0.11390  0.73010  Biso   1.000  C
  H81      1.0000 0.76490  0.17220  0.72920  Biso   1.000  H
  C132     1.0000 0.83090  0.08710  0.79470  Biso   1.000  C
  H82      1.0000 0.85600  0.12920  0.83310  Biso   1.000  H
  C133     1.0000 0.84590  0.99940  0.79910  Biso   1.000  C
  H83      1.0000 0.88090  0.98190  0.84150  Biso   1.000  H
  C134     1.0000 0.80850  0.93660  0.73990  Biso   1.000  C
  C135     1.0000 0.82400  0.84080  0.74320  Biso   1.000  C
  C136     1.0000 0.70730  0.96180  0.38150  Biso   1.000  C
  H84      1.0000 0.67430  0.99060  0.34820  Biso   1.000  H
  C137     1.0000 0.75250  0.01190  0.43460  Biso   1.000  C
  H85      1.0000 0.74980  0.07340  0.43640  Biso   1.000  H
  C138     1.0000 0.80210  0.97100  0.48540  Biso   1.000  C
  C139     1.0000 0.80400  0.87840  0.47940  Biso   1.000  C
  H86      1.0000 0.83670  0.84850  0.51230  Biso   1.000  H
  C140     1.0000 0.75730  0.83190  0.42450  Biso   1.000  C
  H87      1.0000 0.75920  0.77040  0.42060  Biso   1.000  H
  C141     1.0000 0.85080  0.02440  0.54620  Biso   1.000  C
  C142     1.0000 0.86090  0.10670  0.51530  Biso   1.000  C
  H88      1.0000 0.83750  0.12760  0.45560  Biso   1.000  H
  C143     1.0000 0.90620  0.15520  0.57590  Biso   1.000  C
  H89      1.0000 0.91290  0.20860  0.55540  Biso   1.000  H
  C144     1.0000 0.93220  0.05120  0.69010  Biso   1.000  C
  H90      1.0000 0.95670  0.03230  0.75000  Biso   1.000  H
  C145     1.0000 0.88770  0.99550  0.63380  Biso   1.000  C
  H91      1.0000 0.88360  0.94070  0.65570  Biso   1.000  H
  C146     1.0000 0.55000  0.92660  0.19800  Biso   1.000  C
  H92      1.0000 0.54740  0.93040  0.25160  Biso   1.000  H
  C147     1.0000 0.51530  0.97720  0.12240  Biso   1.000  C
  H93      1.0000 0.49020  0.01370  0.12580  Biso   1.000  H
  C148     1.0000 0.51790  0.97340  0.04130  Biso   1.000  C
  C149     1.0000 0.55690  0.91720  0.04310  Biso   1.000  C
  H94      1.0000 0.56070  0.91240  0.99080  Biso   1.000  H
  C150     1.0000 0.59050  0.86770  0.12280  Biso   1.000  C
  H95      1.0000 0.61600  0.83020  0.12160  Biso   1.000  H
  Zn6      1.0000 0.13876  0.30234  0.31276  Biso   1.000  Zn
  N16      1.0000 0.20866  0.37210  0.37580  Biso   1.000  N
  N17      1.0000 0.08750  0.37220  0.19920  Biso   1.000  N
  N18      1.0000 0.44042  0.62860  0.66190  Biso   1.000  N
  O36      1.0000 0.01830  0.22800  0.61570  Biso   1.000  O
  O37      1.0000 0.05280  0.29990  0.74470  Biso   1.000  O
  O38      1.0000 0.34870  0.32120  0.70040  Biso   1.000  O
  O39      1.0000 0.31290  0.28510  0.78620  Biso   1.000  O
  O40      1.0000 0.21967  0.40300  0.61230  Biso   1.000  O
  O41      1.0000 0.11980  0.29210  0.41200  Biso   1.000  O
  O42      1.0000 0.11550  0.43840  0.42190  Biso   1.000  O
  C151     1.0000 0.05310  0.28020  0.67290  Biso   1.000  C
  C152     1.0000 0.09670  0.31450  0.65680  Biso   1.000  C
  C153     1.0000 0.14450  0.34090  0.73050  Biso   1.000  C
  H96      1.0000 0.14910  0.33950  0.79010  Biso   1.000  H
  C154     1.0000 0.18650  0.36980  0.71780  Biso   1.000  C
  H97      1.0000 0.21960  0.38450  0.76880  Biso   1.000  H
  C155     1.0000 0.17870  0.37650  0.62930  Biso   1.000  C
  C156     1.0000 0.13080  0.35130  0.55340  Biso   1.000  C
  C157     1.0000 0.09100  0.31660  0.56920  Biso   1.000  C
  H98      1.0000 0.05970  0.29430  0.51930  Biso   1.000  H
  C158     1.0000 0.12100  0.36340  0.45550  Biso   1.000  C
  C159     1.0000 0.25680  0.46470  0.67600  Biso   1.000  C
  C160     1.0000 0.24170  0.55300  0.67180  Biso   1.000  C
  H99      1.0000 0.20700  0.57020  0.62760  Biso   1.000  H
  C161     1.0000 0.27610  0.61390  0.73010  Biso   1.000  C
  H100     1.0000 0.26490  0.67220  0.72920  Biso   1.000  H
  C162     1.0000 0.33090  0.58710  0.79470  Biso   1.000  C
  H101     1.0000 0.35600  0.62920  0.83310  Biso   1.000  H
  C163     1.0000 0.34590  0.49940  0.79910  Biso   1.000  C
  H102     1.0000 0.38090  0.48190  0.84150  Biso   1.000  H
  C164     1.0000 0.30850  0.43660  0.73990  Biso   1.000  C
  C165     1.0000 0.32400  0.34080  0.74320  Biso   1.000  C
  C166     1.0000 0.20730  0.46180  0.38150  Biso   1.000  C
  H103     1.0000 0.17430  0.49060  0.34820  Biso   1.000  H
  C167     1.0000 0.25250  0.51190  0.43460  Biso   1.000  C
  H104     1.0000 0.24980  0.57340  0.43640  Biso   1.000  H
  C168     1.0000 0.30210  0.47100  0.48540  Biso   1.000  C
  C169     1.0000 0.30400  0.37840  0.47940  Biso   1.000  C
  H105     1.0000 0.33670  0.34850  0.51230  Biso   1.000  H
  C170     1.0000 0.25730  0.33190  0.42450  Biso   1.000  C
  H106     1.0000 0.25920  0.27040  0.42060  Biso   1.000  H
  C171     1.0000 0.35080  0.52440  0.54620  Biso   1.000  C
  C172     1.0000 0.36090  0.60670  0.51530  Biso   1.000  C
  H107     1.0000 0.33750  0.62760  0.45560  Biso   1.000  H
  C173     1.0000 0.40620  0.65520  0.57590  Biso   1.000  C
  H108     1.0000 0.41290  0.70860  0.55540  Biso   1.000  H
  C174     1.0000 0.43220  0.55120  0.69010  Biso   1.000  C
  H109     1.0000 0.45670  0.53230  0.75000  Biso   1.000  H
  C175     1.0000 0.38770  0.49550  0.63380  Biso   1.000  C
  H110     1.0000 0.38360  0.44070  0.65570  Biso   1.000  H
  C176     1.0000 0.05000  0.42660  0.19800  Biso   1.000  C
  H111     1.0000 0.04740  0.43040  0.25160  Biso   1.000  H
  C177     1.0000 0.01530  0.47720  0.12240  Biso   1.000  C
  H112     1.0000 0.99020  0.51370  0.12580  Biso   1.000  H
  C178     1.0000 0.01790  0.47340  0.04130  Biso   1.000  C
  C179     1.0000 0.05690  0.41720  0.04310  Biso   1.000  C
  H113     1.0000 0.06070  0.41240  0.99080  Biso   1.000  H
  C180     1.0000 0.09050  0.36770  0.12280  Biso   1.000  C
  H114     1.0000 0.11600  0.33020  0.12160  Biso   1.000  H
  Zn7      1.0000 0.36124  0.80234  0.18724  Biso   1.000  Zn
  N19      1.0000 0.29134  0.87210  0.12420  Biso   1.000  N
  N20      1.0000 0.41250  0.87220  0.30080  Biso   1.000  N
  N21      1.0000 0.05958  0.12860  0.83810  Biso   1.000  N
  O43      1.0000 0.48170  0.72800  0.88430  Biso   1.000  O
  O44      1.0000 0.44720  0.79990  0.75530  Biso   1.000  O
  O45      1.0000 0.15130  0.82120  0.79960  Biso   1.000  O
  O46      1.0000 0.18710  0.78510  0.71380  Biso   1.000  O
  O47      1.0000 0.28033  0.90300  0.88770  Biso   1.000  O
  O48      1.0000 0.38020  0.79210  0.08800  Biso   1.000  O
  O49      1.0000 0.38450  0.93840  0.07810  Biso   1.000  O
  C181     1.0000 0.44690  0.78020  0.82710  Biso   1.000  C
  C182     1.0000 0.40330  0.81450  0.84320  Biso   1.000  C
  C183     1.0000 0.35550  0.84090  0.76950  Biso   1.000  C
  H115     1.0000 0.35090  0.83950  0.70990  Biso   1.000  H
  C184     1.0000 0.31350  0.86980  0.78220  Biso   1.000  C
  H116     1.0000 0.28040  0.88450  0.73120  Biso   1.000  H
  C185     1.0000 0.32130  0.87650  0.87070  Biso   1.000  C
  C186     1.0000 0.36920  0.85130  0.94660  Biso   1.000  C
  C187     1.0000 0.40900  0.81660  0.93080  Biso   1.000  C
  H117     1.0000 0.44030  0.79430  0.98070  Biso   1.000  H
  C188     1.0000 0.37900  0.86340  0.04450  Biso   1.000  C
  C189     1.0000 0.24320  0.96470  0.82400  Biso   1.000  C
  C190     1.0000 0.25830  0.05300  0.82820  Biso   1.000  C
  H118     1.0000 0.29300  0.07020  0.87240  Biso   1.000  H
  C191     1.0000 0.22390  0.11390  0.76990  Biso   1.000  C
  H119     1.0000 0.23510  0.17220  0.77080  Biso   1.000  H
  C192     1.0000 0.16910  0.08710  0.70530  Biso   1.000  C
  H120     1.0000 0.14400  0.12920  0.66690  Biso   1.000  H
  C193     1.0000 0.15410  0.99940  0.70090  Biso   1.000  C
  H121     1.0000 0.11910  0.98190  0.65850  Biso   1.000  H
  C194     1.0000 0.19150  0.93660  0.76010  Biso   1.000  C
  C195     1.0000 0.17600  0.84080  0.75680  Biso   1.000  C
  C196     1.0000 0.29270  0.96180  0.11850  Biso   1.000  C
  H122     1.0000 0.32570  0.99060  0.15180  Biso   1.000  H
  C197     1.0000 0.24750  0.01190  0.06540  Biso   1.000  C
  H123     1.0000 0.25020  0.07340  0.06360  Biso   1.000  H
  C198     1.0000 0.19790  0.97100  0.01460  Biso   1.000  C
  C199     1.0000 0.19600  0.87840  0.02060  Biso   1.000  C
  H124     1.0000 0.16330  0.84850  0.98770  Biso   1.000  H
  C200     1.0000 0.24270  0.83190  0.07550  Biso   1.000  C
  H125     1.0000 0.24080  0.77040  0.07940  Biso   1.000  H
  C201     1.0000 0.14920  0.02440  0.95380  Biso   1.000  C
  C202     1.0000 0.13910  0.10670  0.98470  Biso   1.000  C
  H126     1.0000 0.16250  0.12760  0.04440  Biso   1.000  H
  C203     1.0000 0.09380  0.15520  0.92410  Biso   1.000  C
  H127     1.0000 0.08710  0.20860  0.94460  Biso   1.000  H
  C204     1.0000 0.06780  0.05120  0.80990  Biso   1.000  C
  H128     1.0000 0.04330  0.03230  0.75000  Biso   1.000  H
  C205     1.0000 0.11230  0.99550  0.86620  Biso   1.000  C
  H129     1.0000 0.11640  0.94070  0.84430  Biso   1.000  H
  C206     1.0000 0.45000  0.92660  0.30200  Biso   1.000  C
  H130     1.0000 0.45260  0.93040  0.24840  Biso   1.000  H
  C207     1.0000 0.48470  0.97720  0.37760  Biso   1.000  C
  H131     1.0000 0.50980  0.01370  0.37420  Biso   1.000  H
  C208     1.0000 0.48210  0.97340  0.45870  Biso   1.000  C
  C209     1.0000 0.44310  0.91720  0.45690  Biso   1.000  C
  H132     1.0000 0.43930  0.91240  0.50920  Biso   1.000  H
  C210     1.0000 0.40950  0.86770  0.37720  Biso   1.000  C
  H133     1.0000 0.38400  0.83020  0.37840  Biso   1.000  H
  Zn8      1.0000 0.86124  0.30234  0.18724  Biso   1.000  Zn
  N22      1.0000 0.79134  0.37210  0.12420  Biso   1.000  N
  N23      1.0000 0.91250  0.37220  0.30080  Biso   1.000  N
  N24      1.0000 0.55958  0.62860  0.83810  Biso   1.000  N
  O50      1.0000 0.98170  0.22800  0.88430  Biso   1.000  O
  O51      1.0000 0.94720  0.29990  0.75530  Biso   1.000  O
  O52      1.0000 0.65130  0.32120  0.79960  Biso   1.000  O
  O53      1.0000 0.68710  0.28510  0.71380  Biso   1.000  O
  O54      1.0000 0.78033  0.40300  0.88770  Biso   1.000  O
  O55      1.0000 0.88020  0.29210  0.08800  Biso   1.000  O
  O56      1.0000 0.88450  0.43840  0.07810  Biso   1.000  O
  C211     1.0000 0.94690  0.28020  0.82710  Biso   1.000  C
  C212     1.0000 0.90330  0.31450  0.84320  Biso   1.000  C
  C213     1.0000 0.85550  0.34090  0.76950  Biso   1.000  C
  H134     1.0000 0.85090  0.33950  0.70990  Biso   1.000  H
  C214     1.0000 0.81350  0.36980  0.78220  Biso   1.000  C
  H135     1.0000 0.78040  0.38450  0.73120  Biso   1.000  H
  C215     1.0000 0.82130  0.37650  0.87070  Biso   1.000  C
  C216     1.0000 0.86920  0.35130  0.94660  Biso   1.000  C
  C217     1.0000 0.90900  0.31660  0.93080  Biso   1.000  C
  H136     1.0000 0.94030  0.29430  0.98070  Biso   1.000  H
  C218     1.0000 0.87900  0.36340  0.04450  Biso   1.000  C
  C219     1.0000 0.74320  0.46470  0.82400  Biso   1.000  C
  C220     1.0000 0.75830  0.55300  0.82820  Biso   1.000  C
  H137     1.0000 0.79300  0.57020  0.87240  Biso   1.000  H
  C221     1.0000 0.72390  0.61390  0.76990  Biso   1.000  C
  H138     1.0000 0.73510  0.67220  0.77080  Biso   1.000  H
  C222     1.0000 0.66910  0.58710  0.70530  Biso   1.000  C
  H139     1.0000 0.64400  0.62920  0.66690  Biso   1.000  H
  C223     1.0000 0.65410  0.49940  0.70090  Biso   1.000  C
  H140     1.0000 0.61910  0.48190  0.65850  Biso   1.000  H
  C224     1.0000 0.69150  0.43660  0.76010  Biso   1.000  C
  C225     1.0000 0.67600  0.34080  0.75680  Biso   1.000  C
  C226     1.0000 0.79270  0.46180  0.11850  Biso   1.000  C
  H141     1.0000 0.82570  0.49060  0.15180  Biso   1.000  H
  C227     1.0000 0.74750  0.51190  0.06540  Biso   1.000  C
  H142     1.0000 0.75020  0.57340  0.06360  Biso   1.000  H
  C228     1.0000 0.69790  0.47100  0.01460  Biso   1.000  C
  C229     1.0000 0.69600  0.37840  0.02060  Biso   1.000  C
  H143     1.0000 0.66330  0.34850  0.98770  Biso   1.000  H
  C230     1.0000 0.74270  0.33190  0.07550  Biso   1.000  C
  H144     1.0000 0.74080  0.27040  0.07940  Biso   1.000  H
  C231     1.0000 0.64920  0.52440  0.95380  Biso   1.000  C
  C232     1.0000 0.63910  0.60670  0.98470  Biso   1.000  C
  H145     1.0000 0.66250  0.62760  0.04440  Biso   1.000  H
  C233     1.0000 0.59380  0.65520  0.92410  Biso   1.000  C
  H146     1.0000 0.58710  0.70860  0.94460  Biso   1.000  H
  C234     1.0000 0.56780  0.55120  0.80990  Biso   1.000  C
  H147     1.0000 0.54330  0.53230  0.75000  Biso   1.000  H
  C235     1.0000 0.61230  0.49550  0.86620  Biso   1.000  C
  H148     1.0000 0.61640  0.44070  0.84430  Biso   1.000  H
  C236     1.0000 0.95000  0.42660  0.30200  Biso   1.000  C
  H149     1.0000 0.95260  0.43040  0.24840  Biso   1.000  H
  C237     1.0000 0.98470  0.47720  0.37760  Biso   1.000  C
  H150     1.0000 0.00980  0.51370  0.37420  Biso   1.000  H
  C238     1.0000 0.98210  0.47340  0.45870  Biso   1.000  C
  C239     1.0000 0.94310  0.41720  0.45690  Biso   1.000  C
  H151     1.0000 0.93930  0.41240  0.50920  Biso   1.000  H
  C240     1.0000 0.90950  0.36770  0.37720  Biso   1.000  C
  H152     1.0000 0.88400  0.33020  0.37840  Biso   1.000  H
  Zn9      1.0000 0.50000  0.28606  0.25000  Biso   1.000  Zn
  Zn10     1.0000 0.00000  0.78606  0.25000  Biso   1.000  Zn
  Zn11     1.0000 0.50000  0.71394  0.75000  Biso   1.000  Zn
  Zn12     1.0000 0.00000  0.21394  0.75000  Biso   1.000  Zn
