data_image0
_cell_length_a       29.155
_cell_length_b       29.155
_cell_length_c       17.367
_cell_angle_alpha    90
_cell_angle_beta     90
_cell_angle_gamma    120

_symmetry_space_group_name_H-M    "P 1"
_symmetry_int_tables_number       1

loop_
  _symmetry_equiv_pos_as_xyz
  'x, y, z'

loop_
  _atom_site_label
  _atom_site_occupancy
  _atom_site_fract_x
  _atom_site_fract_y
  _atom_site_fract_z
  _atom_site_thermal_displace_type
  _atom_site_B_iso_or_equiv
  _atom_site_type_symbol
  In1      1.0000 0.69353  0.15960  0.11451  Biso   1.000  In
  O1       1.0000 0.72280  0.19040  0.25110  Biso   1.000  O
  O2       1.0000 0.76670  0.17300  0.16530  Biso   1.000  O
  O3       1.0000 0.64340  0.08830  0.17780  Biso   1.000  O
  O4       1.0000 0.60650  0.08810  0.06540  Biso   1.000  O
  O5       1.0000 0.71800  0.11190  0.02750  Biso   1.000  O
  O6       1.0000 0.71570  0.18300  0.99360  Biso   1.000  O
  O7       1.0000 0.73150  0.25310  0.11960  Biso   1.000  O
  O8       1.0000 0.64550  0.19780  0.12770  Biso   1.000  O
  C1       1.0000 0.80880  0.20700  0.28670  Biso   1.000  C
  C2       1.0000 0.85130  0.20040  0.26430  Biso   1.000  C
  H1       1.0000 0.85150  0.18660  0.21610  Biso   1.000  H
  C3       1.0000 0.89360  0.21460  0.31540  Biso   1.000  C
  C4       1.0000 0.89530  0.24100  0.38310  Biso   1.000  C
  H2       1.0000 0.92470  0.25360  0.41510  Biso   1.000  H
  C5       1.0000 0.85340  0.24860  0.40340  Biso   1.000  C
  C6       1.0000 0.80900  0.22930  0.35250  Biso   1.000  C
  H3       1.0000 0.77990  0.23260  0.36620  Biso   1.000  H
  C7       1.0000 0.76180  0.18850  0.23000  Biso   1.000  C
  C8       1.0000 0.60520  0.06490  0.12860  Biso   1.000  C
  C9       1.0000 0.72700  0.14700  0.97810  Biso   1.000  C
  C10      1.0000 0.62330  0.28130  0.12780  Biso   1.000  C
  H4       1.0000 0.59460  0.24700  0.12880  Biso   1.000  H
  C11      1.0000 0.67460  0.28990  0.12700  Biso   1.000  C
  C12      1.0000 0.68510  0.24460  0.12620  Biso   1.000  C
  In2      1.0000 0.36020  0.49293  0.44784  Biso   1.000  In
  O9       1.0000 0.38947  0.52373  0.58443  Biso   1.000  O
  O10      1.0000 0.43337  0.50633  0.49863  Biso   1.000  O
  O11      1.0000 0.31007  0.42163  0.51113  Biso   1.000  O
  O12      1.0000 0.27317  0.42143  0.39873  Biso   1.000  O
  O13      1.0000 0.38467  0.44523  0.36083  Biso   1.000  O
  O14      1.0000 0.38237  0.51633  0.32693  Biso   1.000  O
  O15      1.0000 0.39817  0.58643  0.45293  Biso   1.000  O
  O16      1.0000 0.31217  0.53113  0.46103  Biso   1.000  O
  C13      1.0000 0.47547  0.54033  0.62003  Biso   1.000  C
  C14      1.0000 0.51797  0.53373  0.59763  Biso   1.000  C
  H5       1.0000 0.51817  0.51993  0.54943  Biso   1.000  H
  C15      1.0000 0.56027  0.54793  0.64873  Biso   1.000  C
  C16      1.0000 0.56197  0.57433  0.71643  Biso   1.000  C
  H6       1.0000 0.59137  0.58693  0.74843  Biso   1.000  H
  C17      1.0000 0.52007  0.58193  0.73673  Biso   1.000  C
  C18      1.0000 0.47567  0.56263  0.68583  Biso   1.000  C
  H7       1.0000 0.44657  0.56593  0.69953  Biso   1.000  H
  C19      1.0000 0.42847  0.52183  0.56333  Biso   1.000  C
  C20      1.0000 0.27187  0.39823  0.46193  Biso   1.000  C
  C21      1.0000 0.39367  0.48033  0.31143  Biso   1.000  C
  C22      1.0000 0.28997  0.61463  0.46113  Biso   1.000  C
  H8       1.0000 0.26127  0.58033  0.46213  Biso   1.000  H
  C23      1.0000 0.34127  0.62323  0.46033  Biso   1.000  C
  C24      1.0000 0.35177  0.57793  0.45953  Biso   1.000  C
  In3      1.0000 0.02686  0.82627  0.78118  Biso   1.000  In
  O17      1.0000 0.05613  0.85707  0.91777  Biso   1.000  O
  O18      1.0000 0.10003  0.83967  0.83197  Biso   1.000  O
  O19      1.0000 0.97673  0.75497  0.84447  Biso   1.000  O
  O20      1.0000 0.93983  0.75477  0.73207  Biso   1.000  O
  O21      1.0000 0.05133  0.77857  0.69417  Biso   1.000  O
  O22      1.0000 0.04903  0.84967  0.66027  Biso   1.000  O
  O23      1.0000 0.06483  0.91977  0.78627  Biso   1.000  O
  O24      1.0000 0.97883  0.86447  0.79437  Biso   1.000  O
  C25      1.0000 0.14213  0.87367  0.95337  Biso   1.000  C
  C26      1.0000 0.18463  0.86707  0.93097  Biso   1.000  C
  H9       1.0000 0.18483  0.85327  0.88277  Biso   1.000  H
  C27      1.0000 0.22693  0.88127  0.98207  Biso   1.000  C
  C28      1.0000 0.22863  0.90767  0.04977  Biso   1.000  C
  H10      1.0000 0.25803  0.92027  0.08177  Biso   1.000  H
  C29      1.0000 0.18673  0.91527  0.07007  Biso   1.000  C
  C30      1.0000 0.14233  0.89597  0.01917  Biso   1.000  C
  H11      1.0000 0.11323  0.89927  0.03287  Biso   1.000  H
  C31      1.0000 0.09513  0.85517  0.89667  Biso   1.000  C
  C32      1.0000 0.93853  0.73157  0.79527  Biso   1.000  C
  C33      1.0000 0.06033  0.81367  0.64477  Biso   1.000  C
  C34      1.0000 0.95663  0.94797  0.79447  Biso   1.000  C
  H12      1.0000 0.92793  0.91367  0.79547  Biso   1.000  H
  C35      1.0000 0.00793  0.95657  0.79367  Biso   1.000  C
  C36      1.0000 0.01843  0.91127  0.79287  Biso   1.000  C
  In4      1.0000 0.84040  0.53393  0.11451  Biso   1.000  In
  O25      1.0000 0.80960  0.53240  0.25110  Biso   1.000  O
  O26      1.0000 0.82700  0.59370  0.16530  Biso   1.000  O
  O27      1.0000 0.91170  0.55510  0.17780  Biso   1.000  O
  O28      1.0000 0.91190  0.51840  0.06540  Biso   1.000  O
  O29      1.0000 0.88810  0.60610  0.02750  Biso   1.000  O
  O30      1.0000 0.81700  0.53270  0.99360  Biso   1.000  O
  O31      1.0000 0.74690  0.47840  0.11960  Biso   1.000  O
  O32      1.0000 0.80220  0.44770  0.12770  Biso   1.000  O
  C37      1.0000 0.79300  0.60180  0.28670  Biso   1.000  C
  C38      1.0000 0.79960  0.65090  0.26430  Biso   1.000  C
  H13      1.0000 0.81340  0.66490  0.21610  Biso   1.000  H
  C39      1.0000 0.78540  0.67900  0.31540  Biso   1.000  C
  C40      1.0000 0.75900  0.65430  0.38310  Biso   1.000  C
  H14      1.0000 0.74640  0.67110  0.41510  Biso   1.000  H
  C41      1.0000 0.75140  0.60480  0.40340  Biso   1.000  C
  C42      1.0000 0.77070  0.57970  0.35250  Biso   1.000  C
  H15      1.0000 0.76740  0.54730  0.36620  Biso   1.000  H
  C43      1.0000 0.81150  0.57330  0.23000  Biso   1.000  C
  C44      1.0000 0.93510  0.54030  0.12860  Biso   1.000  C
  C45      1.0000 0.85300  0.58000  0.97810  Biso   1.000  C
  C46      1.0000 0.71870  0.34200  0.12780  Biso   1.000  C
  H16      1.0000 0.75300  0.34760  0.12880  Biso   1.000  H
  C47      1.0000 0.71010  0.38470  0.12700  Biso   1.000  C
  C48      1.0000 0.75540  0.44050  0.12620  Biso   1.000  C
  In5      1.0000 0.50707  0.86726  0.44784  Biso   1.000  In
  O33      1.0000 0.47627  0.86573  0.58443  Biso   1.000  O
  O34      1.0000 0.49367  0.92703  0.49863  Biso   1.000  O
  O35      1.0000 0.57837  0.88843  0.51113  Biso   1.000  O
  O36      1.0000 0.57857  0.85173  0.39873  Biso   1.000  O
  O37      1.0000 0.55477  0.93943  0.36083  Biso   1.000  O
  O38      1.0000 0.48367  0.86603  0.32693  Biso   1.000  O
  O39      1.0000 0.41357  0.81173  0.45293  Biso   1.000  O
  O40      1.0000 0.46887  0.78103  0.46103  Biso   1.000  O
  C49      1.0000 0.45967  0.93513  0.62003  Biso   1.000  C
  C50      1.0000 0.46627  0.98423  0.59763  Biso   1.000  C
  H17      1.0000 0.48007  0.99823  0.54943  Biso   1.000  H
  C51      1.0000 0.45207  0.01233  0.64873  Biso   1.000  C
  C52      1.0000 0.42567  0.98763  0.71643  Biso   1.000  C
  H18      1.0000 0.41307  0.00443  0.74843  Biso   1.000  H
  C53      1.0000 0.41807  0.93813  0.73673  Biso   1.000  C
  C54      1.0000 0.43737  0.91303  0.68583  Biso   1.000  C
  H19      1.0000 0.43407  0.88063  0.69953  Biso   1.000  H
  C55      1.0000 0.47817  0.90663  0.56333  Biso   1.000  C
  C56      1.0000 0.60177  0.87363  0.46193  Biso   1.000  C
  C57      1.0000 0.51967  0.91333  0.31143  Biso   1.000  C
  C58      1.0000 0.38537  0.67533  0.46113  Biso   1.000  C
  H20      1.0000 0.41967  0.68093  0.46213  Biso   1.000  H
  C59      1.0000 0.37677  0.71803  0.46033  Biso   1.000  C
  C60      1.0000 0.42207  0.77383  0.45953  Biso   1.000  C
  In6      1.0000 0.17373  0.20060  0.78118  Biso   1.000  In
  O41      1.0000 0.14293  0.19907  0.91777  Biso   1.000  O
  O42      1.0000 0.16033  0.26037  0.83197  Biso   1.000  O
  O43      1.0000 0.24503  0.22177  0.84447  Biso   1.000  O
  O44      1.0000 0.24523  0.18507  0.73207  Biso   1.000  O
  O45      1.0000 0.22143  0.27277  0.69417  Biso   1.000  O
  O46      1.0000 0.15033  0.19937  0.66027  Biso   1.000  O
  O47      1.0000 0.08023  0.14507  0.78627  Biso   1.000  O
  O48      1.0000 0.13553  0.11437  0.79437  Biso   1.000  O
  C61      1.0000 0.12633  0.26847  0.95337  Biso   1.000  C
  C62      1.0000 0.13293  0.31757  0.93097  Biso   1.000  C
  H21      1.0000 0.14673  0.33157  0.88277  Biso   1.000  H
  C63      1.0000 0.11873  0.34567  0.98207  Biso   1.000  C
  C64      1.0000 0.09233  0.32097  0.04977  Biso   1.000  C
  H22      1.0000 0.07973  0.33777  0.08177  Biso   1.000  H
  C65      1.0000 0.08473  0.27147  0.07007  Biso   1.000  C
  C66      1.0000 0.10403  0.24637  0.01917  Biso   1.000  C
  H23      1.0000 0.10073  0.21397  0.03287  Biso   1.000  H
  C67      1.0000 0.14483  0.23997  0.89667  Biso   1.000  C
  C68      1.0000 0.26843  0.20697  0.79527  Biso   1.000  C
  C69      1.0000 0.18633  0.24667  0.64477  Biso   1.000  C
  C70      1.0000 0.05203  0.00867  0.79447  Biso   1.000  C
  H24      1.0000 0.08633  0.01427  0.79547  Biso   1.000  H
  C71      1.0000 0.04343  0.05137  0.79367  Biso   1.000  C
  C72      1.0000 0.08873  0.10717  0.79287  Biso   1.000  C
  In7      1.0000 0.46607  0.30647  0.11451  Biso   1.000  In
  O49      1.0000 0.46760  0.27720  0.25110  Biso   1.000  O
  O50      1.0000 0.40630  0.23330  0.16530  Biso   1.000  O
  O51      1.0000 0.44490  0.35660  0.17780  Biso   1.000  O
  O52      1.0000 0.48160  0.39350  0.06540  Biso   1.000  O
  O53      1.0000 0.39390  0.28200  0.02750  Biso   1.000  O
  O54      1.0000 0.46730  0.28430  0.99360  Biso   1.000  O
  O55      1.0000 0.52160  0.26850  0.11960  Biso   1.000  O
  O56      1.0000 0.55230  0.35450  0.12770  Biso   1.000  O
  C73      1.0000 0.39820  0.19120  0.28670  Biso   1.000  C
  C74      1.0000 0.34910  0.14870  0.26430  Biso   1.000  C
  H25      1.0000 0.33510  0.14850  0.21610  Biso   1.000  H
  C75      1.0000 0.32100  0.10640  0.31540  Biso   1.000  C
  C76      1.0000 0.34570  0.10470  0.38310  Biso   1.000  C
  H26      1.0000 0.32890  0.07530  0.41510  Biso   1.000  H
  C77      1.0000 0.39520  0.14660  0.40340  Biso   1.000  C
  C78      1.0000 0.42030  0.19100  0.35250  Biso   1.000  C
  H27      1.0000 0.45270  0.22010  0.36620  Biso   1.000  H
  C79      1.0000 0.42670  0.23820  0.23000  Biso   1.000  C
  C80      1.0000 0.45970  0.39480  0.12860  Biso   1.000  C
  C81      1.0000 0.42000  0.27300  0.97810  Biso   1.000  C
  C82      1.0000 0.65800  0.37670  0.12780  Biso   1.000  C
  H28      1.0000 0.65240  0.40540  0.12880  Biso   1.000  H
  C83      1.0000 0.61530  0.32540  0.12700  Biso   1.000  C
  C84      1.0000 0.55950  0.31490  0.12620  Biso   1.000  C
  In8      1.0000 0.13274  0.63980  0.44784  Biso   1.000  In
  O57      1.0000 0.13427  0.61053  0.58443  Biso   1.000  O
  O58      1.0000 0.07297  0.56663  0.49863  Biso   1.000  O
  O59      1.0000 0.11157  0.68993  0.51113  Biso   1.000  O
  O60      1.0000 0.14827  0.72683  0.39873  Biso   1.000  O
  O61      1.0000 0.06057  0.61533  0.36083  Biso   1.000  O
  O62      1.0000 0.13397  0.61763  0.32693  Biso   1.000  O
  O63      1.0000 0.18827  0.60183  0.45293  Biso   1.000  O
  O64      1.0000 0.21897  0.68783  0.46103  Biso   1.000  O
  C85      1.0000 0.06487  0.52453  0.62003  Biso   1.000  C
  C86      1.0000 0.01577  0.48203  0.59763  Biso   1.000  C
  H29      1.0000 0.00177  0.48183  0.54943  Biso   1.000  H
  C87      1.0000 0.98767  0.43973  0.64873  Biso   1.000  C
  C88      1.0000 0.01237  0.43803  0.71643  Biso   1.000  C
  H30      1.0000 0.99557  0.40863  0.74843  Biso   1.000  H
  C89      1.0000 0.06187  0.47993  0.73673  Biso   1.000  C
  C90      1.0000 0.08697  0.52433  0.68583  Biso   1.000  C
  H31      1.0000 0.11937  0.55343  0.69953  Biso   1.000  H
  C91      1.0000 0.09337  0.57153  0.56333  Biso   1.000  C
  C92      1.0000 0.12637  0.72813  0.46193  Biso   1.000  C
  C93      1.0000 0.08667  0.60633  0.31143  Biso   1.000  C
  C94      1.0000 0.32467  0.71003  0.46113  Biso   1.000  C
  H32      1.0000 0.31907  0.73873  0.46213  Biso   1.000  H
  C95      1.0000 0.28197  0.65873  0.46033  Biso   1.000  C
  C96      1.0000 0.22617  0.64823  0.45953  Biso   1.000  C
  In9      1.0000 0.79940  0.97314  0.78118  Biso   1.000  In
  O65      1.0000 0.80093  0.94387  0.91777  Biso   1.000  O
  O66      1.0000 0.73963  0.89997  0.83197  Biso   1.000  O
  O67      1.0000 0.77823  0.02327  0.84447  Biso   1.000  O
  O68      1.0000 0.81493  0.06017  0.73207  Biso   1.000  O
  O69      1.0000 0.72723  0.94867  0.69417  Biso   1.000  O
  O70      1.0000 0.80063  0.95097  0.66027  Biso   1.000  O
  O71      1.0000 0.85493  0.93517  0.78627  Biso   1.000  O
  O72      1.0000 0.88563  0.02117  0.79437  Biso   1.000  O
  C97      1.0000 0.73153  0.85787  0.95337  Biso   1.000  C
  C98      1.0000 0.68243  0.81537  0.93097  Biso   1.000  C
  H33      1.0000 0.66843  0.81517  0.88277  Biso   1.000  H
  C99      1.0000 0.65433  0.77307  0.98207  Biso   1.000  C
  C100     1.0000 0.67903  0.77137  0.04977  Biso   1.000  C
  H34      1.0000 0.66223  0.74197  0.08177  Biso   1.000  H
  C101     1.0000 0.72853  0.81327  0.07007  Biso   1.000  C
  C102     1.0000 0.75363  0.85767  0.01917  Biso   1.000  C
  H35      1.0000 0.78603  0.88677  0.03287  Biso   1.000  H
  C103     1.0000 0.76003  0.90487  0.89667  Biso   1.000  C
  C104     1.0000 0.79303  0.06147  0.79527  Biso   1.000  C
  C105     1.0000 0.75333  0.93967  0.64477  Biso   1.000  C
  C106     1.0000 0.99133  0.04337  0.79447  Biso   1.000  C
  H36      1.0000 0.98573  0.07207  0.79547  Biso   1.000  H
  C107     1.0000 0.94863  0.99207  0.79367  Biso   1.000  C
  C108     1.0000 0.89283  0.98157  0.79287  Biso   1.000  C
  In10     1.0000 0.84040  0.30647  0.61451  Biso   1.000  In
  O73      1.0000 0.80960  0.27720  0.75110  Biso   1.000  O
  O74      1.0000 0.82700  0.23330  0.66530  Biso   1.000  O
  O75      1.0000 0.91170  0.35660  0.67780  Biso   1.000  O
  O76      1.0000 0.91190  0.39350  0.56540  Biso   1.000  O
  O77      1.0000 0.88810  0.28200  0.52750  Biso   1.000  O
  O78      1.0000 0.81700  0.28430  0.49360  Biso   1.000  O
  O79      1.0000 0.74690  0.26850  0.61960  Biso   1.000  O
  O80      1.0000 0.80220  0.35450  0.62770  Biso   1.000  O
  C109     1.0000 0.79300  0.19120  0.78670  Biso   1.000  C
  C110     1.0000 0.79960  0.14870  0.76430  Biso   1.000  C
  H37      1.0000 0.81340  0.14850  0.71610  Biso   1.000  H
  C111     1.0000 0.78540  0.10640  0.81540  Biso   1.000  C
  C112     1.0000 0.75900  0.10470  0.88310  Biso   1.000  C
  H38      1.0000 0.74640  0.07530  0.91510  Biso   1.000  H
  C113     1.0000 0.75140  0.14660  0.90340  Biso   1.000  C
  C114     1.0000 0.77070  0.19100  0.85250  Biso   1.000  C
  H39      1.0000 0.76740  0.22010  0.86620  Biso   1.000  H
  C115     1.0000 0.81150  0.23820  0.73000  Biso   1.000  C
  C116     1.0000 0.93510  0.39480  0.62860  Biso   1.000  C
  C117     1.0000 0.85300  0.27300  0.47810  Biso   1.000  C
  C118     1.0000 0.71870  0.37670  0.62780  Biso   1.000  C
  H40      1.0000 0.75300  0.40540  0.62880  Biso   1.000  H
  C119     1.0000 0.71010  0.32540  0.62700  Biso   1.000  C
  C120     1.0000 0.75540  0.31490  0.62620  Biso   1.000  C
  In11     1.0000 0.50707  0.63980  0.94784  Biso   1.000  In
  O81      1.0000 0.47627  0.61053  0.08443  Biso   1.000  O
  O82      1.0000 0.49367  0.56663  0.99863  Biso   1.000  O
  O83      1.0000 0.57837  0.68993  0.01113  Biso   1.000  O
  O84      1.0000 0.57857  0.72683  0.89873  Biso   1.000  O
  O85      1.0000 0.55477  0.61533  0.86083  Biso   1.000  O
  O86      1.0000 0.48367  0.61763  0.82693  Biso   1.000  O
  O87      1.0000 0.41357  0.60183  0.95293  Biso   1.000  O
  O88      1.0000 0.46887  0.68783  0.96103  Biso   1.000  O
  C121     1.0000 0.45967  0.52453  0.12003  Biso   1.000  C
  C122     1.0000 0.46627  0.48203  0.09763  Biso   1.000  C
  H41      1.0000 0.48007  0.48183  0.04943  Biso   1.000  H
  C123     1.0000 0.45207  0.43973  0.14873  Biso   1.000  C
  C124     1.0000 0.42567  0.43803  0.21643  Biso   1.000  C
  H42      1.0000 0.41307  0.40863  0.24843  Biso   1.000  H
  C125     1.0000 0.41807  0.47993  0.23673  Biso   1.000  C
  C126     1.0000 0.43737  0.52433  0.18583  Biso   1.000  C
  H43      1.0000 0.43407  0.55343  0.19953  Biso   1.000  H
  C127     1.0000 0.47817  0.57153  0.06333  Biso   1.000  C
  C128     1.0000 0.60177  0.72813  0.96193  Biso   1.000  C
  C129     1.0000 0.51967  0.60633  0.81143  Biso   1.000  C
  C130     1.0000 0.38537  0.71003  0.96113  Biso   1.000  C
  H44      1.0000 0.41967  0.73873  0.96213  Biso   1.000  H
  C131     1.0000 0.37677  0.65873  0.96033  Biso   1.000  C
  C132     1.0000 0.42207  0.64823  0.95953  Biso   1.000  C
  In12     1.0000 0.17373  0.97314  0.28118  Biso   1.000  In
  O89      1.0000 0.14293  0.94387  0.41777  Biso   1.000  O
  O90      1.0000 0.16033  0.89997  0.33197  Biso   1.000  O
  O91      1.0000 0.24503  0.02327  0.34447  Biso   1.000  O
  O92      1.0000 0.24523  0.06017  0.23207  Biso   1.000  O
  O93      1.0000 0.22143  0.94867  0.19417  Biso   1.000  O
  O94      1.0000 0.15033  0.95097  0.16027  Biso   1.000  O
  O95      1.0000 0.08023  0.93517  0.28627  Biso   1.000  O
  O96      1.0000 0.13553  0.02117  0.29437  Biso   1.000  O
  C133     1.0000 0.12633  0.85787  0.45337  Biso   1.000  C
  C134     1.0000 0.13293  0.81537  0.43097  Biso   1.000  C
  H45      1.0000 0.14673  0.81517  0.38277  Biso   1.000  H
  C135     1.0000 0.11873  0.77307  0.48207  Biso   1.000  C
  C136     1.0000 0.09233  0.77137  0.54977  Biso   1.000  C
  H46      1.0000 0.07973  0.74197  0.58177  Biso   1.000  H
  C137     1.0000 0.08473  0.81327  0.57007  Biso   1.000  C
  C138     1.0000 0.10403  0.85767  0.51917  Biso   1.000  C
  H47      1.0000 0.10073  0.88677  0.53287  Biso   1.000  H
  C139     1.0000 0.14483  0.90487  0.39667  Biso   1.000  C
  C140     1.0000 0.26843  0.06147  0.29527  Biso   1.000  C
  C141     1.0000 0.18633  0.93967  0.14477  Biso   1.000  C
  C142     1.0000 0.05203  0.04337  0.29447  Biso   1.000  C
  H48      1.0000 0.08633  0.07207  0.29547  Biso   1.000  H
  C143     1.0000 0.04343  0.99207  0.29367  Biso   1.000  C
  C144     1.0000 0.08873  0.98157  0.29287  Biso   1.000  C
  In13     1.0000 0.46607  0.15960  0.61451  Biso   1.000  In
  O97      1.0000 0.46760  0.19040  0.75110  Biso   1.000  O
  O98      1.0000 0.40630  0.17300  0.66530  Biso   1.000  O
  O99      1.0000 0.44490  0.08830  0.67780  Biso   1.000  O
  O100     1.0000 0.48160  0.08810  0.56540  Biso   1.000  O
  O101     1.0000 0.39390  0.11190  0.52750  Biso   1.000  O
  O102     1.0000 0.46730  0.18300  0.49360  Biso   1.000  O
  O103     1.0000 0.52160  0.25310  0.61960  Biso   1.000  O
  O104     1.0000 0.55230  0.19780  0.62770  Biso   1.000  O
  C145     1.0000 0.39820  0.20700  0.78670  Biso   1.000  C
  C146     1.0000 0.34910  0.20040  0.76430  Biso   1.000  C
  H49      1.0000 0.33510  0.18660  0.71610  Biso   1.000  H
  C147     1.0000 0.32100  0.21460  0.81540  Biso   1.000  C
  C148     1.0000 0.34570  0.24100  0.88310  Biso   1.000  C
  H50      1.0000 0.32890  0.25360  0.91510  Biso   1.000  H
  C149     1.0000 0.39520  0.24860  0.90340  Biso   1.000  C
  C150     1.0000 0.42030  0.22930  0.85250  Biso   1.000  C
  H51      1.0000 0.45270  0.23260  0.86620  Biso   1.000  H
  C151     1.0000 0.42670  0.18850  0.73000  Biso   1.000  C
  C152     1.0000 0.45970  0.06490  0.62860  Biso   1.000  C
  C153     1.0000 0.42000  0.14700  0.47810  Biso   1.000  C
  C154     1.0000 0.65800  0.28130  0.62780  Biso   1.000  C
  H52      1.0000 0.65240  0.24700  0.62880  Biso   1.000  H
  C155     1.0000 0.61530  0.28990  0.62700  Biso   1.000  C
  C156     1.0000 0.55950  0.24460  0.62620  Biso   1.000  C
  In14     1.0000 0.13274  0.49293  0.94784  Biso   1.000  In
  O105     1.0000 0.13427  0.52373  0.08443  Biso   1.000  O
  O106     1.0000 0.07297  0.50633  0.99863  Biso   1.000  O
  O107     1.0000 0.11157  0.42163  0.01113  Biso   1.000  O
  O108     1.0000 0.14827  0.42143  0.89873  Biso   1.000  O
  O109     1.0000 0.06057  0.44523  0.86083  Biso   1.000  O
  O110     1.0000 0.13397  0.51633  0.82693  Biso   1.000  O
  O111     1.0000 0.18827  0.58643  0.95293  Biso   1.000  O
  O112     1.0000 0.21897  0.53113  0.96103  Biso   1.000  O
  C157     1.0000 0.06487  0.54033  0.12003  Biso   1.000  C
  C158     1.0000 0.01577  0.53373  0.09763  Biso   1.000  C
  H53      1.0000 0.00177  0.51993  0.04943  Biso   1.000  H
  C159     1.0000 0.98767  0.54793  0.14873  Biso   1.000  C
  C160     1.0000 0.01237  0.57433  0.21643  Biso   1.000  C
  H54      1.0000 0.99557  0.58693  0.24843  Biso   1.000  H
  C161     1.0000 0.06187  0.58193  0.23673  Biso   1.000  C
  C162     1.0000 0.08697  0.56263  0.18583  Biso   1.000  C
  H55      1.0000 0.11937  0.56593  0.19953  Biso   1.000  H
  C163     1.0000 0.09337  0.52183  0.06333  Biso   1.000  C
  C164     1.0000 0.12637  0.39823  0.96193  Biso   1.000  C
  C165     1.0000 0.08667  0.48033  0.81143  Biso   1.000  C
  C166     1.0000 0.32467  0.61463  0.96113  Biso   1.000  C
  H56      1.0000 0.31907  0.58033  0.96213  Biso   1.000  H
  C167     1.0000 0.28197  0.62323  0.96033  Biso   1.000  C
  C168     1.0000 0.22617  0.57793  0.95953  Biso   1.000  C
  In15     1.0000 0.79940  0.82627  0.28118  Biso   1.000  In
  O113     1.0000 0.80093  0.85707  0.41777  Biso   1.000  O
  O114     1.0000 0.73963  0.83967  0.33197  Biso   1.000  O
  O115     1.0000 0.77823  0.75497  0.34447  Biso   1.000  O
  O116     1.0000 0.81493  0.75477  0.23207  Biso   1.000  O
  O117     1.0000 0.72723  0.77857  0.19417  Biso   1.000  O
  O118     1.0000 0.80063  0.84967  0.16027  Biso   1.000  O
  O119     1.0000 0.85493  0.91977  0.28627  Biso   1.000  O
  O120     1.0000 0.88563  0.86447  0.29437  Biso   1.000  O
  C169     1.0000 0.73153  0.87367  0.45337  Biso   1.000  C
  C170     1.0000 0.68243  0.86707  0.43097  Biso   1.000  C
  H57      1.0000 0.66843  0.85327  0.38277  Biso   1.000  H
  C171     1.0000 0.65433  0.88127  0.48207  Biso   1.000  C
  C172     1.0000 0.67903  0.90767  0.54977  Biso   1.000  C
  H58      1.0000 0.66223  0.92027  0.58177  Biso   1.000  H
  C173     1.0000 0.72853  0.91527  0.57007  Biso   1.000  C
  C174     1.0000 0.75363  0.89597  0.51917  Biso   1.000  C
  H59      1.0000 0.78603  0.89927  0.53287  Biso   1.000  H
  C175     1.0000 0.76003  0.85517  0.39667  Biso   1.000  C
  C176     1.0000 0.79303  0.73157  0.29527  Biso   1.000  C
  C177     1.0000 0.75333  0.81367  0.14477  Biso   1.000  C
  C178     1.0000 0.99133  0.94797  0.29447  Biso   1.000  C
  H60      1.0000 0.98573  0.91367  0.29547  Biso   1.000  H
  C179     1.0000 0.94863  0.95657  0.29367  Biso   1.000  C
  C180     1.0000 0.89283  0.91127  0.29287  Biso   1.000  C
  In16     1.0000 0.69353  0.53393  0.61451  Biso   1.000  In
  O121     1.0000 0.72280  0.53240  0.75110  Biso   1.000  O
  O122     1.0000 0.76670  0.59370  0.66530  Biso   1.000  O
  O123     1.0000 0.64340  0.55510  0.67780  Biso   1.000  O
  O124     1.0000 0.60650  0.51840  0.56540  Biso   1.000  O
  O125     1.0000 0.71800  0.60610  0.52750  Biso   1.000  O
  O126     1.0000 0.71570  0.53270  0.49360  Biso   1.000  O
  O127     1.0000 0.73150  0.47840  0.61960  Biso   1.000  O
  O128     1.0000 0.64550  0.44770  0.62770  Biso   1.000  O
  C181     1.0000 0.80880  0.60180  0.78670  Biso   1.000  C
  C182     1.0000 0.85130  0.65090  0.76430  Biso   1.000  C
  H61      1.0000 0.85150  0.66490  0.71610  Biso   1.000  H
  C183     1.0000 0.89360  0.67900  0.81540  Biso   1.000  C
  C184     1.0000 0.89530  0.65430  0.88310  Biso   1.000  C
  H62      1.0000 0.92470  0.67110  0.91510  Biso   1.000  H
  C185     1.0000 0.85340  0.60480  0.90340  Biso   1.000  C
  C186     1.0000 0.80900  0.57970  0.85250  Biso   1.000  C
  H63      1.0000 0.77990  0.54730  0.86620  Biso   1.000  H
  C187     1.0000 0.76180  0.57330  0.73000  Biso   1.000  C
  C188     1.0000 0.60520  0.54030  0.62860  Biso   1.000  C
  C189     1.0000 0.72700  0.58000  0.47810  Biso   1.000  C
  C190     1.0000 0.62330  0.34200  0.62780  Biso   1.000  C
  H64      1.0000 0.59460  0.34760  0.62880  Biso   1.000  H
  C191     1.0000 0.67460  0.38470  0.62700  Biso   1.000  C
  C192     1.0000 0.68510  0.44050  0.62620  Biso   1.000  C
  In17     1.0000 0.36020  0.86726  0.94784  Biso   1.000  In
  O129     1.0000 0.38947  0.86573  0.08443  Biso   1.000  O
  O130     1.0000 0.43337  0.92703  0.99863  Biso   1.000  O
  O131     1.0000 0.31007  0.88843  0.01113  Biso   1.000  O
  O132     1.0000 0.27317  0.85173  0.89873  Biso   1.000  O
  O133     1.0000 0.38467  0.93943  0.86083  Biso   1.000  O
  O134     1.0000 0.38237  0.86603  0.82693  Biso   1.000  O
  O135     1.0000 0.39817  0.81173  0.95293  Biso   1.000  O
  O136     1.0000 0.31217  0.78103  0.96103  Biso   1.000  O
  C193     1.0000 0.47547  0.93513  0.12003  Biso   1.000  C
  C194     1.0000 0.51797  0.98423  0.09763  Biso   1.000  C
  H65      1.0000 0.51817  0.99823  0.04943  Biso   1.000  H
  C195     1.0000 0.56027  0.01233  0.14873  Biso   1.000  C
  C196     1.0000 0.56197  0.98763  0.21643  Biso   1.000  C
  H66      1.0000 0.59137  0.00443  0.24843  Biso   1.000  H
  C197     1.0000 0.52007  0.93813  0.23673  Biso   1.000  C
  C198     1.0000 0.47567  0.91303  0.18583  Biso   1.000  C
  H67      1.0000 0.44657  0.88063  0.19953  Biso   1.000  H
  C199     1.0000 0.42847  0.90663  0.06333  Biso   1.000  C
  C200     1.0000 0.27187  0.87363  0.96193  Biso   1.000  C
  C201     1.0000 0.39367  0.91333  0.81143  Biso   1.000  C
  C202     1.0000 0.28997  0.67533  0.96113  Biso   1.000  C
  H68      1.0000 0.26127  0.68093  0.96213  Biso   1.000  H
  C203     1.0000 0.34127  0.71803  0.96033  Biso   1.000  C
  C204     1.0000 0.35177  0.77383  0.95953  Biso   1.000  C
  In18     1.0000 0.02686  0.20060  0.28118  Biso   1.000  In
  O137     1.0000 0.05613  0.19907  0.41777  Biso   1.000  O
  O138     1.0000 0.10003  0.26037  0.33197  Biso   1.000  O
  O139     1.0000 0.97673  0.22177  0.34447  Biso   1.000  O
  O140     1.0000 0.93983  0.18507  0.23207  Biso   1.000  O
  O141     1.0000 0.05133  0.27277  0.19417  Biso   1.000  O
  O142     1.0000 0.04903  0.19937  0.16027  Biso   1.000  O
  O143     1.0000 0.06483  0.14507  0.28627  Biso   1.000  O
  O144     1.0000 0.97883  0.11437  0.29437  Biso   1.000  O
  C205     1.0000 0.14213  0.26847  0.45337  Biso   1.000  C
  C206     1.0000 0.18463  0.31757  0.43097  Biso   1.000  C
  H69      1.0000 0.18483  0.33157  0.38277  Biso   1.000  H
  C207     1.0000 0.22693  0.34567  0.48207  Biso   1.000  C
  C208     1.0000 0.22863  0.32097  0.54977  Biso   1.000  C
  H70      1.0000 0.25803  0.33777  0.58177  Biso   1.000  H
  C209     1.0000 0.18673  0.27147  0.57007  Biso   1.000  C
  C210     1.0000 0.14233  0.24637  0.51917  Biso   1.000  C
  H71      1.0000 0.11323  0.21397  0.53287  Biso   1.000  H
  C211     1.0000 0.09513  0.23997  0.39667  Biso   1.000  C
  C212     1.0000 0.93853  0.20697  0.29527  Biso   1.000  C
  C213     1.0000 0.06033  0.24667  0.14477  Biso   1.000  C
  C214     1.0000 0.95663  0.00867  0.29447  Biso   1.000  C
  H72      1.0000 0.92793  0.01427  0.29547  Biso   1.000  H
  C215     1.0000 0.00793  0.05137  0.29367  Biso   1.000  C
  C216     1.0000 0.01843  0.10717  0.29287  Biso   1.000  C
