data_image0
_cell_length_a       8.997
_cell_length_b       10.5163
_cell_length_c       10.686
_cell_angle_alpha    98.008
_cell_angle_beta     97.436
_cell_angle_gamma    111.11

_symmetry_space_group_name_H-M    "P 1"
_symmetry_int_tables_number       1

loop_
  _symmetry_equiv_pos_as_xyz
  'x, y, z'

loop_
  _atom_site_label
  _atom_site_occupancy
  _atom_site_fract_x
  _atom_site_fract_y
  _atom_site_fract_z
  _atom_site_thermal_displace_type
  _atom_site_B_iso_or_equiv
  _atom_site_type_symbol
  Mn1      1.0000 0.20171  0.74605  0.18588  Biso   1.000  Mn
  O1       1.0000 0.94957  0.63610  0.06921  Biso   1.000  O
  O2       1.0000 0.81866  0.46677  0.89472  Biso   1.000  O
  N1       1.0000 0.46130  0.82120  0.27313  Biso   1.000  N
  N2       1.0000 0.81120  0.17345  0.20293  Biso   1.000  N
  N3       1.0000 0.71750  0.97400  0.31517  Biso   1.000  N
  N4       1.0000 0.91080  0.20550  0.44180  Biso   1.000  N
  N5       1.0000 0.00710  0.06800  0.27652  Biso   1.000  N
  C1       1.0000 0.56910  0.92640  0.23830  Biso   1.000  C
  H1       1.0000 0.54550  0.96390  0.16810  Biso   1.000  H
  C2       1.0000 0.93250  0.52970  0.98950  Biso   1.000  C
  C3       1.0000 0.70150  0.89020  0.40590  Biso   1.000  C
  H2       1.0000 0.78290  0.89630  0.47250  Biso   1.000  H
  C4       1.0000 0.81670  0.14360  0.07670  Biso   1.000  C
  H3       1.0000 0.87020  0.08920  0.04440  Biso   1.000  H
  C5       1.0000 0.01540  0.94070  0.26200  Biso   1.000  C
  H4       1.0000 0.93470  0.86180  0.27570  Biso   1.000  H
  C6       1.0000 0.54490  0.79740  0.37940  Biso   1.000  C
  H5       1.0000 0.50090  0.72860  0.42550  Biso   1.000  H
  C7       1.0000 0.23550  0.07650  0.21670  Biso   1.000  C
  H6       1.0000 0.33660  0.10940  0.19340  Biso   1.000  H
  C8       1.0000 0.71980  0.25450  0.21040  Biso   1.000  C
  H7       1.0000 0.69340  0.29120  0.28460  Biso   1.000  H
  C9       1.0000 0.67580  0.27030  0.08900  Biso   1.000  C
  H8       1.0000 0.61370  0.32070  0.06630  Biso   1.000  H
  C10      1.0000 0.14840  0.15490  0.24650  Biso   1.000  C
  H9       1.0000 0.17850  0.24930  0.24660  Biso   1.000  H
  C11      1.0000 0.81150  0.20360  0.52640  Biso   1.000  C
  H10      1.0000 0.70450  0.14020  0.51160  Biso   1.000  H
  C12      1.0000 0.05690  0.31430  0.49940  Biso   1.000  C
  H11      1.0000 0.15090  0.34300  0.46520  Biso   1.000  H
  C13      1.0000 0.03680  0.37120  0.61500  Biso   1.000  C
  H12      1.0000 0.11600  0.44620  0.67360  Biso   1.000  H
  B1       1.0000 0.86400  0.10540  0.30990  Biso   1.000  B
  N6       1.0000 0.15080  0.94100  0.22621  Biso   1.000  N
  N7       1.0000 0.88090  0.30050  0.63237  Biso   1.000  N
  N8       1.0000 0.73750  0.20030  0.00425  Biso   1.000  N
  Mn2      1.0000 0.79829  0.25395  0.81412  Biso   1.000  Mn
  O3       1.0000 0.05043  0.36390  0.93079  Biso   1.000  O
  O4       1.0000 0.18134  0.53323  0.10528  Biso   1.000  O
  N9       1.0000 0.53870  0.17880  0.72687  Biso   1.000  N
  N10      1.0000 0.18880  0.82655  0.79707  Biso   1.000  N
  N11      1.0000 0.28250  0.02600  0.68483  Biso   1.000  N
  N12      1.0000 0.08920  0.79450  0.55820  Biso   1.000  N
  N13      1.0000 0.99290  0.93200  0.72348  Biso   1.000  N
  C14      1.0000 0.43090  0.07360  0.76170  Biso   1.000  C
  H13      1.0000 0.45450  0.03610  0.83190  Biso   1.000  H
  C15      1.0000 0.06750  0.47030  0.01050  Biso   1.000  C
  C16      1.0000 0.29850  0.10980  0.59410  Biso   1.000  C
  H14      1.0000 0.21710  0.10370  0.52750  Biso   1.000  H
  C17      1.0000 0.18330  0.85640  0.92330  Biso   1.000  C
  H15      1.0000 0.12980  0.91080  0.95560  Biso   1.000  H
  C18      1.0000 0.98460  0.05930  0.73800  Biso   1.000  C
  H16      1.0000 0.06530  0.13820  0.72430  Biso   1.000  H
  C19      1.0000 0.45510  0.20260  0.62060  Biso   1.000  C
  H17      1.0000 0.49910  0.27140  0.57450  Biso   1.000  H
  C20      1.0000 0.76450  0.92350  0.78330  Biso   1.000  C
  H18      1.0000 0.66340  0.89060  0.80660  Biso   1.000  H
  C21      1.0000 0.28020  0.74550  0.78960  Biso   1.000  C
  H19      1.0000 0.30660  0.70880  0.71540  Biso   1.000  H
  C22      1.0000 0.32420  0.72970  0.91100  Biso   1.000  C
  H20      1.0000 0.38630  0.67930  0.93370  Biso   1.000  H
  C23      1.0000 0.85160  0.84510  0.75350  Biso   1.000  C
  H21      1.0000 0.82150  0.75070  0.75340  Biso   1.000  H
  C24      1.0000 0.18850  0.79640  0.47360  Biso   1.000  C
  H22      1.0000 0.29550  0.85980  0.48840  Biso   1.000  H
  C25      1.0000 0.94310  0.68570  0.50060  Biso   1.000  C
  H23      1.0000 0.84910  0.65700  0.53480  Biso   1.000  H
  C26      1.0000 0.96320  0.62880  0.38500  Biso   1.000  C
  H24      1.0000 0.88400  0.55380  0.32640  Biso   1.000  H
  B2       1.0000 0.13600  0.89460  0.69010  Biso   1.000  B
  N14      1.0000 0.84920  0.05900  0.77379  Biso   1.000  N
  N15      1.0000 0.11910  0.69950  0.36763  Biso   1.000  N
  N16      1.0000 0.26250  0.79970  0.99575  Biso   1.000  N
