data_image0
_cell_length_a       10.8767
_cell_length_b       12.698
_cell_length_c       14.373
_cell_angle_alpha    113.644
_cell_angle_beta     92.071
_cell_angle_gamma    114.579

_symmetry_space_group_name_H-M    "P 1"
_symmetry_int_tables_number       1

loop_
  _symmetry_equiv_pos_as_xyz
  'x, y, z'

loop_
  _atom_site_label
  _atom_site_occupancy
  _atom_site_fract_x
  _atom_site_fract_y
  _atom_site_fract_z
  _atom_site_thermal_displace_type
  _atom_site_B_iso_or_equiv
  _atom_site_type_symbol
  Cu1      1.0000 0.50154  0.44468  0.25133  Biso   1.000  Cu
  N1       1.0000 0.60050  0.63180  0.28050  Biso   1.000  N
  Mo1      1.0000 0.81948  0.39163  0.15377  Biso   1.000  Mo
  O1       1.0000 0.78370  0.64980  0.56790  Biso   1.000  O
  C1       1.0000 0.92250  0.86710  0.96280  Biso   1.000  C
  H1       1.0000 0.87000  0.77750  0.93740  Biso   1.000  H
  O2       1.0000 0.50640  0.48540  0.39590  Biso   1.000  O
  Mo2      1.0000 0.16637  0.56885  0.23395  Biso   1.000  Mo
  N2       1.0000 0.41390  0.25340  0.20510  Biso   1.000  N
  Cu2      1.0000 0.60680  0.50280  0.50600  Biso   1.000  Cu
  O3       1.0000 0.13540  0.88110  0.24570  Biso   1.000  O
  C2       1.0000 0.35380  0.04250  0.06810  Biso   1.000  C
  H2       1.0000 0.36400  0.99230  0.00380  Biso   1.000  H
  O4       1.0000 0.63630  0.36730  0.47320  Biso   1.000  O
  Mo3      1.0000 0.65581  0.31566  0.91724  Biso   1.000  Mo
  O5       1.0000 0.39070  0.40160  0.11450  Biso   1.000  O
  O6       1.0000 0.69600  0.42980  0.20540  Biso   1.000  O
  C3       1.0000 0.02990  0.90780  0.42480  Biso   1.000  C
  H3       1.0000 0.05120  0.84710  0.37610  Biso   1.000  H
  O7       1.0000 0.84900  0.72000  0.08270  Biso   1.000  O
  C4       1.0000 0.00170  0.91540  0.90290  Biso   1.000  C
  H4       1.0000 0.00300  0.85830  0.83790  Biso   1.000  H
  N3       1.0000 0.84090  0.90980  0.12700  Biso   1.000  N
  O8       1.0000 0.97980  0.54650  0.24470  Biso   1.000  O
  C5       1.0000 0.06960  0.02810  0.42730  Biso   1.000  C
  N4       1.0000 0.14560  0.06970  0.35920  Biso   1.000  N
  O9       1.0000 0.56970  0.16670  0.81260  Biso   1.000  O
  C6       1.0000 0.81380  0.80100  0.13890  Biso   1.000  C
  O10      1.0000 0.53250  0.35240  0.96840  Biso   1.000  O
  C7       1.0000 0.27380  0.98550  0.12070  Biso   1.000  C
  H5       1.0000 0.22680  0.89520  0.09250  Biso   1.000  H
  O11      1.0000 0.83020  0.28690  0.19330  Biso   1.000  O
  C8       1.0000 0.41990  0.17590  0.11090  Biso   1.000  C
  H6       1.0000 0.47140  0.21440  0.07270  Biso   1.000  H
  O12      1.0000 0.00710  0.40360  0.07630  Biso   1.000  O
  C9       1.0000 0.95820  0.88040  0.49630  Biso   1.000  C
  H7       1.0000 0.92760  0.79870  0.49330  Biso   1.000  H
  O13      1.0000 0.17480  0.45730  0.26720  Biso   1.000  O
  C10      1.0000 0.92020  0.95080  0.06100  Biso   1.000  C
  C11      1.0000 0.17590  0.99690  0.27520  Biso   1.000  C
  O14      1.0000 0.29730  0.56930  0.14610  Biso   1.000  O
  C12      1.0000 0.73900  0.78360  0.21860  Biso   1.000  C
  O15      1.0000 0.26060  0.71950  0.34100  Biso   1.000  O
  C13      1.0000 0.59470  0.72870  0.35920  Biso   1.000  C
  H8       1.0000 0.54200  0.70990  0.40530  Biso   1.000  H
  O16      1.0000 0.86460  0.34510  0.87560  Biso   1.000  O
  C14      1.0000 0.73190  0.88280  0.30280  Biso   1.000  C
  H9       1.0000 0.77320  0.96730  0.31070  Biso   1.000  H
  O17      1.0000 0.71470  0.26580  0.01260  Biso   1.000  O
  C15      1.0000 0.26180  0.06200  0.21700  Biso   1.000  C
  O18      1.0000 0.83520  0.49580  0.05280  Biso   1.000  O
  C16      1.0000 0.66950  0.65860  0.20980  Biso   1.000  C
  H10      1.0000 0.67060  0.59030  0.15260  Biso   1.000  H
  C17      1.0000 0.66120  0.85340  0.37590  Biso   1.000  C
  H11      1.0000 0.66020  0.91930  0.43530  Biso   1.000  H
  C18      1.0000 0.33630  0.19500  0.25720  Biso   1.000  C
  H12      1.0000 0.33260  0.24680  0.32350  Biso   1.000  H
  Cu3      1.0000 0.49846  0.55532  0.74867  Biso   1.000  Cu
  N5       1.0000 0.39950  0.36820  0.71950  Biso   1.000  N
  Mo4      1.0000 0.18052  0.60837  0.84623  Biso   1.000  Mo
  O19      1.0000 0.21630  0.35020  0.43210  Biso   1.000  O
  C19      1.0000 0.07750  0.13290  0.03720  Biso   1.000  C
  H13      1.0000 0.13000  0.22250  0.06260  Biso   1.000  H
  O20      1.0000 0.49360  0.51460  0.60410  Biso   1.000  O
  Mo5      1.0000 0.83363  0.43115  0.76605  Biso   1.000  Mo
  N6       1.0000 0.58610  0.74660  0.79490  Biso   1.000  N
  Cu4      1.0000 0.39320  0.49720  0.49400  Biso   1.000  Cu
  O21      1.0000 0.86460  0.11890  0.75430  Biso   1.000  O
  C20      1.0000 0.64620  0.95750  0.93190  Biso   1.000  C
  H14      1.0000 0.63600  0.00770  0.99620  Biso   1.000  H
  O22      1.0000 0.36370  0.63270  0.52680  Biso   1.000  O
  Mo6      1.0000 0.34419  0.68434  0.08276  Biso   1.000  Mo
  O23      1.0000 0.60930  0.59840  0.88550  Biso   1.000  O
  O24      1.0000 0.30400  0.57020  0.79460  Biso   1.000  O
  C21      1.0000 0.97010  0.09220  0.57520  Biso   1.000  C
  H15      1.0000 0.94880  0.15290  0.62390  Biso   1.000  H
  O25      1.0000 0.15100  0.28000  0.91730  Biso   1.000  O
  C22      1.0000 0.99830  0.08460  0.09710  Biso   1.000  C
  H16      1.0000 0.99700  0.14170  0.16210  Biso   1.000  H
  N7       1.0000 0.15910  0.09020  0.87300  Biso   1.000  N
  O26      1.0000 0.02020  0.45350  0.75530  Biso   1.000  O
  C23      1.0000 0.93040  0.97190  0.57270  Biso   1.000  C
  N8       1.0000 0.85440  0.93030  0.64080  Biso   1.000  N
  O27      1.0000 0.43030  0.83330  0.18740  Biso   1.000  O
  C24      1.0000 0.18620  0.19900  0.86110  Biso   1.000  C
  O28      1.0000 0.46750  0.64760  0.03160  Biso   1.000  O
  C25      1.0000 0.72620  0.01450  0.87930  Biso   1.000  C
  H17      1.0000 0.77320  0.10480  0.90750  Biso   1.000  H
  O29      1.0000 0.16980  0.71310  0.80670  Biso   1.000  O
  C26      1.0000 0.58010  0.82410  0.88910  Biso   1.000  C
  H18      1.0000 0.52860  0.78560  0.92730  Biso   1.000  H
  O30      1.0000 0.99290  0.59640  0.92370  Biso   1.000  O
  C27      1.0000 0.04180  0.11960  0.50370  Biso   1.000  C
  H19      1.0000 0.07240  0.20130  0.50670  Biso   1.000  H
  O31      1.0000 0.82520  0.54270  0.73280  Biso   1.000  O
  C28      1.0000 0.07980  0.04920  0.93900  Biso   1.000  C
  C29      1.0000 0.82410  0.00310  0.72480  Biso   1.000  C
  O32      1.0000 0.70270  0.43070  0.85390  Biso   1.000  O
  C30      1.0000 0.26100  0.21640  0.78140  Biso   1.000  C
  O33      1.0000 0.73940  0.28050  0.65900  Biso   1.000  O
  C31      1.0000 0.40530  0.27130  0.64080  Biso   1.000  C
  H20      1.0000 0.45800  0.29010  0.59470  Biso   1.000  H
  O34      1.0000 0.13540  0.65490  0.12440  Biso   1.000  O
  C32      1.0000 0.26810  0.11720  0.69720  Biso   1.000  C
  H21      1.0000 0.22680  0.03270  0.68930  Biso   1.000  H
  O35      1.0000 0.28530  0.73420  0.98740  Biso   1.000  O
  C33      1.0000 0.73820  0.93800  0.78300  Biso   1.000  C
  O36      1.0000 0.16480  0.50420  0.94720  Biso   1.000  O
  C34      1.0000 0.33050  0.34140  0.79020  Biso   1.000  C
  H22      1.0000 0.32940  0.40970  0.84740  Biso   1.000  H
  C35      1.0000 0.33880  0.14660  0.62410  Biso   1.000  C
  H23      1.0000 0.33980  0.08070  0.56470  Biso   1.000  H
  C36      1.0000 0.66370  0.80500  0.74280  Biso   1.000  C
  H24      1.0000 0.66740  0.75320  0.67650  Biso   1.000  H
  Cr1      1.0000 0.00000  0.50000  0.00000  Biso   1.000  Cr
