data_image0
_cell_length_a       8.98095
_cell_length_b       16.0015
_cell_length_c       16.0015
_cell_angle_alpha    63.4167
_cell_angle_beta     79.2172
_cell_angle_gamma    100.783

_symmetry_space_group_name_H-M    P 1
_symmetry_int_tables_number       1

loop_
  _symmetry_equiv_pos_as_xyz
  'x, y, z'

loop_
  _atom_site_label
  _atom_site_occupancy
  _atom_site_fract_x
  _atom_site_fract_y
  _atom_site_fract_z
  _atom_site_thermal_displace_type
  _atom_site_B_iso_or_equiv
  _atom_site_type_symbol
  Cu1      1.0000 0.00000  0.00000  0.50000  Biso   1.000  Cu
  Cu2      1.0000 0.50000  0.50000  0.50000  Biso   1.000  Cu
  Cu3      1.0000 0.00000  0.50000  0.00000  Biso   1.000  Cu
  H1       1.0000 0.32790  0.22760  0.63820  Biso   1.000  H
  H2       1.0000 0.08830  0.11820  0.74180  Biso   1.000  H
  H3       1.0000 0.91170  0.33170  0.69910  Biso   1.000  H
  H4       1.0000 0.90300  0.63910  0.62790  Biso   1.000  H
  H5       1.0000 0.85140  0.77890  0.61530  Biso   1.000  H
  H6       1.0000 0.21690  0.94490  0.38140  Biso   1.000  H
  H7       1.0000 0.28550  0.81100  0.39060  Biso   1.000  H
  H8       1.0000 0.96610  0.63820  0.13420  Biso   1.000  H
  H9       1.0000 0.83010  0.74180  0.14000  Biso   1.000  H
  H10      1.0000 0.61080  0.69910  0.96920  Biso   1.000  H
  H11      1.0000 0.53090  0.62790  0.73300  Biso   1.000  H
  H12      1.0000 0.46670  0.61530  0.60580  Biso   1.000  H
  H13      1.0000 0.59830  0.38140  0.67370  Biso   1.000  H
  H14      1.0000 0.67610  0.39060  0.79840  Biso   1.000  H
  H15      1.0000 0.10030  0.13420  0.22760  Biso   1.000  H
  H16      1.0000 0.97010  0.14000  0.11820  Biso   1.000  H
  H17      1.0000 0.58000  0.96920  0.33170  Biso   1.000  H
  H18      1.0000 0.26390  0.73300  0.63910  Biso   1.000  H
  H19      1.0000 0.07250  0.60580  0.77890  Biso   1.000  H
  H20      1.0000 0.27200  0.67370  0.94490  Biso   1.000  H
  H21      1.0000 0.47450  0.79840  0.81100  Biso   1.000  H
  H22      1.0000 0.67210  0.77240  0.36180  Biso   1.000  H
  H23      1.0000 0.91170  0.88180  0.25820  Biso   1.000  H
  H24      1.0000 0.08830  0.66830  0.30090  Biso   1.000  H
  H25      1.0000 0.09700  0.36090  0.37210  Biso   1.000  H
  H26      1.0000 0.14860  0.22110  0.38470  Biso   1.000  H
  H27      1.0000 0.78310  0.05510  0.61860  Biso   1.000  H
  H28      1.0000 0.71450  0.18900  0.60940  Biso   1.000  H
  H29      1.0000 0.03390  0.36180  0.86580  Biso   1.000  H
  H30      1.0000 0.16990  0.25820  0.86000  Biso   1.000  H
  H31      1.0000 0.38920  0.30090  0.03080  Biso   1.000  H
  H32      1.0000 0.46910  0.37210  0.26700  Biso   1.000  H
  H33      1.0000 0.53330  0.38470  0.39420  Biso   1.000  H
  H34      1.0000 0.40170  0.61860  0.32630  Biso   1.000  H
  H35      1.0000 0.32390  0.60940  0.20160  Biso   1.000  H
  H36      1.0000 0.89970  0.86580  0.77240  Biso   1.000  H
  H37      1.0000 0.02990  0.86000  0.88180  Biso   1.000  H
  H38      1.0000 0.42000  0.03080  0.66830  Biso   1.000  H
  H39      1.0000 0.73610  0.26700  0.36090  Biso   1.000  H
  H40      1.0000 0.92750  0.39420  0.22110  Biso   1.000  H
  H41      1.0000 0.72800  0.32630  0.05510  Biso   1.000  H
  H42      1.0000 0.52550  0.20160  0.18900  Biso   1.000  H
  C1       1.0000 0.24320  0.25070  0.65020  Biso   1.000  C
  C2       1.0000 0.09890  0.18500  0.71230  Biso   1.000  C
  C3       1.0000 0.99729  0.30908  0.68761  Biso   1.000  C
  C4       1.0000 0.14032  0.37538  0.62632  Biso   1.000  C
  C5       1.0000 0.16988  0.48209  0.57775  Biso   1.000  C
  C6       1.0000 0.15656  0.62316  0.52718  Biso   1.000  C
  C7       1.0000 0.10537  0.70980  0.51359  Biso   1.000  C
  C8       1.0000 0.97119  0.70071  0.57884  Biso   1.000  C
  C9       1.0000 0.94022  0.78523  0.56967  Biso   1.000  C
  C10      1.0000 0.15537  0.88268  0.43297  Biso   1.000  C
  C11      1.0000 0.19706  0.80276  0.43768  Biso   1.000  C
  C12      1.0000 0.89340  0.65020  0.09910  Biso   1.000  C
  C13      1.0000 0.81120  0.71230  0.10270  Biso   1.000  C
  C14      1.0000 0.68490  0.68761  0.00331  Biso   1.000  C
  C15      1.0000 0.76664  0.62632  0.99830  Biso   1.000  C
  C16      1.0000 0.74763  0.57775  0.94016  Biso   1.000  C
  C17      1.0000 0.68374  0.52718  0.84966  Biso   1.000  C
  C18      1.0000 0.61896  0.51359  0.77661  Biso   1.000  C
  C19      1.0000 0.55003  0.57884  0.72045  Biso   1.000  C
  C20      1.0000 0.50989  0.56967  0.64510  Biso   1.000  C
  C21      1.0000 0.58834  0.43297  0.68435  Biso   1.000  C
  C22      1.0000 0.63474  0.43768  0.75956  Biso   1.000  C
  C23      1.0000 0.99250  0.09910  0.25070  Biso   1.000  C
  C24      1.0000 0.91390  0.10270  0.18500  Biso   1.000  C
  C25      1.0000 0.68821  0.00331  0.30908  Biso   1.000  C
  C26      1.0000 0.76494  0.99830  0.37538  Biso   1.000  C
  C27      1.0000 0.68779  0.94016  0.48209  Biso   1.000  C
  C28      1.0000 0.53340  0.84966  0.62316  Biso   1.000  C
  C29      1.0000 0.39557  0.77661  0.70980  Biso   1.000  C
  C30      1.0000 0.27048  0.72045  0.70071  Biso   1.000  C
  C31      1.0000 0.15499  0.64510  0.78523  Biso   1.000  C
  C32      1.0000 0.27269  0.68435  0.88268  Biso   1.000  C
  C33      1.0000 0.39430  0.75956  0.80276  Biso   1.000  C
  C34      1.0000 0.75680  0.74930  0.34980  Biso   1.000  C
  C35      1.0000 0.90110  0.81500  0.28770  Biso   1.000  C
  C36      1.0000 0.00271  0.69092  0.31239  Biso   1.000  C
  C37      1.0000 0.85968  0.62462  0.37368  Biso   1.000  C
  C38      1.0000 0.83012  0.51791  0.42225  Biso   1.000  C
  C39      1.0000 0.84344  0.37684  0.47282  Biso   1.000  C
  C40      1.0000 0.89463  0.29020  0.48641  Biso   1.000  C
  C41      1.0000 0.02881  0.29929  0.42116  Biso   1.000  C
  C42      1.0000 0.05978  0.21477  0.43033  Biso   1.000  C
  C43      1.0000 0.84463  0.11732  0.56703  Biso   1.000  C
  C44      1.0000 0.80294  0.19724  0.56232  Biso   1.000  C
  C45      1.0000 0.10660  0.34980  0.90090  Biso   1.000  C
  C46      1.0000 0.18880  0.28770  0.89730  Biso   1.000  C
  C47      1.0000 0.31510  0.31239  0.99669  Biso   1.000  C
  C48      1.0000 0.23336  0.37368  0.00170  Biso   1.000  C
  C49      1.0000 0.25237  0.42225  0.05984  Biso   1.000  C
  C50      1.0000 0.31626  0.47282  0.15034  Biso   1.000  C
  C51      1.0000 0.38104  0.48641  0.22339  Biso   1.000  C
  C52      1.0000 0.44997  0.42116  0.27955  Biso   1.000  C
  C53      1.0000 0.49011  0.43033  0.35490  Biso   1.000  C
  C54      1.0000 0.41166  0.56703  0.31565  Biso   1.000  C
  C55      1.0000 0.36526  0.56232  0.24044  Biso   1.000  C
  C56      1.0000 0.00750  0.90090  0.74930  Biso   1.000  C
  C57      1.0000 0.08610  0.89730  0.81500  Biso   1.000  C
  C58      1.0000 0.31179  0.99669  0.69092  Biso   1.000  C
  C59      1.0000 0.23506  0.00170  0.62462  Biso   1.000  C
  C60      1.0000 0.31221  0.05984  0.51791  Biso   1.000  C
  C61      1.0000 0.46660  0.15034  0.37684  Biso   1.000  C
  C62      1.0000 0.60443  0.22339  0.29020  Biso   1.000  C
  C63      1.0000 0.72952  0.27955  0.29929  Biso   1.000  C
  C64      1.0000 0.84501  0.35490  0.21477  Biso   1.000  C
  C65      1.0000 0.72731  0.31565  0.11732  Biso   1.000  C
  C66      1.0000 0.60570  0.24044  0.19724  Biso   1.000  C
  N1       1.0000 0.26684  0.34686  0.60614  Biso   1.000  N
  N2       1.0000 0.97407  0.21194  0.73243  Biso   1.000  N
  N3       1.0000 0.31353  0.54224  0.51685  Biso   1.000  N
  N4       1.0000 0.30721  0.63630  0.48227  Biso   1.000  N
  N5       1.0000 0.06436  0.52894  0.58806  Biso   1.000  N
  N6       1.0000 0.03085  0.87519  0.49904  Biso   1.000  N
  N7       1.0000 0.87298  0.60614  0.04700  Biso   1.000  N
  N8       1.0000 0.70650  0.73243  0.05563  Biso   1.000  N
  N9       1.0000 0.83038  0.51685  0.94091  Biso   1.000  N
  N10      1.0000 0.78948  0.48227  0.88143  Biso   1.000  N
  N11      1.0000 0.65242  0.58806  0.88300  Biso   1.000  N
  N12      1.0000 0.52989  0.49904  0.62577  Biso   1.000  N
  N13      1.0000 0.91998  0.04700  0.34686  Biso   1.000  N
  N14      1.0000 0.76213  0.05563  0.21194  Biso   1.000  N
  N15      1.0000 0.77129  0.94091  0.54224  Biso   1.000  N
  N16      1.0000 0.67091  0.88143  0.63630  Biso   1.000  N
  N17      1.0000 0.53542  0.88300  0.52894  Biso   1.000  N
  N18      1.0000 0.15566  0.62577  0.87519  Biso   1.000  N
  N19      1.0000 0.73316  0.65314  0.39386  Biso   1.000  N
  N20      1.0000 0.02593  0.78806  0.26757  Biso   1.000  N
  N21      1.0000 0.68647  0.45776  0.48315  Biso   1.000  N
  N22      1.0000 0.69279  0.36370  0.51773  Biso   1.000  N
  N23      1.0000 0.93564  0.47106  0.41194  Biso   1.000  N
  N24      1.0000 0.96915  0.12481  0.50096  Biso   1.000  N
  N25      1.0000 0.12702  0.39386  0.95300  Biso   1.000  N
  N26      1.0000 0.29350  0.26757  0.94437  Biso   1.000  N
  N27      1.0000 0.16962  0.48315  0.05909  Biso   1.000  N
  N28      1.0000 0.21052  0.51773  0.11857  Biso   1.000  N
  N29      1.0000 0.34758  0.41194  0.11700  Biso   1.000  N
  N30      1.0000 0.47011  0.50096  0.37423  Biso   1.000  N
  N31      1.0000 0.08002  0.95300  0.65314  Biso   1.000  N
  N32      1.0000 0.23787  0.94437  0.78806  Biso   1.000  N
  N33      1.0000 0.22871  0.05909  0.45776  Biso   1.000  N
  N34      1.0000 0.32909  0.11857  0.36370  Biso   1.000  N
  N35      1.0000 0.46458  0.11700  0.47106  Biso   1.000  N
  N36      1.0000 0.84434  0.37423  0.12481  Biso   1.000  N
