data_image0
_cell_length_a       29.6337
_cell_length_b       29.6337
_cell_length_c       3.4913
_cell_angle_alpha    90
_cell_angle_beta     90
_cell_angle_gamma    90

_symmetry_space_group_name_H-M    "P 1"
_symmetry_int_tables_number       1

loop_
  _symmetry_equiv_pos_as_xyz
  'x, y, z'

loop_
  _atom_site_label
  _atom_site_occupancy
  _atom_site_fract_x
  _atom_site_fract_y
  _atom_site_fract_z
  _atom_site_thermal_displace_type
  _atom_site_B_iso_or_equiv
  _atom_site_type_symbol
  N1       1.0000 0.38199  0.27318  0.31190  Biso   1.000  N
  N2       1.0000 0.32940  0.33060  0.46900  Biso   1.000  N
  H1       1.0000 0.34810  0.35130  0.40200  Biso   1.000  H
  H2       1.0000 0.30310  0.33780  0.55300  Biso   1.000  H
  C1       1.0000 0.34173  0.28520  0.44050  Biso   1.000  C
  H3       1.0000 0.33260  0.31500  0.46790  Biso   1.000  H
  N3       1.0000 0.88199  0.77318  0.81190  Biso   1.000  N
  N4       1.0000 0.82940  0.83060  0.96900  Biso   1.000  N
  H4       1.0000 0.84810  0.85130  0.90200  Biso   1.000  H
  H5       1.0000 0.80310  0.83780  0.05300  Biso   1.000  H
  C2       1.0000 0.84173  0.78520  0.94050  Biso   1.000  C
  H6       1.0000 0.83260  0.81500  0.96790  Biso   1.000  H
  N5       1.0000 0.11801  0.72682  0.81190  Biso   1.000  N
  N6       1.0000 0.17060  0.66940  0.96900  Biso   1.000  N
  H7       1.0000 0.15190  0.64870  0.90200  Biso   1.000  H
  H8       1.0000 0.19690  0.66220  0.05300  Biso   1.000  H
  C3       1.0000 0.15827  0.71480  0.94050  Biso   1.000  C
  H9       1.0000 0.16740  0.68500  0.96790  Biso   1.000  H
  N7       1.0000 0.61801  0.22682  0.31190  Biso   1.000  N
  N8       1.0000 0.67060  0.16940  0.46900  Biso   1.000  N
  H10      1.0000 0.65190  0.14870  0.40200  Biso   1.000  H
  H11      1.0000 0.69690  0.16220  0.55300  Biso   1.000  H
  C4       1.0000 0.65827  0.21480  0.44050  Biso   1.000  C
  H12      1.0000 0.66740  0.18500  0.46790  Biso   1.000  H
  N9       1.0000 0.97682  0.13199  0.56190  Biso   1.000  N
  N10      1.0000 0.91940  0.07940  0.71900  Biso   1.000  N
  H13      1.0000 0.89870  0.09810  0.65200  Biso   1.000  H
  H14      1.0000 0.91220  0.05310  0.80300  Biso   1.000  H
  C5       1.0000 0.96480  0.09173  0.69050  Biso   1.000  C
  H15      1.0000 0.93500  0.08260  0.71790  Biso   1.000  H
  N11      1.0000 0.47682  0.63199  0.06190  Biso   1.000  N
  N12      1.0000 0.41940  0.57940  0.21900  Biso   1.000  N
  H16      1.0000 0.39870  0.59810  0.15200  Biso   1.000  H
  H17      1.0000 0.41220  0.55310  0.30300  Biso   1.000  H
  C6       1.0000 0.46480  0.59173  0.19050  Biso   1.000  C
  H18      1.0000 0.43500  0.58260  0.21790  Biso   1.000  H
  N13      1.0000 0.52318  0.86801  0.06190  Biso   1.000  N
  N14      1.0000 0.58060  0.92060  0.21900  Biso   1.000  N
  H19      1.0000 0.60130  0.90190  0.15200  Biso   1.000  H
  H20      1.0000 0.58780  0.94690  0.30300  Biso   1.000  H
  C7       1.0000 0.53520  0.90827  0.19050  Biso   1.000  C
  H21      1.0000 0.56500  0.91740  0.21790  Biso   1.000  H
  N15      1.0000 0.02318  0.36801  0.56190  Biso   1.000  N
  N16      1.0000 0.08060  0.42060  0.71900  Biso   1.000  N
  H22      1.0000 0.10130  0.40190  0.65200  Biso   1.000  H
  H23      1.0000 0.08780  0.44690  0.80300  Biso   1.000  H
  C8       1.0000 0.03520  0.40827  0.69050  Biso   1.000  C
  H24      1.0000 0.06500  0.41740  0.71790  Biso   1.000  H
  N17      1.0000 0.11801  0.27318  0.18810  Biso   1.000  N
  N18      1.0000 0.17060  0.33060  0.03100  Biso   1.000  N
  H25      1.0000 0.15190  0.35130  0.09800  Biso   1.000  H
  H26      1.0000 0.19690  0.33780  0.94700  Biso   1.000  H
  C9       1.0000 0.15827  0.28520  0.05950  Biso   1.000  C
  H27      1.0000 0.16740  0.31500  0.03210  Biso   1.000  H
  N19      1.0000 0.61801  0.77318  0.68810  Biso   1.000  N
  N20      1.0000 0.67060  0.83060  0.53100  Biso   1.000  N
  H28      1.0000 0.65190  0.85130  0.59800  Biso   1.000  H
  H29      1.0000 0.69690  0.83780  0.44700  Biso   1.000  H
  C10      1.0000 0.65827  0.78520  0.55950  Biso   1.000  C
  H30      1.0000 0.66740  0.81500  0.53210  Biso   1.000  H
  N21      1.0000 0.38199  0.72682  0.68810  Biso   1.000  N
  N22      1.0000 0.32940  0.66940  0.53100  Biso   1.000  N
  H31      1.0000 0.34810  0.64870  0.59800  Biso   1.000  H
  H32      1.0000 0.30310  0.66220  0.44700  Biso   1.000  H
  C11      1.0000 0.34173  0.71480  0.55950  Biso   1.000  C
  H33      1.0000 0.33260  0.68500  0.53210  Biso   1.000  H
  N23      1.0000 0.88199  0.22682  0.18810  Biso   1.000  N
  N24      1.0000 0.82940  0.16940  0.03100  Biso   1.000  N
  H34      1.0000 0.84810  0.14870  0.09800  Biso   1.000  H
  H35      1.0000 0.80310  0.16220  0.94700  Biso   1.000  H
  C12      1.0000 0.84173  0.21480  0.05950  Biso   1.000  C
  H36      1.0000 0.83260  0.18500  0.03210  Biso   1.000  H
  N25      1.0000 0.52318  0.13199  0.93810  Biso   1.000  N
  N26      1.0000 0.58060  0.07940  0.78100  Biso   1.000  N
  H37      1.0000 0.60130  0.09810  0.84800  Biso   1.000  H
  H38      1.0000 0.58780  0.05310  0.69700  Biso   1.000  H
  C13      1.0000 0.53520  0.09173  0.80950  Biso   1.000  C
  H39      1.0000 0.56500  0.08260  0.78210  Biso   1.000  H
  N27      1.0000 0.02318  0.63199  0.43810  Biso   1.000  N
  N28      1.0000 0.08060  0.57940  0.28100  Biso   1.000  N
  H40      1.0000 0.10130  0.59810  0.34800  Biso   1.000  H
  H41      1.0000 0.08780  0.55310  0.19700  Biso   1.000  H
  C14      1.0000 0.03520  0.59173  0.30950  Biso   1.000  C
  H42      1.0000 0.06500  0.58260  0.28210  Biso   1.000  H
  N29      1.0000 0.97682  0.86801  0.43810  Biso   1.000  N
  N30      1.0000 0.91940  0.92060  0.28100  Biso   1.000  N
  H43      1.0000 0.89870  0.90190  0.34800  Biso   1.000  H
  H44      1.0000 0.91220  0.94690  0.19700  Biso   1.000  H
  C15      1.0000 0.96480  0.90827  0.30950  Biso   1.000  C
  H45      1.0000 0.93500  0.91740  0.28210  Biso   1.000  H
  N31      1.0000 0.47682  0.36801  0.93810  Biso   1.000  N
  N32      1.0000 0.41940  0.42060  0.78100  Biso   1.000  N
  H46      1.0000 0.39870  0.40190  0.84800  Biso   1.000  H
  H47      1.0000 0.41220  0.44690  0.69700  Biso   1.000  H
  C16      1.0000 0.46480  0.40827  0.80950  Biso   1.000  C
  H48      1.0000 0.43500  0.41740  0.78210  Biso   1.000  H
  N33      1.0000 0.61801  0.72682  0.68810  Biso   1.000  N
  N34      1.0000 0.67060  0.66940  0.53100  Biso   1.000  N
  H49      1.0000 0.65190  0.64870  0.59800  Biso   1.000  H
  H50      1.0000 0.69690  0.66220  0.44700  Biso   1.000  H
  C17      1.0000 0.65827  0.71480  0.55950  Biso   1.000  C
  H51      1.0000 0.66740  0.68500  0.53210  Biso   1.000  H
  N35      1.0000 0.11801  0.22682  0.18810  Biso   1.000  N
  N36      1.0000 0.17060  0.16940  0.03100  Biso   1.000  N
  H52      1.0000 0.15190  0.14870  0.09800  Biso   1.000  H
  H53      1.0000 0.19690  0.16220  0.94700  Biso   1.000  H
  C18      1.0000 0.15827  0.21480  0.05950  Biso   1.000  C
  H54      1.0000 0.16740  0.18500  0.03210  Biso   1.000  H
  N37      1.0000 0.88199  0.27318  0.18810  Biso   1.000  N
  N38      1.0000 0.82940  0.33060  0.03100  Biso   1.000  N
  H55      1.0000 0.84810  0.35130  0.09800  Biso   1.000  H
  H56      1.0000 0.80310  0.33780  0.94700  Biso   1.000  H
  C19      1.0000 0.84173  0.28520  0.05950  Biso   1.000  C
  H57      1.0000 0.83260  0.31500  0.03210  Biso   1.000  H
  N39      1.0000 0.38199  0.77318  0.68810  Biso   1.000  N
  N40      1.0000 0.32940  0.83060  0.53100  Biso   1.000  N
  H58      1.0000 0.34810  0.85130  0.59800  Biso   1.000  H
  H59      1.0000 0.30310  0.83780  0.44700  Biso   1.000  H
  C20      1.0000 0.34173  0.78520  0.55950  Biso   1.000  C
  H60      1.0000 0.33260  0.81500  0.53210  Biso   1.000  H
  N41      1.0000 0.02318  0.86801  0.43810  Biso   1.000  N
  N42      1.0000 0.08060  0.92060  0.28100  Biso   1.000  N
  H61      1.0000 0.10130  0.90190  0.34800  Biso   1.000  H
  H62      1.0000 0.08780  0.94690  0.19700  Biso   1.000  H
  C21      1.0000 0.03520  0.90827  0.30950  Biso   1.000  C
  H63      1.0000 0.06500  0.91740  0.28210  Biso   1.000  H
  N43      1.0000 0.52318  0.36801  0.93810  Biso   1.000  N
  N44      1.0000 0.58060  0.42060  0.78100  Biso   1.000  N
  H64      1.0000 0.60130  0.40190  0.84800  Biso   1.000  H
  H65      1.0000 0.58780  0.44690  0.69700  Biso   1.000  H
  C22      1.0000 0.53520  0.40827  0.80950  Biso   1.000  C
  H66      1.0000 0.56500  0.41740  0.78210  Biso   1.000  H
  N45      1.0000 0.47682  0.13199  0.93810  Biso   1.000  N
  N46      1.0000 0.41940  0.07940  0.78100  Biso   1.000  N
  H67      1.0000 0.39870  0.09810  0.84800  Biso   1.000  H
  H68      1.0000 0.41220  0.05310  0.69700  Biso   1.000  H
  C23      1.0000 0.46480  0.09173  0.80950  Biso   1.000  C
  H69      1.0000 0.43500  0.08260  0.78210  Biso   1.000  H
  N47      1.0000 0.97682  0.63199  0.43810  Biso   1.000  N
  N48      1.0000 0.91940  0.57940  0.28100  Biso   1.000  N
  H70      1.0000 0.89870  0.59810  0.34800  Biso   1.000  H
  H71      1.0000 0.91220  0.55310  0.19700  Biso   1.000  H
  C24      1.0000 0.96480  0.59173  0.30950  Biso   1.000  C
  H72      1.0000 0.93500  0.58260  0.28210  Biso   1.000  H
  N49      1.0000 0.88199  0.72682  0.81190  Biso   1.000  N
  N50      1.0000 0.82940  0.66940  0.96900  Biso   1.000  N
  H73      1.0000 0.84810  0.64870  0.90200  Biso   1.000  H
  H74      1.0000 0.80310  0.66220  0.05300  Biso   1.000  H
  C25      1.0000 0.84173  0.71480  0.94050  Biso   1.000  C
  H75      1.0000 0.83260  0.68500  0.96790  Biso   1.000  H
  N51      1.0000 0.38199  0.22682  0.31190  Biso   1.000  N
  N52      1.0000 0.32940  0.16940  0.46900  Biso   1.000  N
  H76      1.0000 0.34810  0.14870  0.40200  Biso   1.000  H
  H77      1.0000 0.30310  0.16220  0.55300  Biso   1.000  H
  C26      1.0000 0.34173  0.21480  0.44050  Biso   1.000  C
  H78      1.0000 0.33260  0.18500  0.46790  Biso   1.000  H
  N53      1.0000 0.61801  0.27318  0.31190  Biso   1.000  N
  N54      1.0000 0.67060  0.33060  0.46900  Biso   1.000  N
  H79      1.0000 0.65190  0.35130  0.40200  Biso   1.000  H
  H80      1.0000 0.69690  0.33780  0.55300  Biso   1.000  H
  C27      1.0000 0.65827  0.28520  0.44050  Biso   1.000  C
  H81      1.0000 0.66740  0.31500  0.46790  Biso   1.000  H
  N55      1.0000 0.11801  0.77318  0.81190  Biso   1.000  N
  N56      1.0000 0.17060  0.83060  0.96900  Biso   1.000  N
  H82      1.0000 0.15190  0.85130  0.90200  Biso   1.000  H
  H83      1.0000 0.19690  0.83780  0.05300  Biso   1.000  H
  C28      1.0000 0.15827  0.78520  0.94050  Biso   1.000  C
  H84      1.0000 0.16740  0.81500  0.96790  Biso   1.000  H
  N57      1.0000 0.47682  0.86801  0.06190  Biso   1.000  N
  N58      1.0000 0.41940  0.92060  0.21900  Biso   1.000  N
  H85      1.0000 0.39870  0.90190  0.15200  Biso   1.000  H
  H86      1.0000 0.41220  0.94690  0.30300  Biso   1.000  H
  C29      1.0000 0.46480  0.90827  0.19050  Biso   1.000  C
  H87      1.0000 0.43500  0.91740  0.21790  Biso   1.000  H
  N59      1.0000 0.97682  0.36801  0.56190  Biso   1.000  N
  N60      1.0000 0.91940  0.42060  0.71900  Biso   1.000  N
  H88      1.0000 0.89870  0.40190  0.65200  Biso   1.000  H
  H89      1.0000 0.91220  0.44690  0.80300  Biso   1.000  H
  C30      1.0000 0.96480  0.40827  0.69050  Biso   1.000  C
  H90      1.0000 0.93500  0.41740  0.71790  Biso   1.000  H
  N61      1.0000 0.02318  0.13199  0.56190  Biso   1.000  N
  N62      1.0000 0.08060  0.07940  0.71900  Biso   1.000  N
  H91      1.0000 0.10130  0.09810  0.65200  Biso   1.000  H
  H92      1.0000 0.08780  0.05310  0.80300  Biso   1.000  H
  C31      1.0000 0.03520  0.09173  0.69050  Biso   1.000  C
  H93      1.0000 0.06500  0.08260  0.71790  Biso   1.000  H
  N63      1.0000 0.52318  0.63199  0.06190  Biso   1.000  N
  N64      1.0000 0.58060  0.57940  0.21900  Biso   1.000  N
  H94      1.0000 0.60130  0.59810  0.15200  Biso   1.000  H
  H95      1.0000 0.58780  0.55310  0.30300  Biso   1.000  H
  C32      1.0000 0.53520  0.59173  0.19050  Biso   1.000  C
  H96      1.0000 0.56500  0.58260  0.21790  Biso   1.000  H
  Ag1      1.0000 0.43868  0.31132  0.12500  Biso   1.000  Ag
  Ag2      1.0000 0.06132  0.68868  0.62500  Biso   1.000  Ag
  Ag3      1.0000 0.93868  0.18868  0.37500  Biso   1.000  Ag
  Ag4      1.0000 0.56132  0.81132  0.87500  Biso   1.000  Ag
  Ag5      1.0000 0.06132  0.31132  0.37500  Biso   1.000  Ag
  Ag6      1.0000 0.43868  0.68868  0.87500  Biso   1.000  Ag
  Ag7      1.0000 0.56132  0.18868  0.12500  Biso   1.000  Ag
  Ag8      1.0000 0.93868  0.81132  0.62500  Biso   1.000  Ag
  Ag9      1.0000 0.56132  0.68868  0.87500  Biso   1.000  Ag
  Ag10     1.0000 0.93868  0.31132  0.37500  Biso   1.000  Ag
  Ag11     1.0000 0.06132  0.81132  0.62500  Biso   1.000  Ag
  Ag12     1.0000 0.43868  0.18868  0.12500  Biso   1.000  Ag
  Ag13     1.0000 0.93868  0.68868  0.62500  Biso   1.000  Ag
  Ag14     1.0000 0.56132  0.31132  0.12500  Biso   1.000  Ag
  Ag15     1.0000 0.43868  0.81132  0.87500  Biso   1.000  Ag
  Ag16     1.0000 0.06132  0.18868  0.37500  Biso   1.000  Ag
  Ag17     1.0000 0.25000  0.25000  0.75000  Biso   1.000  Ag
  Ag18     1.0000 0.25000  0.75000  0.25000  Biso   1.000  Ag
  Ag19     1.0000 0.00000  0.00000  0.00000  Biso   1.000  Ag
  Ag20     1.0000 0.50000  0.50000  0.50000  Biso   1.000  Ag
  Ag21     1.0000 0.50000  0.00000  0.50000  Biso   1.000  Ag
  Ag22     1.0000 0.00000  0.50000  0.00000  Biso   1.000  Ag
  Ag23     1.0000 0.75000  0.25000  0.75000  Biso   1.000  Ag
  Ag24     1.0000 0.75000  0.75000  0.25000  Biso   1.000  Ag
  N65      1.0000 0.31578  0.25000  0.52620  Biso   1.000  N
  N66      1.0000 0.18422  0.75000  0.02620  Biso   1.000  N
  N67      1.0000 0.00000  0.06578  0.77620  Biso   1.000  N
  N68      1.0000 0.50000  0.56578  0.27620  Biso   1.000  N
  N69      1.0000 0.50000  0.93422  0.27620  Biso   1.000  N
  N70      1.0000 0.00000  0.43422  0.77620  Biso   1.000  N
  N71      1.0000 0.18422  0.25000  0.97380  Biso   1.000  N
  N72      1.0000 0.31578  0.75000  0.47380  Biso   1.000  N
  N73      1.0000 0.81578  0.25000  0.97380  Biso   1.000  N
  N74      1.0000 0.50000  0.06578  0.72380  Biso   1.000  N
  N75      1.0000 0.00000  0.56578  0.22380  Biso   1.000  N
  N76      1.0000 0.00000  0.93422  0.22380  Biso   1.000  N
  N77      1.0000 0.50000  0.43422  0.72380  Biso   1.000  N
  N78      1.0000 0.68422  0.75000  0.47380  Biso   1.000  N
  N79      1.0000 0.81578  0.75000  0.02620  Biso   1.000  N
  N80      1.0000 0.68422  0.25000  0.52620  Biso   1.000  N
