data_image0
_cell_length_a       10.5751
_cell_length_b       10.5751
_cell_length_c       14.8013
_cell_angle_alpha    90.607
_cell_angle_beta     90.607
_cell_angle_gamma    105.773

_symmetry_space_group_name_H-M    P 1
_symmetry_int_tables_number       1

loop_
  _symmetry_equiv_pos_as_xyz
  'x, y, z'

loop_
  _atom_site_label
  _atom_site_occupancy
  _atom_site_fract_x
  _atom_site_fract_y
  _atom_site_fract_z
  _atom_site_thermal_displace_type
  _atom_site_B_iso_or_equiv
  _atom_site_type_symbol
  Eu1      1.0000 0.57287  0.67571  0.55728  Biso   1.000  Eu
  Eu2      1.0000 0.82429  0.92713  0.94272  Biso   1.000  Eu
  Eu3      1.0000 0.42713  0.32429  0.44272  Biso   1.000  Eu
  Eu4      1.0000 0.17571  0.07287  0.05728  Biso   1.000  Eu
  H1       1.0000 0.32650  0.96050  0.34010  Biso   1.000  H
  H2       1.0000 0.19900  0.84380  0.33130  Biso   1.000  H
  H3       1.0000 0.32280  0.61280  0.24850  Biso   1.000  H
  H4       1.0000 0.20670  0.64090  0.30230  Biso   1.000  H
  H5       1.0000 0.78590  0.55810  0.28700  Biso   1.000  H
  H6       1.0000 0.64250  0.55390  0.25600  Biso   1.000  H
  H7       1.0000 0.53950  0.17350  0.15990  Biso   1.000  H
  H8       1.0000 0.65620  0.30100  0.16870  Biso   1.000  H
  H9       1.0000 0.88720  0.17720  0.25150  Biso   1.000  H
  H10      1.0000 0.85910  0.29330  0.19770  Biso   1.000  H
  H11      1.0000 0.94190  0.71410  0.21300  Biso   1.000  H
  H12      1.0000 0.94610  0.85750  0.24400  Biso   1.000  H
  H13      1.0000 0.67350  0.03950  0.65990  Biso   1.000  H
  H14      1.0000 0.80100  0.15620  0.66870  Biso   1.000  H
  H15      1.0000 0.67720  0.38720  0.75150  Biso   1.000  H
  H16      1.0000 0.79330  0.35910  0.69770  Biso   1.000  H
  H17      1.0000 0.21410  0.44190  0.71300  Biso   1.000  H
  H18      1.0000 0.35750  0.44610  0.74400  Biso   1.000  H
  H19      1.0000 0.46050  0.82650  0.84010  Biso   1.000  H
  H20      1.0000 0.34380  0.69900  0.83130  Biso   1.000  H
  H21      1.0000 0.11280  0.82280  0.74850  Biso   1.000  H
  H22      1.0000 0.14090  0.70670  0.80230  Biso   1.000  H
  H23      1.0000 0.05810  0.28590  0.78700  Biso   1.000  H
  H24      1.0000 0.05390  0.14250  0.75600  Biso   1.000  H
  C1       1.0000 0.48620  0.84440  0.26910  Biso   1.000  C
  C2       1.0000 0.27920  0.88860  0.30090  Biso   1.000  C
  C3       1.0000 0.24270  0.94590  0.21380  Biso   1.000  C
  C4       1.0000 0.30150  0.65830  0.30100  Biso   1.000  C
  C5       1.0000 0.34630  0.59990  0.38560  Biso   1.000  C
  C6       1.0000 0.71850  0.60450  0.29030  Biso   1.000  C
  C7       1.0000 0.68050  0.61450  0.38870  Biso   1.000  C
  C8       1.0000 0.65560  0.01380  0.23090  Biso   1.000  C
  C9       1.0000 0.61140  0.22080  0.19910  Biso   1.000  C
  C10      1.0000 0.55410  0.25730  0.28620  Biso   1.000  C
  C11      1.0000 0.84170  0.19850  0.19900  Biso   1.000  C
  C12      1.0000 0.90010  0.15370  0.11440  Biso   1.000  C
  C13      1.0000 0.89550  0.78150  0.20970  Biso   1.000  C
  C14      1.0000 0.88550  0.81950  0.11130  Biso   1.000  C
  C15      1.0000 0.51380  0.15560  0.73090  Biso   1.000  C
  C16      1.0000 0.72080  0.11140  0.69910  Biso   1.000  C
  C17      1.0000 0.75730  0.05410  0.78620  Biso   1.000  C
  C18      1.0000 0.69850  0.34170  0.69900  Biso   1.000  C
  C19      1.0000 0.65370  0.40010  0.61440  Biso   1.000  C
  C20      1.0000 0.28150  0.39550  0.70970  Biso   1.000  C
  C21      1.0000 0.31950  0.38550  0.61130  Biso   1.000  C
  C22      1.0000 0.34440  0.98620  0.76910  Biso   1.000  C
  C23      1.0000 0.38860  0.77920  0.80090  Biso   1.000  C
  C24      1.0000 0.44590  0.74270  0.71380  Biso   1.000  C
  C25      1.0000 0.15830  0.80150  0.80100  Biso   1.000  C
  C26      1.0000 0.09990  0.84630  0.88560  Biso   1.000  C
  C27      1.0000 0.10450  0.21850  0.79030  Biso   1.000  C
  C28      1.0000 0.11450  0.18050  0.88870  Biso   1.000  C
  C29      1.0000 0.68570  0.81430  0.25000  Biso   1.000  C
  C30      1.0000 0.31430  0.18570  0.75000  Biso   1.000  C
  N1       1.0000 0.55880  0.75960  0.26920  Biso   1.000  N
  N2       1.0000 0.35800  0.79840  0.28970  Biso   1.000  N
  N3       1.0000 0.74040  0.94120  0.23080  Biso   1.000  N
  N4       1.0000 0.70160  0.14200  0.21030  Biso   1.000  N
  N5       1.0000 0.44120  0.24040  0.73080  Biso   1.000  N
  N6       1.0000 0.64200  0.20160  0.71030  Biso   1.000  N
  N7       1.0000 0.25960  0.05880  0.76920  Biso   1.000  N
  N8       1.0000 0.29840  0.85800  0.78970  Biso   1.000  N
  N9       1.0000 0.52790  0.97210  0.25000  Biso   1.000  N
  N10      1.0000 0.76710  0.73290  0.25000  Biso   1.000  N
  N11      1.0000 0.47210  0.02790  0.75000  Biso   1.000  N
  N12      1.0000 0.23290  0.26710  0.75000  Biso   1.000  N
  O1       1.0000 0.20500  0.05080  0.21990  Biso   1.000  O
  O2       1.0000 0.25050  0.89450  0.13770  Biso   1.000  O
  O3       1.0000 0.31730  0.47550  0.38470  Biso   1.000  O
  O4       1.0000 0.40700  0.67640  0.44580  Biso   1.000  O
  O5       1.0000 0.59010  0.52290  0.42100  Biso   1.000  O
  O6       1.0000 0.73780  0.71340  0.43530  Biso   1.000  O
  O7       1.0000 0.58320  0.90020  0.50280  Biso   1.000  O
  O8       1.0000 0.77760  0.82040  0.61950  Biso   1.000  O
  O9       1.0000 0.44920  0.29500  0.28010  Biso   1.000  O
  O10      1.0000 0.60550  0.24950  0.36230  Biso   1.000  O
  O11      1.0000 0.02450  0.18270  0.11530  Biso   1.000  O
  O12      1.0000 0.82360  0.09300  0.05420  Biso   1.000  O
  O13      1.0000 0.97710  0.90990  0.07900  Biso   1.000  O
  O14      1.0000 0.78660  0.76220  0.06470  Biso   1.000  O
  O15      1.0000 0.59980  0.91680  0.99720  Biso   1.000  O
  O16      1.0000 0.67960  0.72240  0.88050  Biso   1.000  O
  O17      1.0000 0.79500  0.94920  0.78010  Biso   1.000  O
  O18      1.0000 0.74950  0.10550  0.86230  Biso   1.000  O
  O19      1.0000 0.68270  0.52450  0.61530  Biso   1.000  O
  O20      1.0000 0.59300  0.32360  0.55420  Biso   1.000  O
  O21      1.0000 0.40990  0.47710  0.57900  Biso   1.000  O
  O22      1.0000 0.26220  0.28660  0.56470  Biso   1.000  O
  O23      1.0000 0.41680  0.09980  0.49720  Biso   1.000  O
  O24      1.0000 0.22240  0.17960  0.38050  Biso   1.000  O
  O25      1.0000 0.55080  0.70500  0.71990  Biso   1.000  O
  O26      1.0000 0.39450  0.75050  0.63770  Biso   1.000  O
  O27      1.0000 0.97550  0.81730  0.88470  Biso   1.000  O
  O28      1.0000 0.17640  0.90700  0.94580  Biso   1.000  O
  O29      1.0000 0.02290  0.09010  0.92100  Biso   1.000  O
  O30      1.0000 0.21340  0.23780  0.93530  Biso   1.000  O
  O31      1.0000 0.40020  0.08320  0.00280  Biso   1.000  O
  O32      1.0000 0.32040  0.27760  0.11950  Biso   1.000  O
