data_image0
_cell_length_a       10.5484
_cell_length_b       10.5484
_cell_length_c       14.7243
_cell_angle_alpha    90.5704
_cell_angle_beta     90.5704
_cell_angle_gamma    105.635

_symmetry_space_group_name_H-M    P 1
_symmetry_int_tables_number       1

loop_
  _symmetry_equiv_pos_as_xyz
  'x, y, z'

loop_
  _atom_site_label
  _atom_site_occupancy
  _atom_site_fract_x
  _atom_site_fract_y
  _atom_site_fract_z
  _atom_site_thermal_displace_type
  _atom_site_B_iso_or_equiv
  _atom_site_type_symbol
  Tb1      1.0000 0.57250  0.67472  0.55754  Biso   1.000  Tb
  Tb2      1.0000 0.82528  0.92750  0.94246  Biso   1.000  Tb
  Tb3      1.0000 0.42750  0.32528  0.44246  Biso   1.000  Tb
  Tb4      1.0000 0.17472  0.07250  0.05754  Biso   1.000  Tb
  H1       1.0000 0.78900  0.55980  0.28730  Biso   1.000  H
  H2       1.0000 0.64520  0.55260  0.25470  Biso   1.000  H
  H3       1.0000 0.32100  0.61360  0.24790  Biso   1.000  H
  H4       1.0000 0.20540  0.64120  0.30360  Biso   1.000  H
  H5       1.0000 0.32420  0.96200  0.34120  Biso   1.000  H
  H6       1.0000 0.19630  0.84550  0.33140  Biso   1.000  H
  H7       1.0000 0.94020  0.71100  0.21270  Biso   1.000  H
  H8       1.0000 0.94740  0.85480  0.24530  Biso   1.000  H
  H9       1.0000 0.88640  0.17900  0.25210  Biso   1.000  H
  H10      1.0000 0.85880  0.29460  0.19640  Biso   1.000  H
  H11      1.0000 0.53800  0.17580  0.15880  Biso   1.000  H
  H12      1.0000 0.65450  0.30370  0.16860  Biso   1.000  H
  H13      1.0000 0.21100  0.44020  0.71270  Biso   1.000  H
  H14      1.0000 0.35480  0.44740  0.74530  Biso   1.000  H
  H15      1.0000 0.67900  0.38640  0.75210  Biso   1.000  H
  H16      1.0000 0.79460  0.35880  0.69640  Biso   1.000  H
  H17      1.0000 0.67580  0.03800  0.65880  Biso   1.000  H
  H18      1.0000 0.80370  0.15450  0.66860  Biso   1.000  H
  H19      1.0000 0.05980  0.28900  0.78730  Biso   1.000  H
  H20      1.0000 0.05260  0.14520  0.75470  Biso   1.000  H
  H21      1.0000 0.11360  0.82100  0.74790  Biso   1.000  H
  H22      1.0000 0.14120  0.70540  0.80360  Biso   1.000  H
  H23      1.0000 0.46200  0.82420  0.84120  Biso   1.000  H
  H24      1.0000 0.34550  0.69630  0.83140  Biso   1.000  H
  C1       1.0000 0.48580  0.84560  0.26920  Biso   1.000  C
  C2       1.0000 0.71990  0.60450  0.28960  Biso   1.000  C
  C3       1.0000 0.67940  0.61520  0.38840  Biso   1.000  C
  C4       1.0000 0.30030  0.65850  0.30130  Biso   1.000  C
  C5       1.0000 0.34710  0.59970  0.38510  Biso   1.000  C
  C6       1.0000 0.27750  0.89030  0.30160  Biso   1.000  C
  C7       1.0000 0.24320  0.94720  0.21400  Biso   1.000  C
  C8       1.0000 0.65440  0.01420  0.23080  Biso   1.000  C
  C9       1.0000 0.89550  0.78010  0.21040  Biso   1.000  C
  C10      1.0000 0.88480  0.82060  0.11160  Biso   1.000  C
  C11      1.0000 0.84150  0.19970  0.19870  Biso   1.000  C
  C12      1.0000 0.90030  0.15290  0.11490  Biso   1.000  C
  C13      1.0000 0.60970  0.22250  0.19840  Biso   1.000  C
  C14      1.0000 0.55280  0.25680  0.28600  Biso   1.000  C
  C15      1.0000 0.51420  0.15440  0.73080  Biso   1.000  C
  C16      1.0000 0.28010  0.39550  0.71040  Biso   1.000  C
  C17      1.0000 0.32060  0.38480  0.61160  Biso   1.000  C
  C18      1.0000 0.69970  0.34150  0.69870  Biso   1.000  C
  C19      1.0000 0.65290  0.40030  0.61490  Biso   1.000  C
  C20      1.0000 0.72250  0.10970  0.69840  Biso   1.000  C
  C21      1.0000 0.75680  0.05280  0.78600  Biso   1.000  C
  C22      1.0000 0.34560  0.98580  0.76920  Biso   1.000  C
  C23      1.0000 0.10450  0.21990  0.78960  Biso   1.000  C
  C24      1.0000 0.11520  0.17940  0.88840  Biso   1.000  C
  C25      1.0000 0.15850  0.80030  0.80130  Biso   1.000  C
  C26      1.0000 0.09970  0.84710  0.88510  Biso   1.000  C
  C27      1.0000 0.39030  0.77750  0.80160  Biso   1.000  C
  C28      1.0000 0.44720  0.74320  0.71400  Biso   1.000  C
  C29      1.0000 0.68560  0.81440  0.25000  Biso   1.000  C
  C30      1.0000 0.31440  0.18560  0.75000  Biso   1.000  C
  N1       1.0000 0.55898  0.75982  0.26900  Biso   1.000  N
  N2       1.0000 0.35695  0.79885  0.29100  Biso   1.000  N
  N3       1.0000 0.74018  0.94102  0.23100  Biso   1.000  N
  N4       1.0000 0.70115  0.14305  0.20900  Biso   1.000  N
  N5       1.0000 0.44102  0.24018  0.73100  Biso   1.000  N
  N6       1.0000 0.64305  0.20115  0.70900  Biso   1.000  N
  N7       1.0000 0.25982  0.05898  0.76900  Biso   1.000  N
  N8       1.0000 0.29885  0.85695  0.79100  Biso   1.000  N
  N9       1.0000 0.52650  0.97350  0.25000  Biso   1.000  N
  N10      1.0000 0.76640  0.73360  0.25000  Biso   1.000  N
  N11      1.0000 0.47350  0.02650  0.75000  Biso   1.000  N
  N12      1.0000 0.23360  0.26640  0.75000  Biso   1.000  N
  O1       1.0000 0.73528  0.71284  0.43596  Biso   1.000  O
  O2       1.0000 0.58932  0.52348  0.42060  Biso   1.000  O
  O3       1.0000 0.40822  0.67546  0.44634  Biso   1.000  O
  O4       1.0000 0.31816  0.47550  0.38543  Biso   1.000  O
  O5       1.0000 0.20355  0.05093  0.21984  Biso   1.000  O
  O6       1.0000 0.24864  0.89554  0.13819  Biso   1.000  O
  O7       1.0000 0.58245  0.89735  0.50530  Biso   1.000  O
  O8       1.0000 0.77446  0.81594  0.61950  Biso   1.000  O
  O9       1.0000 0.78716  0.76472  0.06404  Biso   1.000  O
  O10      1.0000 0.97652  0.91068  0.07940  Biso   1.000  O
  O11      1.0000 0.82454  0.09178  0.05366  Biso   1.000  O
  O12      1.0000 0.02450  0.18184  0.11457  Biso   1.000  O
  O13      1.0000 0.44907  0.29645  0.28016  Biso   1.000  O
  O14      1.0000 0.60446  0.25136  0.36181  Biso   1.000  O
  O15      1.0000 0.60265  0.91755  0.99470  Biso   1.000  O
  O16      1.0000 0.68406  0.72554  0.88050  Biso   1.000  O
  O17      1.0000 0.26472  0.28716  0.56404  Biso   1.000  O
  O18      1.0000 0.41068  0.47652  0.57940  Biso   1.000  O
  O19      1.0000 0.59178  0.32454  0.55366  Biso   1.000  O
  O20      1.0000 0.68184  0.52450  0.61457  Biso   1.000  O
  O21      1.0000 0.79645  0.94907  0.78016  Biso   1.000  O
  O22      1.0000 0.75136  0.10446  0.86181  Biso   1.000  O
  O23      1.0000 0.41755  0.10265  0.49470  Biso   1.000  O
  O24      1.0000 0.22554  0.18406  0.38050  Biso   1.000  O
  O25      1.0000 0.21284  0.23528  0.93596  Biso   1.000  O
  O26      1.0000 0.02348  0.08932  0.92060  Biso   1.000  O
  O27      1.0000 0.17546  0.90822  0.94634  Biso   1.000  O
  O28      1.0000 0.97550  0.81816  0.88543  Biso   1.000  O
  O29      1.0000 0.55093  0.70355  0.71984  Biso   1.000  O
  O30      1.0000 0.39554  0.74864  0.63819  Biso   1.000  O
  O31      1.0000 0.39735  0.08245  0.00530  Biso   1.000  O
  O32      1.0000 0.31594  0.27446  0.11950  Biso   1.000  O
