data_image0
_cell_length_a       10.5621
_cell_length_b       10.5621
_cell_length_c       14.802
_cell_angle_alpha    90.5968
_cell_angle_beta     90.5968
_cell_angle_gamma    105.761

_symmetry_space_group_name_H-M    P 1
_symmetry_int_tables_number       1

loop_
  _symmetry_equiv_pos_as_xyz
  'x, y, z'

loop_
  _atom_site_label
  _atom_site_occupancy
  _atom_site_fract_x
  _atom_site_fract_y
  _atom_site_fract_z
  _atom_site_thermal_displace_type
  _atom_site_B_iso_or_equiv
  _atom_site_type_symbol
  Dy1      1.0000 0.82357  0.42673  0.44291  Biso   1.000  Dy
  Dy2      1.0000 0.57327  0.17643  0.05709  Biso   1.000  Dy
  Dy3      1.0000 0.17643  0.57327  0.55709  Biso   1.000  Dy
  Dy4      1.0000 0.42673  0.82357  0.94291  Biso   1.000  Dy
  H1       1.0000 0.94700  0.35340  0.74560  Biso   1.000  H
  H2       1.0000 0.93900  0.20920  0.71360  Biso   1.000  H
  H3       1.0000 0.86110  0.79330  0.69990  Biso   1.000  H
  H4       1.0000 0.88770  0.67530  0.75280  Biso   1.000  H
  H5       1.0000 0.65640  0.80200  0.67010  Biso   1.000  H
  H6       1.0000 0.53990  0.67410  0.65990  Biso   1.000  H
  H7       1.0000 0.64660  0.05300  0.75440  Biso   1.000  H
  H8       1.0000 0.79080  0.06100  0.78640  Biso   1.000  H
  H9       1.0000 0.20670  0.13890  0.80010  Biso   1.000  H
  H10      1.0000 0.32470  0.11230  0.74720  Biso   1.000  H
  H11      1.0000 0.19800  0.34360  0.82990  Biso   1.000  H
  H12      1.0000 0.32590  0.46010  0.84010  Biso   1.000  H
  H13      1.0000 0.05300  0.64660  0.25440  Biso   1.000  H
  H14      1.0000 0.06100  0.79080  0.28640  Biso   1.000  H
  H15      1.0000 0.13890  0.20670  0.30010  Biso   1.000  H
  H16      1.0000 0.11230  0.32470  0.24720  Biso   1.000  H
  H17      1.0000 0.34360  0.19800  0.32990  Biso   1.000  H
  H18      1.0000 0.46010  0.32590  0.34010  Biso   1.000  H
  H19      1.0000 0.35340  0.94700  0.24560  Biso   1.000  H
  H20      1.0000 0.20920  0.93900  0.21360  Biso   1.000  H
  H21      1.0000 0.79330  0.86110  0.19990  Biso   1.000  H
  H22      1.0000 0.67530  0.88770  0.25280  Biso   1.000  H
  H23      1.0000 0.80200  0.65640  0.17010  Biso   1.000  H
  H24      1.0000 0.67410  0.53990  0.15990  Biso   1.000  H
  C1       1.0000 0.65500  0.51360  0.73150  Biso   1.000  C
  C2       1.0000 0.89480  0.27840  0.71110  Biso   1.000  C
  C3       1.0000 0.88270  0.31850  0.61140  Biso   1.000  C
  C4       1.0000 0.84280  0.69820  0.70060  Biso   1.000  C
  C5       1.0000 0.89800  0.65320  0.61650  Biso   1.000  C
  C6       1.0000 0.61130  0.72090  0.69960  Biso   1.000  C
  C7       1.0000 0.55410  0.75470  0.78600  Biso   1.000  C
  C8       1.0000 0.48640  0.34500  0.76850  Biso   1.000  C
  C9       1.0000 0.72160  0.10520  0.78890  Biso   1.000  C
  C10      1.0000 0.68150  0.11730  0.88860  Biso   1.000  C
  C11      1.0000 0.30180  0.15720  0.79940  Biso   1.000  C
  C12      1.0000 0.34680  0.10200  0.88350  Biso   1.000  C
  C13      1.0000 0.27910  0.38870  0.80040  Biso   1.000  C
  C14      1.0000 0.24530  0.44590  0.71400  Biso   1.000  C
  C15      1.0000 0.34500  0.48640  0.26850  Biso   1.000  C
  C16      1.0000 0.10520  0.72160  0.28890  Biso   1.000  C
  C17      1.0000 0.11730  0.68150  0.38860  Biso   1.000  C
  C18      1.0000 0.15720  0.30180  0.29940  Biso   1.000  C
  C19      1.0000 0.10200  0.34680  0.38350  Biso   1.000  C
  C20      1.0000 0.38870  0.27910  0.30040  Biso   1.000  C
  C21      1.0000 0.44590  0.24530  0.21400  Biso   1.000  C
  C22      1.0000 0.51360  0.65500  0.23150  Biso   1.000  C
  C23      1.0000 0.27840  0.89480  0.21110  Biso   1.000  C
  C24      1.0000 0.31850  0.88270  0.11140  Biso   1.000  C
  C25      1.0000 0.69820  0.84280  0.20060  Biso   1.000  C
  C26      1.0000 0.65320  0.89800  0.11650  Biso   1.000  C
  C27      1.0000 0.72090  0.61130  0.19960  Biso   1.000  C
  C28      1.0000 0.75470  0.55410  0.28600  Biso   1.000  C
  C29      1.0000 0.68730  0.31270  0.75000  Biso   1.000  C
  C30      1.0000 0.31270  0.68730  0.25000  Biso   1.000  C
  N1       1.0000 0.74200  0.44040  0.73080  Biso   1.000  N
  N2       1.0000 0.70210  0.64190  0.71050  Biso   1.000  N
  N3       1.0000 0.55960  0.25800  0.76920  Biso   1.000  N
  N4       1.0000 0.35810  0.29790  0.78950  Biso   1.000  N
  N5       1.0000 0.25800  0.55960  0.26920  Biso   1.000  N
  N6       1.0000 0.29790  0.35810  0.28950  Biso   1.000  N
  N7       1.0000 0.44040  0.74200  0.23080  Biso   1.000  N
  N8       1.0000 0.64190  0.70210  0.21050  Biso   1.000  N
  N9       1.0000 0.52750  0.47250  0.75000  Biso   1.000  N
  N10      1.0000 0.76690  0.23310  0.75000  Biso   1.000  N
  N11      1.0000 0.47250  0.52750  0.25000  Biso   1.000  N
  N12      1.0000 0.23310  0.76690  0.25000  Biso   1.000  N
  O1       1.0000 0.97530  0.40910  0.58010  Biso   1.000  O
  O2       1.0000 0.78790  0.26050  0.56510  Biso   1.000  O
  O3       1.0000 0.02350  0.68210  0.61510  Biso   1.000  O
  O4       1.0000 0.82360  0.59420  0.55430  Biso   1.000  O
  O5       1.0000 0.45150  0.79530  0.77920  Biso   1.000  O
  O6       1.0000 0.60400  0.74940  0.86070  Biso   1.000  O
  O7       1.0000 0.59780  0.41560  0.49700  Biso   1.000  O
  O8       1.0000 0.67960  0.22200  0.38050  Biso   1.000  O
  O9       1.0000 0.59090  0.02470  0.91990  Biso   1.000  O
  O10      1.0000 0.73950  0.21210  0.93490  Biso   1.000  O
  O11      1.0000 0.31790  0.97650  0.88490  Biso   1.000  O
  O12      1.0000 0.40580  0.17640  0.94570  Biso   1.000  O
  O13      1.0000 0.20470  0.54850  0.72080  Biso   1.000  O
  O14      1.0000 0.25060  0.39600  0.63930  Biso   1.000  O
  O15      1.0000 0.58440  0.40220  0.00300  Biso   1.000  O
  O16      1.0000 0.77800  0.32040  0.11950  Biso   1.000  O
  O17      1.0000 0.02470  0.59090  0.41990  Biso   1.000  O
  O18      1.0000 0.21210  0.73950  0.43490  Biso   1.000  O
  O19      1.0000 0.97650  0.31790  0.38490  Biso   1.000  O
  O20      1.0000 0.17640  0.40580  0.44570  Biso   1.000  O
  O21      1.0000 0.54850  0.20470  0.22080  Biso   1.000  O
  O22      1.0000 0.39600  0.25060  0.13930  Biso   1.000  O
  O23      1.0000 0.40220  0.58440  0.50300  Biso   1.000  O
  O24      1.0000 0.32040  0.77800  0.61950  Biso   1.000  O
  O25      1.0000 0.40910  0.97530  0.08010  Biso   1.000  O
  O26      1.0000 0.26050  0.78790  0.06510  Biso   1.000  O
  O27      1.0000 0.68210  0.02350  0.11510  Biso   1.000  O
  O28      1.0000 0.59420  0.82360  0.05430  Biso   1.000  O
  O29      1.0000 0.79530  0.45150  0.27920  Biso   1.000  O
  O30      1.0000 0.74940  0.60400  0.36070  Biso   1.000  O
  O31      1.0000 0.41560  0.59780  0.99700  Biso   1.000  O
  O32      1.0000 0.22200  0.67960  0.88050  Biso   1.000  O
