data_image0
_cell_length_a       5.754
_cell_length_b       14.1259
_cell_length_c       21.156
_cell_angle_alpha    90
_cell_angle_beta     90.14
_cell_angle_gamma    90

_symmetry_space_group_name_H-M    P 1
_symmetry_int_tables_number       1

loop_
  _symmetry_equiv_pos_as_xyz
  'x, y, z'

loop_
  _atom_site_label
  _atom_site_occupancy
  _atom_site_fract_x
  _atom_site_fract_y
  _atom_site_fract_z
  _atom_site_thermal_displace_type
  _atom_site_B_iso_or_equiv
  _atom_site_type_symbol
  Nd1      1.0000 0.74999  0.89020  0.98319  Biso   1.000  Nd
  Nd2      1.0000 0.25001  0.39020  0.51681  Biso   1.000  Nd
  Nd3      1.0000 0.25001  0.10980  0.01681  Biso   1.000  Nd
  Nd4      1.0000 0.74999  0.60980  0.48319  Biso   1.000  Nd
  P1       1.0000 0.75010  0.15660  0.94580  Biso   1.000  P
  P2       1.0000 0.75040  0.44850  0.61250  Biso   1.000  P
  P3       1.0000 0.24990  0.65660  0.55420  Biso   1.000  P
  P4       1.0000 0.24960  0.94850  0.88750  Biso   1.000  P
  P5       1.0000 0.24990  0.84340  0.05420  Biso   1.000  P
  P6       1.0000 0.24960  0.55150  0.38750  Biso   1.000  P
  P7       1.0000 0.75010  0.34340  0.44580  Biso   1.000  P
  P8       1.0000 0.75040  0.05150  0.11250  Biso   1.000  P
  H1       1.0000 0.92310  0.20340  0.74140  Biso   1.000  H
  H2       1.0000 0.67750  0.15070  0.74390  Biso   1.000  H
  H3       1.0000 0.48030  0.29190  0.72480  Biso   1.000  H
  H4       1.0000 0.67480  0.27980  0.67140  Biso   1.000  H
  H5       1.0000 0.85350  0.45640  0.81270  Biso   1.000  H
  H6       1.0000 0.59680  0.41390  0.81880  Biso   1.000  H
  H7       1.0000 0.82410  0.32770  0.88680  Biso   1.000  H
  H8       1.0000 0.02240  0.31360  0.83490  Biso   1.000  H
  H9       1.0000 0.61760  0.10920  0.85090  Biso   1.000  H
  H10      1.0000 0.89320  0.11130  0.85170  Biso   1.000  H
  H11      1.0000 0.61350  0.49580  0.70960  Biso   1.000  H
  H12      1.0000 0.88940  0.49570  0.70960  Biso   1.000  H
  H13      1.0000 0.07690  0.70340  0.75860  Biso   1.000  H
  H14      1.0000 0.32250  0.65070  0.75610  Biso   1.000  H
  H15      1.0000 0.51970  0.79190  0.77520  Biso   1.000  H
  H16      1.0000 0.32520  0.77980  0.82860  Biso   1.000  H
  H17      1.0000 0.14650  0.95640  0.68730  Biso   1.000  H
  H18      1.0000 0.40320  0.91390  0.68120  Biso   1.000  H
  H19      1.0000 0.17590  0.82770  0.61320  Biso   1.000  H
  H20      1.0000 0.97760  0.81360  0.66510  Biso   1.000  H
  H21      1.0000 0.38240  0.60920  0.64910  Biso   1.000  H
  H22      1.0000 0.10680  0.61130  0.64830  Biso   1.000  H
  H23      1.0000 0.38650  0.99580  0.79040  Biso   1.000  H
  H24      1.0000 0.11060  0.99570  0.79040  Biso   1.000  H
  H25      1.0000 0.07690  0.79660  0.25860  Biso   1.000  H
  H26      1.0000 0.32250  0.84930  0.25610  Biso   1.000  H
  H27      1.0000 0.51970  0.70810  0.27520  Biso   1.000  H
  H28      1.0000 0.32520  0.72020  0.32860  Biso   1.000  H
  H29      1.0000 0.14650  0.54360  0.18730  Biso   1.000  H
  H30      1.0000 0.40320  0.58610  0.18120  Biso   1.000  H
  H31      1.0000 0.17590  0.67230  0.11320  Biso   1.000  H
  H32      1.0000 0.97760  0.68640  0.16510  Biso   1.000  H
  H33      1.0000 0.38240  0.89080  0.14910  Biso   1.000  H
  H34      1.0000 0.10680  0.88870  0.14830  Biso   1.000  H
  H35      1.0000 0.38650  0.50420  0.29040  Biso   1.000  H
  H36      1.0000 0.11060  0.50430  0.29040  Biso   1.000  H
  H37      1.0000 0.92310  0.29660  0.24140  Biso   1.000  H
  H38      1.0000 0.67750  0.34930  0.24390  Biso   1.000  H
  H39      1.0000 0.48030  0.20810  0.22480  Biso   1.000  H
  H40      1.0000 0.67480  0.22020  0.17140  Biso   1.000  H
  H41      1.0000 0.85350  0.04360  0.31270  Biso   1.000  H
  H42      1.0000 0.59680  0.08610  0.31880  Biso   1.000  H
  H43      1.0000 0.82410  0.17230  0.38680  Biso   1.000  H
  H44      1.0000 0.02240  0.18640  0.33490  Biso   1.000  H
  H45      1.0000 0.61760  0.39080  0.35090  Biso   1.000  H
  H46      1.0000 0.89320  0.38870  0.35170  Biso   1.000  H
  H47      1.0000 0.61350  0.00420  0.20960  Biso   1.000  H
  H48      1.0000 0.88940  0.00430  0.20960  Biso   1.000  H
  C1       1.0000 0.75900  0.21000  0.75450  Biso   1.000  C
  C2       1.0000 0.65000  0.29070  0.71710  Biso   1.000  C
  C3       1.0000 0.75600  0.40000  0.80410  Biso   1.000  C
  C4       1.0000 0.85200  0.31650  0.84120  Biso   1.000  C
  C5       1.0000 0.75300  0.14850  0.86280  Biso   1.000  C
  C6       1.0000 0.75100  0.45770  0.69790  Biso   1.000  C
  C7       1.0000 0.24100  0.71000  0.74550  Biso   1.000  C
  C8       1.0000 0.35000  0.79070  0.78290  Biso   1.000  C
  C9       1.0000 0.24400  0.90000  0.69590  Biso   1.000  C
  C10      1.0000 0.14800  0.81650  0.65880  Biso   1.000  C
  C11      1.0000 0.24700  0.64850  0.63720  Biso   1.000  C
  C12      1.0000 0.24900  0.95770  0.80210  Biso   1.000  C
  C13      1.0000 0.24100  0.79000  0.24550  Biso   1.000  C
  C14      1.0000 0.35000  0.70930  0.28290  Biso   1.000  C
  C15      1.0000 0.24400  0.60000  0.19590  Biso   1.000  C
  C16      1.0000 0.14800  0.68350  0.15880  Biso   1.000  C
  C17      1.0000 0.24700  0.85150  0.13720  Biso   1.000  C
  C18      1.0000 0.24900  0.54230  0.30210  Biso   1.000  C
  C19      1.0000 0.75900  0.29000  0.25450  Biso   1.000  C
  C20      1.0000 0.65000  0.20930  0.21710  Biso   1.000  C
  C21      1.0000 0.75600  0.10000  0.30410  Biso   1.000  C
  C22      1.0000 0.85200  0.18350  0.34120  Biso   1.000  C
  C23      1.0000 0.75300  0.35150  0.36280  Biso   1.000  C
  C24      1.0000 0.75100  0.04230  0.19790  Biso   1.000  C
  N1       1.0000 0.75100  0.22410  0.82380  Biso   1.000  N
  N2       1.0000 0.75200  0.38220  0.73520  Biso   1.000  N
  N3       1.0000 0.24900  0.72410  0.67620  Biso   1.000  N
  N4       1.0000 0.24800  0.88220  0.76480  Biso   1.000  N
  N5       1.0000 0.24900  0.77590  0.17620  Biso   1.000  N
  N6       1.0000 0.24800  0.61780  0.26480  Biso   1.000  N
  N7       1.0000 0.75100  0.27590  0.32380  Biso   1.000  N
  N8       1.0000 0.75200  0.11780  0.23520  Biso   1.000  N
  O1       1.0000 0.75100  0.05710  0.97050  Biso   1.000  O
  O2       1.0000 0.53100  0.20750  0.96560  Biso   1.000  O
  O3       1.0000 0.96700  0.20910  0.96520  Biso   1.000  O
  O4       1.0000 0.53000  0.39490  0.59720  Biso   1.000  O
  O5       1.0000 0.74900  0.54730  0.58770  Biso   1.000  O
  O6       1.0000 0.96900  0.39450  0.59700  Biso   1.000  O
  O7       1.0000 0.75200  0.72880  0.92300  Biso   1.000  O
  O8       1.0000 0.24900  0.55710  0.52950  Biso   1.000  O
  O9       1.0000 0.46900  0.70750  0.53440  Biso   1.000  O
  O10      1.0000 0.03300  0.70910  0.53480  Biso   1.000  O
  O11      1.0000 0.47000  0.89490  0.90280  Biso   1.000  O
  O12      1.0000 0.25100  0.04730  0.91230  Biso   1.000  O
  O13      1.0000 0.03100  0.89450  0.90300  Biso   1.000  O
  O14      1.0000 0.24800  0.22880  0.57700  Biso   1.000  O
  O15      1.0000 0.24900  0.94290  0.02950  Biso   1.000  O
  O16      1.0000 0.46900  0.79250  0.03440  Biso   1.000  O
  O17      1.0000 0.03300  0.79090  0.03480  Biso   1.000  O
  O18      1.0000 0.47000  0.60510  0.40280  Biso   1.000  O
  O19      1.0000 0.25100  0.45270  0.41230  Biso   1.000  O
  O20      1.0000 0.03100  0.60550  0.40300  Biso   1.000  O
  O21      1.0000 0.24800  0.27120  0.07700  Biso   1.000  O
  O22      1.0000 0.75100  0.44290  0.47050  Biso   1.000  O
  O23      1.0000 0.53100  0.29250  0.46560  Biso   1.000  O
  O24      1.0000 0.96700  0.29090  0.46520  Biso   1.000  O
  O25      1.0000 0.53000  0.10510  0.09720  Biso   1.000  O
  O26      1.0000 0.74900  0.95270  0.08770  Biso   1.000  O
  O27      1.0000 0.96900  0.10550  0.09700  Biso   1.000  O
  O28      1.0000 0.75200  0.77120  0.42300  Biso   1.000  O
