data_image0
_cell_length_a       9.3078
_cell_length_b       9.9938
_cell_length_c       13.2647
_cell_angle_alpha    78.154
_cell_angle_beta     73.742
_cell_angle_gamma    82.751

_symmetry_space_group_name_H-M    "P 1"
_symmetry_int_tables_number       1

loop_
  _symmetry_equiv_pos_as_xyz
  'x, y, z'

loop_
  _atom_site_label
  _atom_site_occupancy
  _atom_site_fract_x
  _atom_site_fract_y
  _atom_site_fract_z
  _atom_site_thermal_displace_type
  _atom_site_B_iso_or_equiv
  _atom_site_type_symbol
  C1       1.0000 0.17730  0.30580  0.65140  Biso   1.000  C
  H1       1.0000 0.26590  0.30530  0.59720  Biso   1.000  H
  C2       1.0000 0.16640  0.26160  0.75640  Biso   1.000  C
  H2       1.0000 0.24470  0.22710  0.78740  Biso   1.000  H
  C3       1.0000 0.94600  0.33060  0.73300  Biso   1.000  C
  H3       1.0000 0.84270  0.35010  0.74760  Biso   1.000  H
  C4       1.0000 0.95530  0.25950  0.92440  Biso   1.000  C
  H4       1.0000 0.00410  0.17860  0.95890  Biso   1.000  H
  H5       1.0000 0.84910  0.24620  0.94150  Biso   1.000  H
  C5       1.0000 0.97670  0.38300  0.96510  Biso   1.000  C
  C6       1.0000 0.88750  0.50350  0.95130  Biso   1.000  C
  H6       1.0000 0.81050  0.50660  0.91860  Biso   1.000  H
  C7       1.0000 0.09010  0.38190  0.01520  Biso   1.000  C
  H7       1.0000 0.15140  0.30220  0.02600  Biso   1.000  H
  C8       1.0000 0.35890  0.51240  0.41610  Biso   1.000  C
  H8       1.0000 0.36010  0.57200  0.46130  Biso   1.000  H
  C9       1.0000 0.48110  0.46510  0.34520  Biso   1.000  C
  H9       1.0000 0.57990  0.48520  0.33370  Biso   1.000  H
  C10      1.0000 0.28270  0.38060  0.33620  Biso   1.000  C
  H10      1.0000 0.22160  0.33040  0.31550  Biso   1.000  H
  C11      1.0000 0.51810  0.32340  0.20100  Biso   1.000  C
  H11      1.0000 0.48080  0.23570  0.20440  Biso   1.000  H
  H12      1.0000 0.62250  0.30730  0.20240  Biso   1.000  H
  C12      1.0000 0.50670  0.41720  0.09750  Biso   1.000  C
  C13      1.0000 0.49640  0.55930  0.08540  Biso   1.000  C
  H13      1.0000 0.49310  0.59990  0.14320  Biso   1.000  H
  C14      1.0000 0.50890  0.35890  0.01150  Biso   1.000  C
  H14      1.0000 0.51400  0.26410  0.01860  Biso   1.000  H
  C15      1.0000 0.08110  0.64720  0.66680  Biso   1.000  C
  H15      1.0000 0.06340  0.57190  0.72180  Biso   1.000  H
  C16      1.0000 0.11870  0.76910  0.67550  Biso   1.000  C
  H16      1.0000 0.13160  0.79360  0.73610  Biso   1.000  H
  C17      1.0000 0.10660  0.77450  0.51340  Biso   1.000  C
  H17      1.0000 0.11080  0.80590  0.44170  Biso   1.000  H
  C18      1.0000 0.17890  0.99210  0.54530  Biso   1.000  C
  H18      1.0000 0.12940  0.04290  0.60200  Biso   1.000  H
  H19      1.0000 0.14660  0.03580  0.48210  Biso   1.000  H
  C19      1.0000 0.34540  0.99700  0.52240  Biso   1.000  C
  C20      1.0000 0.41180  0.99910  0.60250  Biso   1.000  C
  H20      1.0000 0.35300  0.99820  0.67200  Biso   1.000  H
  C21      1.0000 0.43430  0.99750  0.42000  Biso   1.000  C
  H21      1.0000 0.39040  0.99550  0.36550  Biso   1.000  H
  N1       1.0000 0.03780  0.35170  0.63670  Biso   1.000  N
  N2       1.0000 0.01930  0.27750  0.80780  Biso   1.000  N
  N3       1.0000 0.23360  0.45840  0.41040  Biso   1.000  N
  N4       1.0000 0.43130  0.38310  0.29470  Biso   1.000  N
  N5       1.0000 0.07280  0.65010  0.56480  Biso   1.000  N
  N6       1.0000 0.13380  0.84940  0.57720  Biso   1.000  N
  C22      1.0000 0.82270  0.69420  0.34860  Biso   1.000  C
  H22      1.0000 0.73410  0.69470  0.40280  Biso   1.000  H
  C23      1.0000 0.83360  0.73840  0.24360  Biso   1.000  C
  H23      1.0000 0.75530  0.77290  0.21260  Biso   1.000  H
  C24      1.0000 0.05400  0.66940  0.26700  Biso   1.000  C
  H24      1.0000 0.15730  0.64990  0.25240  Biso   1.000  H
  C25      1.0000 0.04470  0.74050  0.07560  Biso   1.000  C
  H25      1.0000 0.99590  0.82140  0.04110  Biso   1.000  H
  H26      1.0000 0.15090  0.75380  0.05850  Biso   1.000  H
  C26      1.0000 0.02330  0.61700  0.03490  Biso   1.000  C
  C27      1.0000 0.11250  0.49650  0.04870  Biso   1.000  C
  H27      1.0000 0.18950  0.49340  0.08140  Biso   1.000  H
  C28      1.0000 0.90990  0.61810  0.98480  Biso   1.000  C
  H28      1.0000 0.84860  0.69780  0.97400  Biso   1.000  H
  C29      1.0000 0.64110  0.48760  0.58390  Biso   1.000  C
  H29      1.0000 0.63990  0.42800  0.53870  Biso   1.000  H
  C30      1.0000 0.51890  0.53490  0.65480  Biso   1.000  C
  H30      1.0000 0.42010  0.51480  0.66630  Biso   1.000  H
  C31      1.0000 0.71730  0.61940  0.66380  Biso   1.000  C
  H31      1.0000 0.77840  0.66960  0.68450  Biso   1.000  H
  C32      1.0000 0.48190  0.67660  0.79900  Biso   1.000  C
  H32      1.0000 0.51920  0.76430  0.79560  Biso   1.000  H
  H33      1.0000 0.37750  0.69270  0.79760  Biso   1.000  H
  C33      1.0000 0.49330  0.58280  0.90250  Biso   1.000  C
  C34      1.0000 0.50360  0.44070  0.91460  Biso   1.000  C
  H34      1.0000 0.50690  0.40010  0.85680  Biso   1.000  H
  C35      1.0000 0.49110  0.64110  0.98850  Biso   1.000  C
  H35      1.0000 0.48600  0.73590  0.98140  Biso   1.000  H
  C36      1.0000 0.91890  0.35280  0.33320  Biso   1.000  C
  H36      1.0000 0.93660  0.42810  0.27820  Biso   1.000  H
  C37      1.0000 0.88130  0.23090  0.32450  Biso   1.000  C
  H37      1.0000 0.86840  0.20640  0.26390  Biso   1.000  H
  C38      1.0000 0.89340  0.22550  0.48660  Biso   1.000  C
  H38      1.0000 0.88920  0.19410  0.55830  Biso   1.000  H
  C39      1.0000 0.82110  0.00790  0.45470  Biso   1.000  C
  H39      1.0000 0.87060  0.95710  0.39800  Biso   1.000  H
  H40      1.0000 0.85340  0.96420  0.51790  Biso   1.000  H
  C40      1.0000 0.65460  0.00300  0.47760  Biso   1.000  C
  C41      1.0000 0.58820  0.00090  0.39750  Biso   1.000  C
  H41      1.0000 0.64700  0.00180  0.32800  Biso   1.000  H
  C42      1.0000 0.56570  0.00250  0.58000  Biso   1.000  C
  H42      1.0000 0.60960  0.00450  0.63450  Biso   1.000  H
  N7       1.0000 0.96220  0.64830  0.36330  Biso   1.000  N
  N8       1.0000 0.98070  0.72250  0.19220  Biso   1.000  N
  N9       1.0000 0.76640  0.54160  0.58960  Biso   1.000  N
  N10      1.0000 0.56870  0.61690  0.70530  Biso   1.000  N
  N11      1.0000 0.92720  0.34990  0.43520  Biso   1.000  N
  N12      1.0000 0.86620  0.15060  0.42280  Biso   1.000  N
  Co1      1.0000 0.00000  0.50000  0.50000  Biso   1.000  Co
