data_image0
_cell_length_a       8.393
_cell_length_b       18.7421
_cell_length_c       22.2351
_cell_angle_alpha    90
_cell_angle_beta     90
_cell_angle_gamma    94.031

_symmetry_space_group_name_H-M    P 1
_symmetry_int_tables_number       1

loop_
  _symmetry_equiv_pos_as_xyz
  'x, y, z'

loop_
  _atom_site_label
  _atom_site_occupancy
  _atom_site_fract_x
  _atom_site_fract_y
  _atom_site_fract_z
  _atom_site_thermal_displace_type
  _atom_site_B_iso_or_equiv
  _atom_site_type_symbol
  Cd1      1.0000 0.68424  0.01288  0.44304  Biso   1.000  Cd
  Cd2      1.0000 0.31576  0.48712  0.94304  Biso   1.000  Cd
  Cd3      1.0000 0.31576  0.98712  0.55696  Biso   1.000  Cd
  Cd4      1.0000 0.68424  0.51288  0.05696  Biso   1.000  Cd
  H1       1.0000 0.05800  0.16720  0.45330  Biso   1.000  H
  H2       1.0000 0.99920  0.25340  0.38020  Biso   1.000  H
  H3       1.0000 0.48730  0.14280  0.37420  Biso   1.000  H
  H4       1.0000 0.41530  0.50510  0.15890  Biso   1.000  H
  H5       1.0000 0.30550  0.43380  0.23600  Biso   1.000  H
  H6       1.0000 0.54960  0.27220  0.16780  Biso   1.000  H
  H7       1.0000 0.65550  0.35150  0.09640  Biso   1.000  H
  H8       1.0000 0.13200  0.02600  0.30580  Biso   1.000  H
  H9       1.0000 0.29370  0.06880  0.22420  Biso   1.000  H
  H10      1.0000 0.79790  0.16480  0.26490  Biso   1.000  H
  H11      1.0000 0.31760  0.31910  0.95990  Biso   1.000  H
  H12      1.0000 0.25210  0.22670  0.02670  Biso   1.000  H
  H13      1.0000 0.03710  0.36970  0.13140  Biso   1.000  H
  H14      1.0000 0.10960  0.45470  0.06140  Biso   1.000  H
  H15      1.0000 0.94200  0.33280  0.95330  Biso   1.000  H
  H16      1.0000 0.00080  0.24660  0.88020  Biso   1.000  H
  H17      1.0000 0.51270  0.35720  0.87420  Biso   1.000  H
  H18      1.0000 0.58470  0.99490  0.65890  Biso   1.000  H
  H19      1.0000 0.69450  0.06620  0.73600  Biso   1.000  H
  H20      1.0000 0.45040  0.22780  0.66780  Biso   1.000  H
  H21      1.0000 0.34450  0.14850  0.59640  Biso   1.000  H
  H22      1.0000 0.86800  0.47400  0.80580  Biso   1.000  H
  H23      1.0000 0.70630  0.43120  0.72420  Biso   1.000  H
  H24      1.0000 0.20210  0.33520  0.76490  Biso   1.000  H
  H25      1.0000 0.68240  0.18090  0.45990  Biso   1.000  H
  H26      1.0000 0.74790  0.27330  0.52670  Biso   1.000  H
  H27      1.0000 0.96290  0.13030  0.63140  Biso   1.000  H
  H28      1.0000 0.89040  0.04530  0.56140  Biso   1.000  H
  H29      1.0000 0.94200  0.83280  0.54670  Biso   1.000  H
  H30      1.0000 0.00080  0.74660  0.61980  Biso   1.000  H
  H31      1.0000 0.51270  0.85720  0.62580  Biso   1.000  H
  H32      1.0000 0.58470  0.49490  0.84110  Biso   1.000  H
  H33      1.0000 0.69450  0.56620  0.76400  Biso   1.000  H
  H34      1.0000 0.45040  0.72780  0.83220  Biso   1.000  H
  H35      1.0000 0.34450  0.64850  0.90360  Biso   1.000  H
  H36      1.0000 0.86800  0.97400  0.69420  Biso   1.000  H
  H37      1.0000 0.70630  0.93120  0.77580  Biso   1.000  H
  H38      1.0000 0.20210  0.83520  0.73510  Biso   1.000  H
  H39      1.0000 0.68240  0.68090  0.04010  Biso   1.000  H
  H40      1.0000 0.74790  0.77330  0.97330  Biso   1.000  H
  H41      1.0000 0.96290  0.63030  0.86860  Biso   1.000  H
  H42      1.0000 0.89040  0.54530  0.93860  Biso   1.000  H
  H43      1.0000 0.05800  0.66720  0.04670  Biso   1.000  H
  H44      1.0000 0.99920  0.75340  0.11980  Biso   1.000  H
  H45      1.0000 0.48730  0.64280  0.12580  Biso   1.000  H
  H46      1.0000 0.41530  0.00510  0.34110  Biso   1.000  H
  H47      1.0000 0.30550  0.93380  0.26400  Biso   1.000  H
  H48      1.0000 0.54960  0.77220  0.33220  Biso   1.000  H
  H49      1.0000 0.65550  0.85150  0.40360  Biso   1.000  H
  H50      1.0000 0.13200  0.52600  0.19420  Biso   1.000  H
  H51      1.0000 0.29370  0.56880  0.27580  Biso   1.000  H
  H52      1.0000 0.79790  0.66480  0.23510  Biso   1.000  H
  H53      1.0000 0.31760  0.81910  0.54010  Biso   1.000  H
  H54      1.0000 0.25210  0.72670  0.47330  Biso   1.000  H
  H55      1.0000 0.03710  0.86970  0.36860  Biso   1.000  H
  H56      1.0000 0.10960  0.95470  0.43860  Biso   1.000  H
  C1       1.0000 0.30640  0.09020  0.46580  Biso   1.000  C
  C2       1.0000 0.27540  0.14700  0.41990  Biso   1.000  C
  C3       1.0000 0.13290  0.17980  0.42240  Biso   1.000  C
  C4       1.0000 0.09810  0.23170  0.37960  Biso   1.000  C
  C5       1.0000 0.21100  0.24970  0.33730  Biso   1.000  C
  C6       1.0000 0.35390  0.21800  0.33600  Biso   1.000  C
  C7       1.0000 0.38960  0.16530  0.37620  Biso   1.000  C
  C8       1.0000 0.45140  0.24830  0.28570  Biso   1.000  C
  C9       1.0000 0.20990  0.30180  0.28650  Biso   1.000  C
  C10      1.0000 0.44380  0.45700  0.16160  Biso   1.000  C
  C11      1.0000 0.37640  0.41530  0.20760  Biso   1.000  C
  C12      1.0000 0.41770  0.34470  0.21010  Biso   1.000  C
  C13      1.0000 0.52130  0.32040  0.16760  Biso   1.000  C
  C14      1.0000 0.58210  0.36790  0.12490  Biso   1.000  C
  C15      1.0000 0.85680  0.06400  0.34670  Biso   1.000  C
  C16      1.0000 0.95380  0.09140  0.29340  Biso   1.000  C
  C17      1.0000 0.09770  0.06330  0.28110  Biso   1.000  C
  C18      1.0000 0.19520  0.08850  0.23310  Biso   1.000  C
  C19      1.0000 0.13900  0.14410  0.19930  Biso   1.000  C
  C20      1.0000 0.99410  0.17120  0.21180  Biso   1.000  C
  C21      1.0000 0.89840  0.14610  0.25750  Biso   1.000  C
  C22      1.0000 0.21630  0.18330  0.14820  Biso   1.000  C
  C23      1.0000 0.97040  0.22980  0.16750  Biso   1.000  C
  C24      1.0000 0.26200  0.32930  0.99570  Biso   1.000  C
  C25      1.0000 0.22370  0.27380  0.03520  Biso   1.000  C
  C26      1.0000 0.14250  0.28890  0.08790  Biso   1.000  C
  C27      1.0000 0.09700  0.35780  0.09700  Biso   1.000  C
  C28      1.0000 0.14130  0.40760  0.05480  Biso   1.000  C
  C29      1.0000 0.69360  0.40980  0.96580  Biso   1.000  C
  C30      1.0000 0.72460  0.35300  0.91990  Biso   1.000  C
  C31      1.0000 0.86710  0.32020  0.92240  Biso   1.000  C
  C32      1.0000 0.90190  0.26830  0.87960  Biso   1.000  C
  C33      1.0000 0.78900  0.25030  0.83730  Biso   1.000  C
  C34      1.0000 0.64610  0.28200  0.83600  Biso   1.000  C
  C35      1.0000 0.61040  0.33470  0.87620  Biso   1.000  C
  C36      1.0000 0.54860  0.25170  0.78570  Biso   1.000  C
  C37      1.0000 0.79010  0.19820  0.78650  Biso   1.000  C
  C38      1.0000 0.55620  0.04300  0.66160  Biso   1.000  C
  C39      1.0000 0.62360  0.08470  0.70760  Biso   1.000  C
  C40      1.0000 0.58230  0.15530  0.71010  Biso   1.000  C
  C41      1.0000 0.47870  0.17960  0.66760  Biso   1.000  C
  C42      1.0000 0.41790  0.13210  0.62490  Biso   1.000  C
  C43      1.0000 0.14320  0.43600  0.84670  Biso   1.000  C
  C44      1.0000 0.04620  0.40860  0.79340  Biso   1.000  C
  C45      1.0000 0.90230  0.43670  0.78110  Biso   1.000  C
  C46      1.0000 0.80480  0.41150  0.73310  Biso   1.000  C
  C47      1.0000 0.86100  0.35590  0.69930  Biso   1.000  C
  C48      1.0000 0.00590  0.32880  0.71180  Biso   1.000  C
  C49      1.0000 0.10160  0.35390  0.75750  Biso   1.000  C
  C50      1.0000 0.78370  0.31670  0.64820  Biso   1.000  C
  C51      1.0000 0.02960  0.27020  0.66750  Biso   1.000  C
  C52      1.0000 0.73800  0.17070  0.49570  Biso   1.000  C
  C53      1.0000 0.77630  0.22620  0.53520  Biso   1.000  C
  C54      1.0000 0.85750  0.21110  0.58790  Biso   1.000  C
  C55      1.0000 0.90300  0.14220  0.59700  Biso   1.000  C
  C56      1.0000 0.85870  0.09240  0.55480  Biso   1.000  C
  C57      1.0000 0.69360  0.90980  0.53420  Biso   1.000  C
  C58      1.0000 0.72460  0.85300  0.58010  Biso   1.000  C
  C59      1.0000 0.86710  0.82020  0.57760  Biso   1.000  C
  C60      1.0000 0.90190  0.76830  0.62040  Biso   1.000  C
  C61      1.0000 0.78900  0.75030  0.66270  Biso   1.000  C
  C62      1.0000 0.64610  0.78200  0.66400  Biso   1.000  C
  C63      1.0000 0.61040  0.83470  0.62380  Biso   1.000  C
  C64      1.0000 0.54860  0.75170  0.71430  Biso   1.000  C
  C65      1.0000 0.79010  0.69820  0.71350  Biso   1.000  C
  C66      1.0000 0.55620  0.54300  0.83840  Biso   1.000  C
  C67      1.0000 0.62360  0.58470  0.79240  Biso   1.000  C
  C68      1.0000 0.58230  0.65530  0.78990  Biso   1.000  C
  C69      1.0000 0.47870  0.67960  0.83240  Biso   1.000  C
  C70      1.0000 0.41790  0.63210  0.87510  Biso   1.000  C
  C71      1.0000 0.14320  0.93600  0.65330  Biso   1.000  C
  C72      1.0000 0.04620  0.90860  0.70660  Biso   1.000  C
  C73      1.0000 0.90230  0.93670  0.71890  Biso   1.000  C
  C74      1.0000 0.80480  0.91150  0.76690  Biso   1.000  C
  C75      1.0000 0.86100  0.85590  0.80070  Biso   1.000  C
  C76      1.0000 0.00590  0.82880  0.78820  Biso   1.000  C
  C77      1.0000 0.10160  0.85390  0.74250  Biso   1.000  C
  C78      1.0000 0.78370  0.81670  0.85180  Biso   1.000  C
  C79      1.0000 0.02960  0.77020  0.83250  Biso   1.000  C
  C80      1.0000 0.73800  0.67070  0.00430  Biso   1.000  C
  C81      1.0000 0.77630  0.72620  0.96480  Biso   1.000  C
  C82      1.0000 0.85750  0.71110  0.91210  Biso   1.000  C
  C83      1.0000 0.90300  0.64220  0.90300  Biso   1.000  C
  C84      1.0000 0.85870  0.59240  0.94520  Biso   1.000  C
  C85      1.0000 0.30640  0.59020  0.03420  Biso   1.000  C
  C86      1.0000 0.27540  0.64700  0.08010  Biso   1.000  C
  C87      1.0000 0.13290  0.67980  0.07760  Biso   1.000  C
  C88      1.0000 0.09810  0.73170  0.12040  Biso   1.000  C
  C89      1.0000 0.21100  0.74970  0.16270  Biso   1.000  C
  C90      1.0000 0.35390  0.71800  0.16400  Biso   1.000  C
  C91      1.0000 0.38960  0.66530  0.12380  Biso   1.000  C
  C92      1.0000 0.45140  0.74830  0.21430  Biso   1.000  C
  C93      1.0000 0.20990  0.80180  0.21350  Biso   1.000  C
  C94      1.0000 0.44380  0.95700  0.33840  Biso   1.000  C
  C95      1.0000 0.37640  0.91530  0.29240  Biso   1.000  C
  C96      1.0000 0.41770  0.84470  0.28990  Biso   1.000  C
  C97      1.0000 0.52130  0.82040  0.33240  Biso   1.000  C
  C98      1.0000 0.58210  0.86790  0.37510  Biso   1.000  C
  C99      1.0000 0.85680  0.56400  0.15330  Biso   1.000  C
  C100     1.0000 0.95380  0.59140  0.20660  Biso   1.000  C
  C101     1.0000 0.09770  0.56330  0.21890  Biso   1.000  C
  C102     1.0000 0.19520  0.58850  0.26690  Biso   1.000  C
  C103     1.0000 0.13900  0.64410  0.30070  Biso   1.000  C
  C104     1.0000 0.99410  0.67120  0.28820  Biso   1.000  C
  C105     1.0000 0.89840  0.64610  0.24250  Biso   1.000  C
  C106     1.0000 0.21630  0.68330  0.35180  Biso   1.000  C
  C107     1.0000 0.97040  0.72980  0.33250  Biso   1.000  C
  C108     1.0000 0.26200  0.82930  0.50430  Biso   1.000  C
  C109     1.0000 0.22370  0.77380  0.46480  Biso   1.000  C
  C110     1.0000 0.14250  0.78890  0.41210  Biso   1.000  C
  C111     1.0000 0.09700  0.85780  0.40300  Biso   1.000  C
  C112     1.0000 0.14130  0.90760  0.44520  Biso   1.000  C
  N1       1.0000 0.54450  0.43510  0.12130  Biso   1.000  N
  N2       1.0000 0.35910  0.29910  0.25720  Biso   1.000  N
  N3       1.0000 0.11020  0.23560  0.13180  Biso   1.000  N
  N4       1.0000 0.22460  0.39710  0.00530  Biso   1.000  N
  N5       1.0000 0.45550  0.06490  0.62130  Biso   1.000  N
  N6       1.0000 0.64090  0.20090  0.75720  Biso   1.000  N
  N7       1.0000 0.88980  0.26440  0.63180  Biso   1.000  N
  N8       1.0000 0.77540  0.10290  0.50530  Biso   1.000  N
  N9       1.0000 0.45550  0.56490  0.87870  Biso   1.000  N
  N10      1.0000 0.64090  0.70090  0.74280  Biso   1.000  N
  N11      1.0000 0.88980  0.76440  0.86820  Biso   1.000  N
  N12      1.0000 0.77540  0.60290  0.99470  Biso   1.000  N
  N13      1.0000 0.54450  0.93510  0.37870  Biso   1.000  N
  N14      1.0000 0.35910  0.79910  0.24280  Biso   1.000  N
  N15      1.0000 0.11020  0.73560  0.36820  Biso   1.000  N
  N16      1.0000 0.22460  0.89710  0.49470  Biso   1.000  N
  O1       1.0000 0.42940  0.05620  0.45985  Biso   1.000  O
  O2       1.0000 0.20670  0.07850  0.50670  Biso   1.000  O
  O3       1.0000 0.10630  0.33880  0.27020  Biso   1.000  O
  O4       1.0000 0.58490  0.23580  0.27130  Biso   1.000  O
  O5       1.0000 0.72810  0.09160  0.35922  Biso   1.000  O
  O6       1.0000 0.90970  0.01370  0.37690  Biso   1.000  O
  O7       1.0000 0.85600  0.26380  0.16050  Biso   1.000  O
  O8       1.0000 0.34270  0.17460  0.12400  Biso   1.000  O
  O9       1.0000 0.57060  0.44380  0.95985  Biso   1.000  O
  O10      1.0000 0.79330  0.42150  0.00670  Biso   1.000  O
  O11      1.0000 0.89370  0.16120  0.77020  Biso   1.000  O
  O12      1.0000 0.41510  0.26420  0.77130  Biso   1.000  O
  O13      1.0000 0.27190  0.40840  0.85922  Biso   1.000  O
  O14      1.0000 0.09030  0.48630  0.87690  Biso   1.000  O
  O15      1.0000 0.14400  0.23620  0.66050  Biso   1.000  O
  O16      1.0000 0.65730  0.32540  0.62400  Biso   1.000  O
  O17      1.0000 0.57060  0.94380  0.54015  Biso   1.000  O
  O18      1.0000 0.79330  0.92150  0.49330  Biso   1.000  O
  O19      1.0000 0.89370  0.66120  0.72980  Biso   1.000  O
  O20      1.0000 0.41510  0.76420  0.72870  Biso   1.000  O
  O21      1.0000 0.27190  0.90840  0.64078  Biso   1.000  O
  O22      1.0000 0.09030  0.98630  0.62310  Biso   1.000  O
  O23      1.0000 0.14400  0.73620  0.83950  Biso   1.000  O
  O24      1.0000 0.65730  0.82540  0.87600  Biso   1.000  O
  O25      1.0000 0.42940  0.55620  0.04015  Biso   1.000  O
  O26      1.0000 0.20670  0.57850  0.99330  Biso   1.000  O
  O27      1.0000 0.10630  0.83880  0.22980  Biso   1.000  O
  O28      1.0000 0.58490  0.73580  0.22870  Biso   1.000  O
  O29      1.0000 0.72810  0.59160  0.14078  Biso   1.000  O
  O30      1.0000 0.90970  0.51370  0.12310  Biso   1.000  O
  O31      1.0000 0.85600  0.76380  0.33950  Biso   1.000  O
  O32      1.0000 0.34270  0.67460  0.37600  Biso   1.000  O
