data_image0
_cell_length_a       37.951
_cell_length_b       8.047
_cell_length_c       20.882
_cell_angle_alpha    90
_cell_angle_beta     93.72
_cell_angle_gamma    90

_symmetry_space_group_name_H-M    "P 1"
_symmetry_int_tables_number       1

loop_
  _symmetry_equiv_pos_as_xyz
  'x, y, z'

loop_
  _atom_site_label
  _atom_site_occupancy
  _atom_site_fract_x
  _atom_site_fract_y
  _atom_site_fract_z
  _atom_site_thermal_displace_type
  _atom_site_B_iso_or_equiv
  _atom_site_type_symbol
  C1       1.0000 0.67050  0.55000  0.18500  Biso   1.000  C
  C2       1.0000 0.70490  0.48700  0.18580  Biso   1.000  C
  C3       1.0000 0.72470  0.50200  0.13420  Biso   1.000  C
  C4       1.0000 0.71230  0.58400  0.07930  Biso   1.000  C
  C5       1.0000 0.67790  0.65320  0.07830  Biso   1.000  C
  C6       1.0000 0.65710  0.63720  0.13100  Biso   1.000  C
  C7       1.0000 0.65680  0.06800  0.02520  Biso   1.000  C
  C8       1.0000 0.64570  0.20700  0.05610  Biso   1.000  C
  C9       1.0000 0.62620  0.19300  0.11080  Biso   1.000  C
  C10      1.0000 0.61770  0.03900  0.13360  Biso   1.000  C
  C11      1.0000 0.62850  0.89610  0.10260  Biso   1.000  C
  C12      1.0000 0.64810  0.91180  0.04840  Biso   1.000  C
  C13      1.0000 0.61210  0.58900  0.94800  Biso   1.000  C
  C14      1.0000 0.57920  0.50800  0.94290  Biso   1.000  C
  C15      1.0000 0.55900  0.49300  0.99720  Biso   1.000  C
  C16      1.0000 0.57180  0.55670  0.05630  Biso   1.000  C
  C17      1.0000 0.60400  0.63480  0.06100  Biso   1.000  C
  C18      1.0000 0.62420  0.65250  0.00750  Biso   1.000  C
  C19      1.0000 0.62110  0.71760  0.12110  Biso   1.000  C
  C20      1.0000 0.65880  0.74560  0.02180  Biso   1.000  C
  C21      1.0000 0.53930  0.04580  0.91850  Biso   1.000  C
  C22      1.0000 0.55550  0.97100  0.97460  Biso   1.000  C
  C23      1.0000 0.54030  0.97800  0.02920  Biso   1.000  C
  C24      1.0000 0.50760  0.05700  0.03520  Biso   1.000  C
  C25      1.0000 0.49090  0.12830  0.98150  Biso   1.000  C
  C26      1.0000 0.50700  0.12650  0.92300  Biso   1.000  C
  C27      1.0000 0.48650  0.53500  0.86450  Biso   1.000  C
  C28      1.0000 0.47820  0.68400  0.89310  Biso   1.000  C
  C29      1.0000 0.46260  0.68400  0.95010  Biso   1.000  C
  C30      1.0000 0.45310  0.53500  0.98100  Biso   1.000  C
  C31      1.0000 0.46140  0.38780  0.95180  Biso   1.000  C
  C32      1.0000 0.47770  0.38500  0.89430  Biso   1.000  C
  C33      1.0000 0.43490  0.03600  0.81250  Biso   1.000  C
  C34      1.0000 0.40220  0.95500  0.81940  Biso   1.000  C
  C35      1.0000 0.38610  0.95900  0.87690  Biso   1.000  C
  C36      1.0000 0.40180  0.04410  0.92880  Biso   1.000  C
  C37      1.0000 0.43370  0.12130  0.92350  Biso   1.000  C
  C38      1.0000 0.44950  0.12240  0.86600  Biso   1.000  C
  C39      1.0000 0.45530  0.21370  0.97650  Biso   1.000  C
  C40      1.0000 0.48470  0.21090  0.87010  Biso   1.000  C
  C41      1.0000 0.37560  0.56200  0.71780  Biso   1.000  C
  C42      1.0000 0.39860  0.48900  0.76520  Biso   1.000  C
  C43      1.0000 0.38840  0.47400  0.82630  Biso   1.000  C
  C44      1.0000 0.35520  0.53720  0.84280  Biso   1.000  C
  C45      1.0000 0.33360  0.61120  0.79680  Biso   1.000  C
  C46      1.0000 0.34360  0.62460  0.73390  Biso   1.000  C
  C47      1.0000 0.31640  0.03800  0.69430  Biso   1.000  C
  C48      1.0000 0.31030  0.18410  0.73140  Biso   1.000  C
  C49      1.0000 0.30010  0.16900  0.79350  Biso   1.000  C
  C50      1.0000 0.29540  0.01100  0.81940  Biso   1.000  C
  C51      1.0000 0.30110  0.87170  0.78400  Biso   1.000  C
  C52      1.0000 0.31140  0.88440  0.72100  Biso   1.000  C
  C53      1.0000 0.26170  0.55500  0.64290  Biso   1.000  C
  C54      1.0000 0.23130  0.47000  0.65730  Biso   1.000  C
  C55      1.0000 0.22080  0.45300  0.71970  Biso   1.000  C
  C56      1.0000 0.24160  0.51920  0.77180  Biso   1.000  C
  C57      1.0000 0.27210  0.60810  0.75680  Biso   1.000  C
  C58      1.0000 0.28190  0.62270  0.69390  Biso   1.000  C
  C59      1.0000 0.29750  0.69230  0.80620  Biso   1.000  C
  C60      1.0000 0.31640  0.71520  0.68950  Biso   1.000  C
  Ag1      1.0000 0.69750  0.76168  0.25430  Biso   1.000  Ag
  Ag2      1.0000 0.59460  0.21984  0.97740  Biso   1.000  Ag
  Ag3      1.0000 0.37360  0.19413  0.76760  Biso   1.000  Ag
  Cl1      1.0000 0.70500  0.54020  0.38920  Biso   1.000  Cl
  Cl2      1.0000 0.62890  0.06210  0.82930  Biso   1.000  Cl
  Cl3      1.0000 0.40960  0.05050  0.62250  Biso   1.000  Cl
  O1       1.0000 0.72360  0.65800  0.35550  Biso   1.000  O
  O2       1.0000 0.67670  0.47600  0.34190  Biso   1.000  O
  O3       1.0000 0.68780  0.60300  0.44250  Biso   1.000  O
  O4       1.0000 0.72780  0.41100  0.40900  Biso   1.000  O
  O5       1.0000 0.61820  0.18100  0.87360  Biso   1.000  O
  O6       1.0000 0.66520  0.99200  0.85700  Biso   1.000  O
  O7       1.0000 0.60470  0.94600  0.81100  Biso   1.000  O
  O8       1.0000 0.64000  0.12500  0.77490  Biso   1.000  O
  O9       1.0000 0.39850  0.17900  0.66250  Biso   1.000  O
  O10      1.0000 0.43370  0.94800  0.65400  Biso   1.000  O
  O11      1.0000 0.38150  0.96300  0.59300  Biso   1.000  O
  O12      1.0000 0.42680  0.11100  0.57360  Biso   1.000  O
  H1       1.0000 0.65600  0.53240  0.22050  Biso   1.000  H
  H2       1.0000 0.71450  0.42860  0.22370  Biso   1.000  H
  H3       1.0000 0.74800  0.46180  0.13660  Biso   1.000  H
  H4       1.0000 0.72650  0.58980  0.04130  Biso   1.000  H
  H5       1.0000 0.67060  0.07660  0.98780  Biso   1.000  H
  H6       1.0000 0.65130  0.31630  0.04100  Biso   1.000  H
  H7       1.0000 0.61850  0.29110  0.13120  Biso   1.000  H
  H8       1.0000 0.60370  0.02840  0.17010  Biso   1.000  H
  H9       1.0000 0.62620  0.60220  0.91030  Biso   1.000  H
  H10      1.0000 0.57030  0.46110  0.90170  Biso   1.000  H
  H11      1.0000 0.53570  0.43950  0.99270  Biso   1.000  H
  H12      1.0000 0.55810  0.54730  0.09370  Biso   1.000  H
  H13      1.0000 0.60720  0.70880  0.15730  Biso   1.000  H
  H14      1.0000 0.67270  0.75570  0.98500  Biso   1.000  H
  H15      1.0000 0.54990  0.03860  0.87790  Biso   1.000  H
  H16      1.0000 0.57760  0.91360  0.97170  Biso   1.000  H
  H17      1.0000 0.55170  0.92370  0.06650  Biso   1.000  H
  H18      1.0000 0.49600  0.05700  0.07470  Biso   1.000  H
  H19      1.0000 0.49850  0.53390  0.82460  Biso   1.000  H
  H20      1.0000 0.48300  0.78790  0.87340  Biso   1.000  H
  H21      1.0000 0.45700  0.78810  0.96810  Biso   1.000  H
  H22      1.0000 0.44160  0.53630  0.02030  Biso   1.000  H
  H23      1.0000 0.44620  0.03310  0.77180  Biso   1.000  H
  H24      1.0000 0.39140  0.89540  0.78280  Biso   1.000  H
  H25      1.0000 0.36360  0.90450  0.88020  Biso   1.000  H
  H26      1.0000 0.39040  0.04850  0.96840  Biso   1.000  H
  H27      1.0000 0.44420  0.21490  0.01620  Biso   1.000  H
  H28      1.0000 0.49570  0.21150  0.82960  Biso   1.000  H
  H29      1.0000 0.38210  0.56650  0.67300  Biso   1.000  H
  H30      1.0000 0.42190  0.45170  0.75510  Biso   1.000  H
  H31      1.0000 0.40370  0.42000  0.85850  Biso   1.000  H
  H32      1.0000 0.34790  0.52670  0.88560  Biso   1.000  H
  H33      1.0000 0.32420  0.04800  0.65120  Biso   1.000  H
  H34      1.0000 0.31280  0.29130  0.71300  Biso   1.000  H
  H35      1.0000 0.29650  0.26420  0.81870  Biso   1.000  H
  H36      1.0000 0.28780  0.00170  0.86230  Biso   1.000  H
  H37      1.0000 0.26890  0.56120  0.59820  Biso   1.000  H
  H38      1.0000 0.21620  0.42180  0.62300  Biso   1.000  H
  H39      1.0000 0.19900  0.39710  0.72640  Biso   1.000  H
  H40      1.0000 0.23510  0.50460  0.81530  Biso   1.000  H
  H41      1.0000 0.29050  0.68190  0.84950  Biso   1.000  H
  H42      1.0000 0.32360  0.72430  0.64580  Biso   1.000  H
  C61      1.0000 0.17050  0.05000  0.18500  Biso   1.000  C
  C62      1.0000 0.20490  0.98700  0.18580  Biso   1.000  C
  C63      1.0000 0.22470  0.00200  0.13420  Biso   1.000  C
  C64      1.0000 0.21230  0.08400  0.07930  Biso   1.000  C
  C65      1.0000 0.17790  0.15320  0.07830  Biso   1.000  C
  C66      1.0000 0.15710  0.13720  0.13100  Biso   1.000  C
  C67      1.0000 0.15680  0.56800  0.02520  Biso   1.000  C
  C68      1.0000 0.14570  0.70700  0.05610  Biso   1.000  C
  C69      1.0000 0.12620  0.69300  0.11080  Biso   1.000  C
  C70      1.0000 0.11770  0.53900  0.13360  Biso   1.000  C
  C71      1.0000 0.12850  0.39610  0.10260  Biso   1.000  C
  C72      1.0000 0.14810  0.41180  0.04840  Biso   1.000  C
  C73      1.0000 0.11210  0.08900  0.94800  Biso   1.000  C
  C74      1.0000 0.07920  0.00800  0.94290  Biso   1.000  C
  C75      1.0000 0.05900  0.99300  0.99720  Biso   1.000  C
  C76      1.0000 0.07180  0.05670  0.05630  Biso   1.000  C
  C77      1.0000 0.10400  0.13480  0.06100  Biso   1.000  C
  C78      1.0000 0.12420  0.15250  0.00750  Biso   1.000  C
  C79      1.0000 0.12110  0.21760  0.12110  Biso   1.000  C
  C80      1.0000 0.15880  0.24560  0.02180  Biso   1.000  C
  C81      1.0000 0.03930  0.54580  0.91850  Biso   1.000  C
  C82      1.0000 0.05550  0.47100  0.97460  Biso   1.000  C
  C83      1.0000 0.04030  0.47800  0.02920  Biso   1.000  C
  C84      1.0000 0.00760  0.55700  0.03520  Biso   1.000  C
  C85      1.0000 0.99090  0.62830  0.98150  Biso   1.000  C
  C86      1.0000 0.00700  0.62650  0.92300  Biso   1.000  C
  C87      1.0000 0.98650  0.03500  0.86450  Biso   1.000  C
  C88      1.0000 0.97820  0.18400  0.89310  Biso   1.000  C
  C89      1.0000 0.96260  0.18400  0.95010  Biso   1.000  C
  C90      1.0000 0.95310  0.03500  0.98100  Biso   1.000  C
  C91      1.0000 0.96140  0.88780  0.95180  Biso   1.000  C
  C92      1.0000 0.97770  0.88500  0.89430  Biso   1.000  C
  C93      1.0000 0.93490  0.53600  0.81250  Biso   1.000  C
  C94      1.0000 0.90220  0.45500  0.81940  Biso   1.000  C
  C95      1.0000 0.88610  0.45900  0.87690  Biso   1.000  C
  C96      1.0000 0.90180  0.54410  0.92880  Biso   1.000  C
  C97      1.0000 0.93370  0.62130  0.92350  Biso   1.000  C
  C98      1.0000 0.94950  0.62240  0.86600  Biso   1.000  C
  C99      1.0000 0.95530  0.71370  0.97650  Biso   1.000  C
  C100     1.0000 0.98470  0.71090  0.87010  Biso   1.000  C
  C101     1.0000 0.87560  0.06200  0.71780  Biso   1.000  C
  C102     1.0000 0.89860  0.98900  0.76520  Biso   1.000  C
  C103     1.0000 0.88840  0.97400  0.82630  Biso   1.000  C
  C104     1.0000 0.85520  0.03720  0.84280  Biso   1.000  C
  C105     1.0000 0.83360  0.11120  0.79680  Biso   1.000  C
  C106     1.0000 0.84360  0.12460  0.73390  Biso   1.000  C
  C107     1.0000 0.81640  0.53800  0.69430  Biso   1.000  C
  C108     1.0000 0.81030  0.68410  0.73140  Biso   1.000  C
  C109     1.0000 0.80010  0.66900  0.79350  Biso   1.000  C
  C110     1.0000 0.79540  0.51100  0.81940  Biso   1.000  C
  C111     1.0000 0.80110  0.37170  0.78400  Biso   1.000  C
  C112     1.0000 0.81140  0.38440  0.72100  Biso   1.000  C
  C113     1.0000 0.76170  0.05500  0.64290  Biso   1.000  C
  C114     1.0000 0.73130  0.97000  0.65730  Biso   1.000  C
  C115     1.0000 0.72080  0.95300  0.71970  Biso   1.000  C
  C116     1.0000 0.74160  0.01920  0.77180  Biso   1.000  C
  C117     1.0000 0.77210  0.10810  0.75680  Biso   1.000  C
  C118     1.0000 0.78190  0.12270  0.69390  Biso   1.000  C
  C119     1.0000 0.79750  0.19230  0.80620  Biso   1.000  C
  C120     1.0000 0.81640  0.21520  0.68950  Biso   1.000  C
  Ag4      1.0000 0.19750  0.26168  0.25430  Biso   1.000  Ag
  Ag5      1.0000 0.09460  0.71984  0.97740  Biso   1.000  Ag
  Ag6      1.0000 0.87360  0.69413  0.76760  Biso   1.000  Ag
  Cl4      1.0000 0.20500  0.04020  0.38920  Biso   1.000  Cl
  Cl5      1.0000 0.12890  0.56210  0.82930  Biso   1.000  Cl
  Cl6      1.0000 0.90960  0.55050  0.62250  Biso   1.000  Cl
  O13      1.0000 0.22360  0.15800  0.35550  Biso   1.000  O
  O14      1.0000 0.17670  0.97600  0.34190  Biso   1.000  O
  O15      1.0000 0.18780  0.10300  0.44250  Biso   1.000  O
  O16      1.0000 0.22780  0.91100  0.40900  Biso   1.000  O
  O17      1.0000 0.11820  0.68100  0.87360  Biso   1.000  O
  O18      1.0000 0.16520  0.49200  0.85700  Biso   1.000  O
  O19      1.0000 0.10470  0.44600  0.81100  Biso   1.000  O
  O20      1.0000 0.14000  0.62500  0.77490  Biso   1.000  O
  O21      1.0000 0.89850  0.67900  0.66250  Biso   1.000  O
  O22      1.0000 0.93370  0.44800  0.65400  Biso   1.000  O
  O23      1.0000 0.88150  0.46300  0.59300  Biso   1.000  O
  O24      1.0000 0.92680  0.61100  0.57360  Biso   1.000  O
  H43      1.0000 0.15600  0.03240  0.22050  Biso   1.000  H
  H44      1.0000 0.21450  0.92860  0.22370  Biso   1.000  H
  H45      1.0000 0.24800  0.96180  0.13660  Biso   1.000  H
  H46      1.0000 0.22650  0.08980  0.04130  Biso   1.000  H
  H47      1.0000 0.17060  0.57660  0.98780  Biso   1.000  H
  H48      1.0000 0.15130  0.81630  0.04100  Biso   1.000  H
  H49      1.0000 0.11850  0.79110  0.13120  Biso   1.000  H
  H50      1.0000 0.10370  0.52840  0.17010  Biso   1.000  H
  H51      1.0000 0.12620  0.10220  0.91030  Biso   1.000  H
  H52      1.0000 0.07030  0.96110  0.90170  Biso   1.000  H
  H53      1.0000 0.03570  0.93950  0.99270  Biso   1.000  H
  H54      1.0000 0.05810  0.04730  0.09370  Biso   1.000  H
  H55      1.0000 0.10720  0.20880  0.15730  Biso   1.000  H
  H56      1.0000 0.17270  0.25570  0.98500  Biso   1.000  H
  H57      1.0000 0.04990  0.53860  0.87790  Biso   1.000  H
  H58      1.0000 0.07760  0.41360  0.97170  Biso   1.000  H
  H59      1.0000 0.05170  0.42370  0.06650  Biso   1.000  H
  H60      1.0000 0.99600  0.55700  0.07470  Biso   1.000  H
  H61      1.0000 0.99850  0.03390  0.82460  Biso   1.000  H
  H62      1.0000 0.98300  0.28790  0.87340  Biso   1.000  H
  H63      1.0000 0.95700  0.28810  0.96810  Biso   1.000  H
  H64      1.0000 0.94160  0.03630  0.02030  Biso   1.000  H
  H65      1.0000 0.94620  0.53310  0.77180  Biso   1.000  H
  H66      1.0000 0.89140  0.39540  0.78280  Biso   1.000  H
  H67      1.0000 0.86360  0.40450  0.88020  Biso   1.000  H
  H68      1.0000 0.89040  0.54850  0.96840  Biso   1.000  H
  H69      1.0000 0.94420  0.71490  0.01620  Biso   1.000  H
  H70      1.0000 0.99570  0.71150  0.82960  Biso   1.000  H
  H71      1.0000 0.88210  0.06650  0.67300  Biso   1.000  H
  H72      1.0000 0.92190  0.95170  0.75510  Biso   1.000  H
  H73      1.0000 0.90370  0.92000  0.85850  Biso   1.000  H
  H74      1.0000 0.84790  0.02670  0.88560  Biso   1.000  H
  H75      1.0000 0.82420  0.54800  0.65120  Biso   1.000  H
  H76      1.0000 0.81280  0.79130  0.71300  Biso   1.000  H
  H77      1.0000 0.79650  0.76420  0.81870  Biso   1.000  H
  H78      1.0000 0.78780  0.50170  0.86230  Biso   1.000  H
  H79      1.0000 0.76890  0.06120  0.59820  Biso   1.000  H
  H80      1.0000 0.71620  0.92180  0.62300  Biso   1.000  H
  H81      1.0000 0.69900  0.89710  0.72640  Biso   1.000  H
  H82      1.0000 0.73510  0.00460  0.81530  Biso   1.000  H
  H83      1.0000 0.79050  0.18190  0.84950  Biso   1.000  H
  H84      1.0000 0.82360  0.22430  0.64580  Biso   1.000  H
  C121     1.0000 0.67050  0.45000  0.68500  Biso   1.000  C
  C122     1.0000 0.70490  0.51300  0.68580  Biso   1.000  C
  C123     1.0000 0.72470  0.49800  0.63420  Biso   1.000  C
  C124     1.0000 0.71230  0.41600  0.57930  Biso   1.000  C
  C125     1.0000 0.67790  0.34680  0.57830  Biso   1.000  C
  C126     1.0000 0.65710  0.36280  0.63100  Biso   1.000  C
  C127     1.0000 0.65680  0.93200  0.52520  Biso   1.000  C
  C128     1.0000 0.64570  0.79300  0.55610  Biso   1.000  C
  C129     1.0000 0.62620  0.80700  0.61080  Biso   1.000  C
  C130     1.0000 0.61770  0.96100  0.63360  Biso   1.000  C
  C131     1.0000 0.62850  0.10390  0.60260  Biso   1.000  C
  C132     1.0000 0.64810  0.08820  0.54840  Biso   1.000  C
  C133     1.0000 0.61210  0.41100  0.44800  Biso   1.000  C
  C134     1.0000 0.57920  0.49200  0.44290  Biso   1.000  C
  C135     1.0000 0.55900  0.50700  0.49720  Biso   1.000  C
  C136     1.0000 0.57180  0.44330  0.55630  Biso   1.000  C
  C137     1.0000 0.60400  0.36520  0.56100  Biso   1.000  C
  C138     1.0000 0.62420  0.34750  0.50750  Biso   1.000  C
  C139     1.0000 0.62110  0.28240  0.62110  Biso   1.000  C
  C140     1.0000 0.65880  0.25440  0.52180  Biso   1.000  C
  C141     1.0000 0.53930  0.95420  0.41850  Biso   1.000  C
  C142     1.0000 0.55550  0.02900  0.47460  Biso   1.000  C
  C143     1.0000 0.54030  0.02200  0.52920  Biso   1.000  C
  C144     1.0000 0.50760  0.94300  0.53520  Biso   1.000  C
  C145     1.0000 0.49090  0.87170  0.48150  Biso   1.000  C
  C146     1.0000 0.50700  0.87350  0.42300  Biso   1.000  C
  C147     1.0000 0.48650  0.46500  0.36450  Biso   1.000  C
  C148     1.0000 0.47820  0.31600  0.39310  Biso   1.000  C
  C149     1.0000 0.46260  0.31600  0.45010  Biso   1.000  C
  C150     1.0000 0.45310  0.46500  0.48100  Biso   1.000  C
  C151     1.0000 0.46140  0.61220  0.45180  Biso   1.000  C
  C152     1.0000 0.47770  0.61500  0.39430  Biso   1.000  C
  C153     1.0000 0.43490  0.96400  0.31250  Biso   1.000  C
  C154     1.0000 0.40220  0.04500  0.31940  Biso   1.000  C
  C155     1.0000 0.38610  0.04100  0.37690  Biso   1.000  C
  C156     1.0000 0.40180  0.95590  0.42880  Biso   1.000  C
  C157     1.0000 0.43370  0.87870  0.42350  Biso   1.000  C
  C158     1.0000 0.44950  0.87760  0.36600  Biso   1.000  C
  C159     1.0000 0.45530  0.78630  0.47650  Biso   1.000  C
  C160     1.0000 0.48470  0.78910  0.37010  Biso   1.000  C
  C161     1.0000 0.37560  0.43800  0.21780  Biso   1.000  C
  C162     1.0000 0.39860  0.51100  0.26520  Biso   1.000  C
  C163     1.0000 0.38840  0.52600  0.32630  Biso   1.000  C
  C164     1.0000 0.35520  0.46280  0.34280  Biso   1.000  C
  C165     1.0000 0.33360  0.38880  0.29680  Biso   1.000  C
  C166     1.0000 0.34360  0.37540  0.23390  Biso   1.000  C
  C167     1.0000 0.31640  0.96200  0.19430  Biso   1.000  C
  C168     1.0000 0.31030  0.81590  0.23140  Biso   1.000  C
  C169     1.0000 0.30010  0.83100  0.29350  Biso   1.000  C
  C170     1.0000 0.29540  0.98900  0.31940  Biso   1.000  C
  C171     1.0000 0.30110  0.12830  0.28400  Biso   1.000  C
  C172     1.0000 0.31140  0.11560  0.22100  Biso   1.000  C
  C173     1.0000 0.26170  0.44500  0.14290  Biso   1.000  C
  C174     1.0000 0.23130  0.53000  0.15730  Biso   1.000  C
  C175     1.0000 0.22080  0.54700  0.21970  Biso   1.000  C
  C176     1.0000 0.24160  0.48080  0.27180  Biso   1.000  C
  C177     1.0000 0.27210  0.39190  0.25680  Biso   1.000  C
  C178     1.0000 0.28190  0.37730  0.19390  Biso   1.000  C
  C179     1.0000 0.29750  0.30770  0.30620  Biso   1.000  C
  C180     1.0000 0.31640  0.28480  0.18950  Biso   1.000  C
  Ag7      1.0000 0.69750  0.23832  0.75430  Biso   1.000  Ag
  Ag8      1.0000 0.59460  0.78016  0.47740  Biso   1.000  Ag
  Ag9      1.0000 0.37360  0.80587  0.26760  Biso   1.000  Ag
  Cl7      1.0000 0.70500  0.45980  0.88920  Biso   1.000  Cl
  Cl8      1.0000 0.62890  0.93790  0.32930  Biso   1.000  Cl
  Cl9      1.0000 0.40960  0.94950  0.12250  Biso   1.000  Cl
  O25      1.0000 0.72360  0.34200  0.85550  Biso   1.000  O
  O26      1.0000 0.67670  0.52400  0.84190  Biso   1.000  O
  O27      1.0000 0.68780  0.39700  0.94250  Biso   1.000  O
  O28      1.0000 0.72780  0.58900  0.90900  Biso   1.000  O
  O29      1.0000 0.61820  0.81900  0.37360  Biso   1.000  O
  O30      1.0000 0.66520  0.00800  0.35700  Biso   1.000  O
  O31      1.0000 0.60470  0.05400  0.31100  Biso   1.000  O
  O32      1.0000 0.64000  0.87500  0.27490  Biso   1.000  O
  O33      1.0000 0.39850  0.82100  0.16250  Biso   1.000  O
  O34      1.0000 0.43370  0.05200  0.15400  Biso   1.000  O
  O35      1.0000 0.38150  0.03700  0.09300  Biso   1.000  O
  O36      1.0000 0.42680  0.88900  0.07360  Biso   1.000  O
  H85      1.0000 0.65600  0.46760  0.72050  Biso   1.000  H
  H86      1.0000 0.71450  0.57140  0.72370  Biso   1.000  H
  H87      1.0000 0.74800  0.53820  0.63660  Biso   1.000  H
  H88      1.0000 0.72650  0.41020  0.54130  Biso   1.000  H
  H89      1.0000 0.67060  0.92340  0.48780  Biso   1.000  H
  H90      1.0000 0.65130  0.68370  0.54100  Biso   1.000  H
  H91      1.0000 0.61850  0.70890  0.63120  Biso   1.000  H
  H92      1.0000 0.60370  0.97160  0.67010  Biso   1.000  H
  H93      1.0000 0.62620  0.39780  0.41030  Biso   1.000  H
  H94      1.0000 0.57030  0.53890  0.40170  Biso   1.000  H
  H95      1.0000 0.53570  0.56050  0.49270  Biso   1.000  H
  H96      1.0000 0.55810  0.45270  0.59370  Biso   1.000  H
  H97      1.0000 0.60720  0.29120  0.65730  Biso   1.000  H
  H98      1.0000 0.67270  0.24430  0.48500  Biso   1.000  H
  H99      1.0000 0.54990  0.96140  0.37790  Biso   1.000  H
  H100     1.0000 0.57760  0.08640  0.47170  Biso   1.000  H
  H101     1.0000 0.55170  0.07630  0.56650  Biso   1.000  H
  H102     1.0000 0.49600  0.94300  0.57470  Biso   1.000  H
  H103     1.0000 0.49850  0.46610  0.32460  Biso   1.000  H
  H104     1.0000 0.48300  0.21210  0.37340  Biso   1.000  H
  H105     1.0000 0.45700  0.21190  0.46810  Biso   1.000  H
  H106     1.0000 0.44160  0.46370  0.52030  Biso   1.000  H
  H107     1.0000 0.44620  0.96690  0.27180  Biso   1.000  H
  H108     1.0000 0.39140  0.10460  0.28280  Biso   1.000  H
  H109     1.0000 0.36360  0.09550  0.38020  Biso   1.000  H
  H110     1.0000 0.39040  0.95150  0.46840  Biso   1.000  H
  H111     1.0000 0.44420  0.78510  0.51620  Biso   1.000  H
  H112     1.0000 0.49570  0.78850  0.32960  Biso   1.000  H
  H113     1.0000 0.38210  0.43350  0.17300  Biso   1.000  H
  H114     1.0000 0.42190  0.54830  0.25510  Biso   1.000  H
  H115     1.0000 0.40370  0.58000  0.35850  Biso   1.000  H
  H116     1.0000 0.34790  0.47330  0.38560  Biso   1.000  H
  H117     1.0000 0.32420  0.95200  0.15120  Biso   1.000  H
  H118     1.0000 0.31280  0.70870  0.21300  Biso   1.000  H
  H119     1.0000 0.29650  0.73580  0.31870  Biso   1.000  H
  H120     1.0000 0.28780  0.99830  0.36230  Biso   1.000  H
  H121     1.0000 0.26890  0.43880  0.09820  Biso   1.000  H
  H122     1.0000 0.21620  0.57820  0.12300  Biso   1.000  H
  H123     1.0000 0.19900  0.60290  0.22640  Biso   1.000  H
  H124     1.0000 0.23510  0.49540  0.31530  Biso   1.000  H
  H125     1.0000 0.29050  0.31810  0.34950  Biso   1.000  H
  H126     1.0000 0.32360  0.27570  0.14580  Biso   1.000  H
  C181     1.0000 0.17050  0.95000  0.68500  Biso   1.000  C
  C182     1.0000 0.20490  0.01300  0.68580  Biso   1.000  C
  C183     1.0000 0.22470  0.99800  0.63420  Biso   1.000  C
  C184     1.0000 0.21230  0.91600  0.57930  Biso   1.000  C
  C185     1.0000 0.17790  0.84680  0.57830  Biso   1.000  C
  C186     1.0000 0.15710  0.86280  0.63100  Biso   1.000  C
  C187     1.0000 0.15680  0.43200  0.52520  Biso   1.000  C
  C188     1.0000 0.14570  0.29300  0.55610  Biso   1.000  C
  C189     1.0000 0.12620  0.30700  0.61080  Biso   1.000  C
  C190     1.0000 0.11770  0.46100  0.63360  Biso   1.000  C
  C191     1.0000 0.12850  0.60390  0.60260  Biso   1.000  C
  C192     1.0000 0.14810  0.58820  0.54840  Biso   1.000  C
  C193     1.0000 0.11210  0.91100  0.44800  Biso   1.000  C
  C194     1.0000 0.07920  0.99200  0.44290  Biso   1.000  C
  C195     1.0000 0.05900  0.00700  0.49720  Biso   1.000  C
  C196     1.0000 0.07180  0.94330  0.55630  Biso   1.000  C
  C197     1.0000 0.10400  0.86520  0.56100  Biso   1.000  C
  C198     1.0000 0.12420  0.84750  0.50750  Biso   1.000  C
  C199     1.0000 0.12110  0.78240  0.62110  Biso   1.000  C
  C200     1.0000 0.15880  0.75440  0.52180  Biso   1.000  C
  C201     1.0000 0.03930  0.45420  0.41850  Biso   1.000  C
  C202     1.0000 0.05550  0.52900  0.47460  Biso   1.000  C
  C203     1.0000 0.04030  0.52200  0.52920  Biso   1.000  C
  C204     1.0000 0.00760  0.44300  0.53520  Biso   1.000  C
  C205     1.0000 0.99090  0.37170  0.48150  Biso   1.000  C
  C206     1.0000 0.00700  0.37350  0.42300  Biso   1.000  C
  C207     1.0000 0.98650  0.96500  0.36450  Biso   1.000  C
  C208     1.0000 0.97820  0.81600  0.39310  Biso   1.000  C
  C209     1.0000 0.96260  0.81600  0.45010  Biso   1.000  C
  C210     1.0000 0.95310  0.96500  0.48100  Biso   1.000  C
  C211     1.0000 0.96140  0.11220  0.45180  Biso   1.000  C
  C212     1.0000 0.97770  0.11500  0.39430  Biso   1.000  C
  C213     1.0000 0.93490  0.46400  0.31250  Biso   1.000  C
  C214     1.0000 0.90220  0.54500  0.31940  Biso   1.000  C
  C215     1.0000 0.88610  0.54100  0.37690  Biso   1.000  C
  C216     1.0000 0.90180  0.45590  0.42880  Biso   1.000  C
  C217     1.0000 0.93370  0.37870  0.42350  Biso   1.000  C
  C218     1.0000 0.94950  0.37760  0.36600  Biso   1.000  C
  C219     1.0000 0.95530  0.28630  0.47650  Biso   1.000  C
  C220     1.0000 0.98470  0.28910  0.37010  Biso   1.000  C
  C221     1.0000 0.87560  0.93800  0.21780  Biso   1.000  C
  C222     1.0000 0.89860  0.01100  0.26520  Biso   1.000  C
  C223     1.0000 0.88840  0.02600  0.32630  Biso   1.000  C
  C224     1.0000 0.85520  0.96280  0.34280  Biso   1.000  C
  C225     1.0000 0.83360  0.88880  0.29680  Biso   1.000  C
  C226     1.0000 0.84360  0.87540  0.23390  Biso   1.000  C
  C227     1.0000 0.81640  0.46200  0.19430  Biso   1.000  C
  C228     1.0000 0.81030  0.31590  0.23140  Biso   1.000  C
  C229     1.0000 0.80010  0.33100  0.29350  Biso   1.000  C
  C230     1.0000 0.79540  0.48900  0.31940  Biso   1.000  C
  C231     1.0000 0.80110  0.62830  0.28400  Biso   1.000  C
  C232     1.0000 0.81140  0.61560  0.22100  Biso   1.000  C
  C233     1.0000 0.76170  0.94500  0.14290  Biso   1.000  C
  C234     1.0000 0.73130  0.03000  0.15730  Biso   1.000  C
  C235     1.0000 0.72080  0.04700  0.21970  Biso   1.000  C
  C236     1.0000 0.74160  0.98080  0.27180  Biso   1.000  C
  C237     1.0000 0.77210  0.89190  0.25680  Biso   1.000  C
  C238     1.0000 0.78190  0.87730  0.19390  Biso   1.000  C
  C239     1.0000 0.79750  0.80770  0.30620  Biso   1.000  C
  C240     1.0000 0.81640  0.78480  0.18950  Biso   1.000  C
  Ag10     1.0000 0.19750  0.73832  0.75430  Biso   1.000  Ag
  Ag11     1.0000 0.09460  0.28016  0.47740  Biso   1.000  Ag
  Ag12     1.0000 0.87360  0.30587  0.26760  Biso   1.000  Ag
  Cl10     1.0000 0.20500  0.95980  0.88920  Biso   1.000  Cl
  Cl11     1.0000 0.12890  0.43790  0.32930  Biso   1.000  Cl
  Cl12     1.0000 0.90960  0.44950  0.12250  Biso   1.000  Cl
  O37      1.0000 0.22360  0.84200  0.85550  Biso   1.000  O
  O38      1.0000 0.17670  0.02400  0.84190  Biso   1.000  O
  O39      1.0000 0.18780  0.89700  0.94250  Biso   1.000  O
  O40      1.0000 0.22780  0.08900  0.90900  Biso   1.000  O
  O41      1.0000 0.11820  0.31900  0.37360  Biso   1.000  O
  O42      1.0000 0.16520  0.50800  0.35700  Biso   1.000  O
  O43      1.0000 0.10470  0.55400  0.31100  Biso   1.000  O
  O44      1.0000 0.14000  0.37500  0.27490  Biso   1.000  O
  O45      1.0000 0.89850  0.32100  0.16250  Biso   1.000  O
  O46      1.0000 0.93370  0.55200  0.15400  Biso   1.000  O
  O47      1.0000 0.88150  0.53700  0.09300  Biso   1.000  O
  O48      1.0000 0.92680  0.38900  0.07360  Biso   1.000  O
  H127     1.0000 0.15600  0.96760  0.72050  Biso   1.000  H
  H128     1.0000 0.21450  0.07140  0.72370  Biso   1.000  H
  H129     1.0000 0.24800  0.03820  0.63660  Biso   1.000  H
  H130     1.0000 0.22650  0.91020  0.54130  Biso   1.000  H
  H131     1.0000 0.17060  0.42340  0.48780  Biso   1.000  H
  H132     1.0000 0.15130  0.18370  0.54100  Biso   1.000  H
  H133     1.0000 0.11850  0.20890  0.63120  Biso   1.000  H
  H134     1.0000 0.10370  0.47160  0.67010  Biso   1.000  H
  H135     1.0000 0.12620  0.89780  0.41030  Biso   1.000  H
  H136     1.0000 0.07030  0.03890  0.40170  Biso   1.000  H
  H137     1.0000 0.03570  0.06050  0.49270  Biso   1.000  H
  H138     1.0000 0.05810  0.95270  0.59370  Biso   1.000  H
  H139     1.0000 0.10720  0.79120  0.65730  Biso   1.000  H
  H140     1.0000 0.17270  0.74430  0.48500  Biso   1.000  H
  H141     1.0000 0.04990  0.46140  0.37790  Biso   1.000  H
  H142     1.0000 0.07760  0.58640  0.47170  Biso   1.000  H
  H143     1.0000 0.05170  0.57630  0.56650  Biso   1.000  H
  H144     1.0000 0.99600  0.44300  0.57470  Biso   1.000  H
  H145     1.0000 0.99850  0.96610  0.32460  Biso   1.000  H
  H146     1.0000 0.98300  0.71210  0.37340  Biso   1.000  H
  H147     1.0000 0.95700  0.71190  0.46810  Biso   1.000  H
  H148     1.0000 0.94160  0.96370  0.52030  Biso   1.000  H
  H149     1.0000 0.94620  0.46690  0.27180  Biso   1.000  H
  H150     1.0000 0.89140  0.60460  0.28280  Biso   1.000  H
  H151     1.0000 0.86360  0.59550  0.38020  Biso   1.000  H
  H152     1.0000 0.89040  0.45150  0.46840  Biso   1.000  H
  H153     1.0000 0.94420  0.28510  0.51620  Biso   1.000  H
  H154     1.0000 0.99570  0.28850  0.32960  Biso   1.000  H
  H155     1.0000 0.88210  0.93350  0.17300  Biso   1.000  H
  H156     1.0000 0.92190  0.04830  0.25510  Biso   1.000  H
  H157     1.0000 0.90370  0.08000  0.35850  Biso   1.000  H
  H158     1.0000 0.84790  0.97330  0.38560  Biso   1.000  H
  H159     1.0000 0.82420  0.45200  0.15120  Biso   1.000  H
  H160     1.0000 0.81280  0.20870  0.21300  Biso   1.000  H
  H161     1.0000 0.79650  0.23580  0.31870  Biso   1.000  H
  H162     1.0000 0.78780  0.49830  0.36230  Biso   1.000  H
  H163     1.0000 0.76890  0.93880  0.09820  Biso   1.000  H
  H164     1.0000 0.71620  0.07820  0.12300  Biso   1.000  H
  H165     1.0000 0.69900  0.10290  0.22640  Biso   1.000  H
  H166     1.0000 0.73510  0.99540  0.31530  Biso   1.000  H
  H167     1.0000 0.79050  0.81810  0.34950  Biso   1.000  H
  H168     1.0000 0.82360  0.77570  0.14580  Biso   1.000  H
