data_image0
_cell_length_a       39.356
_cell_length_b       9.332
_cell_length_c       9.842
_cell_angle_alpha    90
_cell_angle_beta     101.864
_cell_angle_gamma    90

_symmetry_space_group_name_H-M    "P 1"
_symmetry_int_tables_number       1

loop_
  _symmetry_equiv_pos_as_xyz
  'x, y, z'

loop_
  _atom_site_label
  _atom_site_occupancy
  _atom_site_fract_x
  _atom_site_fract_y
  _atom_site_fract_z
  _atom_site_thermal_displace_type
  _atom_site_B_iso_or_equiv
  _atom_site_type_symbol
  Zn1      1.0000 0.21419  0.31089  0.08561  Biso   1.000  Zn
  N1       1.0000 0.24832  0.15240  0.15140  Biso   1.000  N
  N2       1.0000 0.27597  0.11550  0.09380  Biso   1.000  N
  N3       1.0000 0.27571  0.97310  0.27160  Biso   1.000  N
  O1       1.0000 0.16600  0.27100  0.08230  Biso   1.000  O
  O2       1.0000 0.16866  0.09760  0.95080  Biso   1.000  O
  C1       1.0000 0.15240  0.17070  0.01020  Biso   1.000  C
  C2       1.0000 0.11553  0.13540  0.01400  Biso   1.000  C
  C3       1.0000 0.09809  0.21110  0.09050  Biso   1.000  C
  H1       1.0000 0.10870  0.28850  0.14170  Biso   1.000  H
  C4       1.0000 0.09910  0.02390  0.94290  Biso   1.000  C
  H2       1.0000 0.11090  0.96540  0.89150  Biso   1.000  H
  C5       1.0000 0.06400  0.99480  0.94570  Biso   1.000  C
  H3       1.0000 0.05290  0.91870  0.89380  Biso   1.000  H
  C6       1.0000 0.06400  0.17620  0.09520  Biso   1.000  C
  H4       1.0000 0.05310  0.22850  0.15450  Biso   1.000  H
  C7       1.0000 0.04629  0.07380  0.02110  Biso   1.000  C
  C8       1.0000 0.00985  0.04700  0.02740  Biso   1.000  C
  H5       1.0000 0.00040  0.11140  0.08140  Biso   1.000  H
  C9       1.0000 0.29185  0.00840  0.16800  Biso   1.000  C
  C10      1.0000 0.32344  0.93940  0.13750  Biso   1.000  C
  H6       1.0000 0.31700  0.85440  0.08330  Biso   1.000  H
  H7       1.0000 0.33890  0.91430  0.22310  Biso   1.000  H
  H8       1.0000 0.33490  0.00480  0.08650  Biso   1.000  H
  C11      1.0000 0.24892  0.06550  0.25600  Biso   1.000  C
  C12      1.0000 0.22331  0.07230  0.34770  Biso   1.000  C
  H9       1.0000 0.23450  0.10770  0.43730  Biso   1.000  H
  H10      1.0000 0.21430  0.97810  0.35740  Biso   1.000  H
  H11      1.0000 0.20470  0.13530  0.30760  Biso   1.000  H
  Zn2      1.0000 0.71419  0.81089  0.08561  Biso   1.000  Zn
  N4       1.0000 0.74832  0.65240  0.15140  Biso   1.000  N
  N5       1.0000 0.77597  0.61550  0.09380  Biso   1.000  N
  N6       1.0000 0.77571  0.47310  0.27160  Biso   1.000  N
  O3       1.0000 0.66600  0.77100  0.08230  Biso   1.000  O
  O4       1.0000 0.66866  0.59760  0.95080  Biso   1.000  O
  C13      1.0000 0.65240  0.67070  0.01020  Biso   1.000  C
  C14      1.0000 0.61553  0.63540  0.01400  Biso   1.000  C
  C15      1.0000 0.59809  0.71110  0.09050  Biso   1.000  C
  H12      1.0000 0.60870  0.78850  0.14170  Biso   1.000  H
  C16      1.0000 0.59910  0.52390  0.94290  Biso   1.000  C
  H13      1.0000 0.61090  0.46540  0.89150  Biso   1.000  H
  C17      1.0000 0.56400  0.49480  0.94570  Biso   1.000  C
  H14      1.0000 0.55290  0.41870  0.89380  Biso   1.000  H
  C18      1.0000 0.56400  0.67620  0.09520  Biso   1.000  C
  H15      1.0000 0.55310  0.72850  0.15450  Biso   1.000  H
  C19      1.0000 0.54629  0.57380  0.02110  Biso   1.000  C
  C20      1.0000 0.50985  0.54700  0.02740  Biso   1.000  C
  H16      1.0000 0.50040  0.61140  0.08140  Biso   1.000  H
  C21      1.0000 0.79185  0.50840  0.16800  Biso   1.000  C
  C22      1.0000 0.82344  0.43940  0.13750  Biso   1.000  C
  H17      1.0000 0.81700  0.35440  0.08330  Biso   1.000  H
  H18      1.0000 0.83890  0.41430  0.22310  Biso   1.000  H
  H19      1.0000 0.83490  0.50480  0.08650  Biso   1.000  H
  C23      1.0000 0.74892  0.56550  0.25600  Biso   1.000  C
  C24      1.0000 0.72331  0.57230  0.34770  Biso   1.000  C
  H20      1.0000 0.73450  0.60770  0.43730  Biso   1.000  H
  H21      1.0000 0.71430  0.47810  0.35740  Biso   1.000  H
  H22      1.0000 0.70470  0.63530  0.30760  Biso   1.000  H
  Zn3      1.0000 0.78581  0.31089  0.41439  Biso   1.000  Zn
  N7       1.0000 0.75168  0.15240  0.34860  Biso   1.000  N
  N8       1.0000 0.72403  0.11550  0.40620  Biso   1.000  N
  N9       1.0000 0.72429  0.97310  0.22840  Biso   1.000  N
  O5       1.0000 0.83400  0.27100  0.41770  Biso   1.000  O
  O6       1.0000 0.83134  0.09760  0.54920  Biso   1.000  O
  C25      1.0000 0.84760  0.17070  0.48980  Biso   1.000  C
  C26      1.0000 0.88447  0.13540  0.48600  Biso   1.000  C
  C27      1.0000 0.90191  0.21110  0.40950  Biso   1.000  C
  H23      1.0000 0.89130  0.28850  0.35830  Biso   1.000  H
  C28      1.0000 0.90090  0.02390  0.55710  Biso   1.000  C
  H24      1.0000 0.88910  0.96540  0.60850  Biso   1.000  H
  C29      1.0000 0.93600  0.99480  0.55430  Biso   1.000  C
  H25      1.0000 0.94710  0.91870  0.60620  Biso   1.000  H
  C30      1.0000 0.93600  0.17620  0.40480  Biso   1.000  C
  H26      1.0000 0.94690  0.22850  0.34550  Biso   1.000  H
  C31      1.0000 0.95371  0.07380  0.47890  Biso   1.000  C
  C32      1.0000 0.99015  0.04700  0.47260  Biso   1.000  C
  H27      1.0000 0.99960  0.11140  0.41860  Biso   1.000  H
  C33      1.0000 0.70815  0.00840  0.33200  Biso   1.000  C
  C34      1.0000 0.67656  0.93940  0.36250  Biso   1.000  C
  H28      1.0000 0.68300  0.85440  0.41670  Biso   1.000  H
  H29      1.0000 0.66110  0.91430  0.27690  Biso   1.000  H
  H30      1.0000 0.66510  0.00480  0.41350  Biso   1.000  H
  C35      1.0000 0.75108  0.06550  0.24400  Biso   1.000  C
  C36      1.0000 0.77669  0.07230  0.15230  Biso   1.000  C
  H31      1.0000 0.76550  0.10770  0.06270  Biso   1.000  H
  H32      1.0000 0.78570  0.97810  0.14260  Biso   1.000  H
  H33      1.0000 0.79530  0.13530  0.19240  Biso   1.000  H
  Zn4      1.0000 0.28581  0.81089  0.41439  Biso   1.000  Zn
  N10      1.0000 0.25168  0.65240  0.34860  Biso   1.000  N
  N11      1.0000 0.22403  0.61550  0.40620  Biso   1.000  N
  N12      1.0000 0.22429  0.47310  0.22840  Biso   1.000  N
  O7       1.0000 0.33400  0.77100  0.41770  Biso   1.000  O
  O8       1.0000 0.33134  0.59760  0.54920  Biso   1.000  O
  C37      1.0000 0.34760  0.67070  0.48980  Biso   1.000  C
  C38      1.0000 0.38447  0.63540  0.48600  Biso   1.000  C
  C39      1.0000 0.40191  0.71110  0.40950  Biso   1.000  C
  H34      1.0000 0.39130  0.78850  0.35830  Biso   1.000  H
  C40      1.0000 0.40090  0.52390  0.55710  Biso   1.000  C
  H35      1.0000 0.38910  0.46540  0.60850  Biso   1.000  H
  C41      1.0000 0.43600  0.49480  0.55430  Biso   1.000  C
  H36      1.0000 0.44710  0.41870  0.60620  Biso   1.000  H
  C42      1.0000 0.43600  0.67620  0.40480  Biso   1.000  C
  H37      1.0000 0.44690  0.72850  0.34550  Biso   1.000  H
  C43      1.0000 0.45371  0.57380  0.47890  Biso   1.000  C
  C44      1.0000 0.49015  0.54700  0.47260  Biso   1.000  C
  H38      1.0000 0.49960  0.61140  0.41860  Biso   1.000  H
  C45      1.0000 0.20815  0.50840  0.33200  Biso   1.000  C
  C46      1.0000 0.17656  0.43940  0.36250  Biso   1.000  C
  H39      1.0000 0.18300  0.35440  0.41670  Biso   1.000  H
  H40      1.0000 0.16110  0.41430  0.27690  Biso   1.000  H
  H41      1.0000 0.16510  0.50480  0.41350  Biso   1.000  H
  C47      1.0000 0.25108  0.56550  0.24400  Biso   1.000  C
  C48      1.0000 0.27669  0.57230  0.15230  Biso   1.000  C
  H42      1.0000 0.26550  0.60770  0.06270  Biso   1.000  H
  H43      1.0000 0.28570  0.47810  0.14260  Biso   1.000  H
  H44      1.0000 0.29530  0.63530  0.19240  Biso   1.000  H
  Zn5      1.0000 0.78581  0.68911  0.91439  Biso   1.000  Zn
  N13      1.0000 0.75168  0.84760  0.84860  Biso   1.000  N
  N14      1.0000 0.72403  0.88450  0.90620  Biso   1.000  N
  N15      1.0000 0.72429  0.02690  0.72840  Biso   1.000  N
  O9       1.0000 0.83400  0.72900  0.91770  Biso   1.000  O
  O10      1.0000 0.83134  0.90240  0.04920  Biso   1.000  O
  C49      1.0000 0.84760  0.82930  0.98980  Biso   1.000  C
  C50      1.0000 0.88447  0.86460  0.98600  Biso   1.000  C
  C51      1.0000 0.90191  0.78890  0.90950  Biso   1.000  C
  H45      1.0000 0.89130  0.71150  0.85830  Biso   1.000  H
  C52      1.0000 0.90090  0.97610  0.05710  Biso   1.000  C
  H46      1.0000 0.88910  0.03460  0.10850  Biso   1.000  H
  C53      1.0000 0.93600  0.00520  0.05430  Biso   1.000  C
  H47      1.0000 0.94710  0.08130  0.10620  Biso   1.000  H
  C54      1.0000 0.93600  0.82380  0.90480  Biso   1.000  C
  H48      1.0000 0.94690  0.77150  0.84550  Biso   1.000  H
  C55      1.0000 0.95371  0.92620  0.97890  Biso   1.000  C
  C56      1.0000 0.99015  0.95300  0.97260  Biso   1.000  C
  H49      1.0000 0.99960  0.88860  0.91860  Biso   1.000  H
  C57      1.0000 0.70815  0.99160  0.83200  Biso   1.000  C
  C58      1.0000 0.67656  0.06060  0.86250  Biso   1.000  C
  H50      1.0000 0.68300  0.14560  0.91670  Biso   1.000  H
  H51      1.0000 0.66110  0.08570  0.77690  Biso   1.000  H
  H52      1.0000 0.66510  0.99520  0.91350  Biso   1.000  H
  C59      1.0000 0.75108  0.93450  0.74400  Biso   1.000  C
  C60      1.0000 0.77669  0.92770  0.65230  Biso   1.000  C
  H53      1.0000 0.76550  0.89230  0.56270  Biso   1.000  H
  H54      1.0000 0.78570  0.02190  0.64260  Biso   1.000  H
  H55      1.0000 0.79530  0.86470  0.69240  Biso   1.000  H
  Zn6      1.0000 0.28581  0.18911  0.91439  Biso   1.000  Zn
  N16      1.0000 0.25168  0.34760  0.84860  Biso   1.000  N
  N17      1.0000 0.22403  0.38450  0.90620  Biso   1.000  N
  N18      1.0000 0.22429  0.52690  0.72840  Biso   1.000  N
  O11      1.0000 0.33400  0.22900  0.91770  Biso   1.000  O
  O12      1.0000 0.33134  0.40240  0.04920  Biso   1.000  O
  C61      1.0000 0.34760  0.32930  0.98980  Biso   1.000  C
  C62      1.0000 0.38447  0.36460  0.98600  Biso   1.000  C
  C63      1.0000 0.40191  0.28890  0.90950  Biso   1.000  C
  H56      1.0000 0.39130  0.21150  0.85830  Biso   1.000  H
  C64      1.0000 0.40090  0.47610  0.05710  Biso   1.000  C
  H57      1.0000 0.38910  0.53460  0.10850  Biso   1.000  H
  C65      1.0000 0.43600  0.50520  0.05430  Biso   1.000  C
  H58      1.0000 0.44710  0.58130  0.10620  Biso   1.000  H
  C66      1.0000 0.43600  0.32380  0.90480  Biso   1.000  C
  H59      1.0000 0.44690  0.27150  0.84550  Biso   1.000  H
  C67      1.0000 0.45371  0.42620  0.97890  Biso   1.000  C
  C68      1.0000 0.49015  0.45300  0.97260  Biso   1.000  C
  H60      1.0000 0.49960  0.38860  0.91860  Biso   1.000  H
  C69      1.0000 0.20815  0.49160  0.83200  Biso   1.000  C
  C70      1.0000 0.17656  0.56060  0.86250  Biso   1.000  C
  H61      1.0000 0.18300  0.64560  0.91670  Biso   1.000  H
  H62      1.0000 0.16110  0.58570  0.77690  Biso   1.000  H
  H63      1.0000 0.16510  0.49520  0.91350  Biso   1.000  H
  C71      1.0000 0.25108  0.43450  0.74400  Biso   1.000  C
  C72      1.0000 0.27669  0.42770  0.65230  Biso   1.000  C
  H64      1.0000 0.26550  0.39230  0.56270  Biso   1.000  H
  H65      1.0000 0.28570  0.52190  0.64260  Biso   1.000  H
  H66      1.0000 0.29530  0.36470  0.69240  Biso   1.000  H
  Zn7      1.0000 0.21419  0.68911  0.58561  Biso   1.000  Zn
  N19      1.0000 0.24832  0.84760  0.65140  Biso   1.000  N
  N20      1.0000 0.27597  0.88450  0.59380  Biso   1.000  N
  N21      1.0000 0.27571  0.02690  0.77160  Biso   1.000  N
  O13      1.0000 0.16600  0.72900  0.58230  Biso   1.000  O
  O14      1.0000 0.16866  0.90240  0.45080  Biso   1.000  O
  C73      1.0000 0.15240  0.82930  0.51020  Biso   1.000  C
  C74      1.0000 0.11553  0.86460  0.51400  Biso   1.000  C
  C75      1.0000 0.09809  0.78890  0.59050  Biso   1.000  C
  H67      1.0000 0.10870  0.71150  0.64170  Biso   1.000  H
  C76      1.0000 0.09910  0.97610  0.44290  Biso   1.000  C
  H68      1.0000 0.11090  0.03460  0.39150  Biso   1.000  H
  C77      1.0000 0.06400  0.00520  0.44570  Biso   1.000  C
  H69      1.0000 0.05290  0.08130  0.39380  Biso   1.000  H
  C78      1.0000 0.06400  0.82380  0.59520  Biso   1.000  C
  H70      1.0000 0.05310  0.77150  0.65450  Biso   1.000  H
  C79      1.0000 0.04629  0.92620  0.52110  Biso   1.000  C
  C80      1.0000 0.00985  0.95300  0.52740  Biso   1.000  C
  H71      1.0000 0.00040  0.88860  0.58140  Biso   1.000  H
  C81      1.0000 0.29185  0.99160  0.66800  Biso   1.000  C
  C82      1.0000 0.32344  0.06060  0.63750  Biso   1.000  C
  H72      1.0000 0.31700  0.14560  0.58330  Biso   1.000  H
  H73      1.0000 0.33890  0.08570  0.72310  Biso   1.000  H
  H74      1.0000 0.33490  0.99520  0.58650  Biso   1.000  H
  C83      1.0000 0.24892  0.93450  0.75600  Biso   1.000  C
  C84      1.0000 0.22331  0.92770  0.84770  Biso   1.000  C
  H75      1.0000 0.23450  0.89230  0.93730  Biso   1.000  H
  H76      1.0000 0.21430  0.02190  0.85740  Biso   1.000  H
  H77      1.0000 0.20470  0.86470  0.80760  Biso   1.000  H
  Zn8      1.0000 0.71419  0.18911  0.58561  Biso   1.000  Zn
  N22      1.0000 0.74832  0.34760  0.65140  Biso   1.000  N
  N23      1.0000 0.77597  0.38450  0.59380  Biso   1.000  N
  N24      1.0000 0.77571  0.52690  0.77160  Biso   1.000  N
  O15      1.0000 0.66600  0.22900  0.58230  Biso   1.000  O
  O16      1.0000 0.66866  0.40240  0.45080  Biso   1.000  O
  C85      1.0000 0.65240  0.32930  0.51020  Biso   1.000  C
  C86      1.0000 0.61553  0.36460  0.51400  Biso   1.000  C
  C87      1.0000 0.59809  0.28890  0.59050  Biso   1.000  C
  H78      1.0000 0.60870  0.21150  0.64170  Biso   1.000  H
  C88      1.0000 0.59910  0.47610  0.44290  Biso   1.000  C
  H79      1.0000 0.61090  0.53460  0.39150  Biso   1.000  H
  C89      1.0000 0.56400  0.50520  0.44570  Biso   1.000  C
  H80      1.0000 0.55290  0.58130  0.39380  Biso   1.000  H
  C90      1.0000 0.56400  0.32380  0.59520  Biso   1.000  C
  H81      1.0000 0.55310  0.27150  0.65450  Biso   1.000  H
  C91      1.0000 0.54629  0.42620  0.52110  Biso   1.000  C
  C92      1.0000 0.50985  0.45300  0.52740  Biso   1.000  C
  H82      1.0000 0.50040  0.38860  0.58140  Biso   1.000  H
  C93      1.0000 0.79185  0.49160  0.66800  Biso   1.000  C
  C94      1.0000 0.82344  0.56060  0.63750  Biso   1.000  C
  H83      1.0000 0.81700  0.64560  0.58330  Biso   1.000  H
  H84      1.0000 0.83890  0.58570  0.72310  Biso   1.000  H
  H85      1.0000 0.83490  0.49520  0.58650  Biso   1.000  H
  C95      1.0000 0.74892  0.43450  0.75600  Biso   1.000  C
  C96      1.0000 0.72331  0.42770  0.84770  Biso   1.000  C
  H86      1.0000 0.73450  0.39230  0.93730  Biso   1.000  H
  H87      1.0000 0.71430  0.52190  0.85740  Biso   1.000  H
  H88      1.0000 0.70470  0.36470  0.80760  Biso   1.000  H
