data_image0
_cell_length_a       38.503
_cell_length_b       9.4511
_cell_length_c       9.8023
_cell_angle_alpha    90
_cell_angle_beta     100.578
_cell_angle_gamma    90

_symmetry_space_group_name_H-M    "P 1"
_symmetry_int_tables_number       1

loop_
  _symmetry_equiv_pos_as_xyz
  'x, y, z'

loop_
  _atom_site_label
  _atom_site_occupancy
  _atom_site_fract_x
  _atom_site_fract_y
  _atom_site_fract_z
  _atom_site_thermal_displace_type
  _atom_site_B_iso_or_equiv
  _atom_site_type_symbol
  Zn1      1.0000 0.21400  0.18806  0.09078  Biso   1.000  Zn
  N1       1.0000 0.24843  0.34540  0.15360  Biso   1.000  N
  N2       1.0000 0.27630  0.38400  0.09120  Biso   1.000  N
  N3       1.0000 0.27621  0.52610  0.27020  Biso   1.000  N
  O1       1.0000 0.16480  0.22660  0.09150  Biso   1.000  O
  O2       1.0000 0.16700  0.39400  0.94920  Biso   1.000  O
  C1       1.0000 0.24891  0.43100  0.25830  Biso   1.000  C
  C2       1.0000 0.29230  0.49220  0.16440  Biso   1.000  C
  C3       1.0000 0.22320  0.42250  0.35620  Biso   1.000  C
  H1       1.0000 0.20070  0.39030  0.30680  Biso   1.000  H
  H2       1.0000 0.22050  0.51440  0.39470  Biso   1.000  H
  H3       1.0000 0.23190  0.35740  0.42970  Biso   1.000  H
  C4       1.0000 0.32340  0.56330  0.12640  Biso   1.000  C
  H4       1.0000 0.33410  0.50230  0.06760  Biso   1.000  H
  H5       1.0000 0.34020  0.58420  0.20900  Biso   1.000  H
  H6       1.0000 0.31610  0.64970  0.07800  Biso   1.000  H
  C5       1.0000 0.15100  0.32510  0.01660  Biso   1.000  C
  C6       1.0000 0.11240  0.35840  0.01880  Biso   1.000  C
  C7       1.0000 0.09600  0.46220  0.93490  Biso   1.000  C
  H7       1.0000 0.10800  0.50870  0.87370  Biso   1.000  H
  C8       1.0000 0.09430  0.28150  0.09760  Biso   1.000  C
  H8       1.0000 0.10530  0.20680  0.15040  Biso   1.000  H
  C9       1.0000 0.05890  0.31340  0.10060  Biso   1.000  C
  H9       1.0000 0.04660  0.26080  0.15620  Biso   1.000  H
  C10      1.0000 0.06090  0.49930  0.94100  Biso   1.000  C
  H10      1.0000 0.05010  0.57580  0.89060  Biso   1.000  H
  C11      1.0000 0.04290  0.42010  0.02300  Biso   1.000  C
  N4       1.0000 0.00650  0.44660  0.03160  Biso   1.000  N
  Zn2      1.0000 0.71400  0.68806  0.09078  Biso   1.000  Zn
  N5       1.0000 0.74843  0.84540  0.15360  Biso   1.000  N
  N6       1.0000 0.77630  0.88400  0.09120  Biso   1.000  N
  N7       1.0000 0.77621  0.02610  0.27020  Biso   1.000  N
  O3       1.0000 0.66480  0.72660  0.09150  Biso   1.000  O
  O4       1.0000 0.66700  0.89400  0.94920  Biso   1.000  O
  C12      1.0000 0.74891  0.93100  0.25830  Biso   1.000  C
  C13      1.0000 0.79230  0.99220  0.16440  Biso   1.000  C
  C14      1.0000 0.72320  0.92250  0.35620  Biso   1.000  C
  H11      1.0000 0.70070  0.89030  0.30680  Biso   1.000  H
  H12      1.0000 0.72050  0.01440  0.39470  Biso   1.000  H
  H13      1.0000 0.73190  0.85740  0.42970  Biso   1.000  H
  C15      1.0000 0.82340  0.06330  0.12640  Biso   1.000  C
  H14      1.0000 0.83410  0.00230  0.06760  Biso   1.000  H
  H15      1.0000 0.84020  0.08420  0.20900  Biso   1.000  H
  H16      1.0000 0.81610  0.14970  0.07800  Biso   1.000  H
  C16      1.0000 0.65100  0.82510  0.01660  Biso   1.000  C
  C17      1.0000 0.61240  0.85840  0.01880  Biso   1.000  C
  C18      1.0000 0.59600  0.96220  0.93490  Biso   1.000  C
  H17      1.0000 0.60800  0.00870  0.87370  Biso   1.000  H
  C19      1.0000 0.59430  0.78150  0.09760  Biso   1.000  C
  H18      1.0000 0.60530  0.70680  0.15040  Biso   1.000  H
  C20      1.0000 0.55890  0.81340  0.10060  Biso   1.000  C
  H19      1.0000 0.54660  0.76080  0.15620  Biso   1.000  H
  C21      1.0000 0.56090  0.99930  0.94100  Biso   1.000  C
  H20      1.0000 0.55010  0.07580  0.89060  Biso   1.000  H
  C22      1.0000 0.54290  0.92010  0.02300  Biso   1.000  C
  N8       1.0000 0.50650  0.94660  0.03160  Biso   1.000  N
  Zn3      1.0000 0.78600  0.18806  0.40922  Biso   1.000  Zn
  N9       1.0000 0.75157  0.34540  0.34640  Biso   1.000  N
  N10      1.0000 0.72370  0.38400  0.40880  Biso   1.000  N
  N11      1.0000 0.72379  0.52610  0.22980  Biso   1.000  N
  O5       1.0000 0.83520  0.22660  0.40850  Biso   1.000  O
  O6       1.0000 0.83300  0.39400  0.55080  Biso   1.000  O
  C23      1.0000 0.75109  0.43100  0.24170  Biso   1.000  C
  C24      1.0000 0.70770  0.49220  0.33560  Biso   1.000  C
  C25      1.0000 0.77680  0.42250  0.14380  Biso   1.000  C
  H21      1.0000 0.79930  0.39030  0.19320  Biso   1.000  H
  H22      1.0000 0.77950  0.51440  0.10530  Biso   1.000  H
  H23      1.0000 0.76810  0.35740  0.07030  Biso   1.000  H
  C26      1.0000 0.67660  0.56330  0.37360  Biso   1.000  C
  H24      1.0000 0.66590  0.50230  0.43240  Biso   1.000  H
  H25      1.0000 0.65980  0.58420  0.29100  Biso   1.000  H
  H26      1.0000 0.68390  0.64970  0.42200  Biso   1.000  H
  C27      1.0000 0.84900  0.32510  0.48340  Biso   1.000  C
  C28      1.0000 0.88760  0.35840  0.48120  Biso   1.000  C
  C29      1.0000 0.90400  0.46220  0.56510  Biso   1.000  C
  H27      1.0000 0.89200  0.50870  0.62630  Biso   1.000  H
  C30      1.0000 0.90570  0.28150  0.40240  Biso   1.000  C
  H28      1.0000 0.89470  0.20680  0.34960  Biso   1.000  H
  C31      1.0000 0.94110  0.31340  0.39940  Biso   1.000  C
  H29      1.0000 0.95340  0.26080  0.34380  Biso   1.000  H
  C32      1.0000 0.93910  0.49930  0.55900  Biso   1.000  C
  H30      1.0000 0.94990  0.57580  0.60940  Biso   1.000  H
  C33      1.0000 0.95710  0.42010  0.47700  Biso   1.000  C
  N12      1.0000 0.99350  0.44660  0.46840  Biso   1.000  N
  Zn4      1.0000 0.28600  0.68806  0.40922  Biso   1.000  Zn
  N13      1.0000 0.25157  0.84540  0.34640  Biso   1.000  N
  N14      1.0000 0.22370  0.88400  0.40880  Biso   1.000  N
  N15      1.0000 0.22379  0.02610  0.22980  Biso   1.000  N
  O7       1.0000 0.33520  0.72660  0.40850  Biso   1.000  O
  O8       1.0000 0.33300  0.89400  0.55080  Biso   1.000  O
  C34      1.0000 0.25109  0.93100  0.24170  Biso   1.000  C
  C35      1.0000 0.20770  0.99220  0.33560  Biso   1.000  C
  C36      1.0000 0.27680  0.92250  0.14380  Biso   1.000  C
  H31      1.0000 0.29930  0.89030  0.19320  Biso   1.000  H
  H32      1.0000 0.27950  0.01440  0.10530  Biso   1.000  H
  H33      1.0000 0.26810  0.85740  0.07030  Biso   1.000  H
  C37      1.0000 0.17660  0.06330  0.37360  Biso   1.000  C
  H34      1.0000 0.16590  0.00230  0.43240  Biso   1.000  H
  H35      1.0000 0.15980  0.08420  0.29100  Biso   1.000  H
  H36      1.0000 0.18390  0.14970  0.42200  Biso   1.000  H
  C38      1.0000 0.34900  0.82510  0.48340  Biso   1.000  C
  C39      1.0000 0.38760  0.85840  0.48120  Biso   1.000  C
  C40      1.0000 0.40400  0.96220  0.56510  Biso   1.000  C
  H37      1.0000 0.39200  0.00870  0.62630  Biso   1.000  H
  C41      1.0000 0.40570  0.78150  0.40240  Biso   1.000  C
  H38      1.0000 0.39470  0.70680  0.34960  Biso   1.000  H
  C42      1.0000 0.44110  0.81340  0.39940  Biso   1.000  C
  H39      1.0000 0.45340  0.76080  0.34380  Biso   1.000  H
  C43      1.0000 0.43910  0.99930  0.55900  Biso   1.000  C
  H40      1.0000 0.44990  0.07580  0.60940  Biso   1.000  H
  C44      1.0000 0.45710  0.92010  0.47700  Biso   1.000  C
  N16      1.0000 0.49350  0.94660  0.46840  Biso   1.000  N
  Zn5      1.0000 0.78600  0.81194  0.90922  Biso   1.000  Zn
  N17      1.0000 0.75157  0.65460  0.84640  Biso   1.000  N
  N18      1.0000 0.72370  0.61600  0.90880  Biso   1.000  N
  N19      1.0000 0.72379  0.47390  0.72980  Biso   1.000  N
  O9       1.0000 0.83520  0.77340  0.90850  Biso   1.000  O
  O10      1.0000 0.83300  0.60600  0.05080  Biso   1.000  O
  C45      1.0000 0.75109  0.56900  0.74170  Biso   1.000  C
  C46      1.0000 0.70770  0.50780  0.83560  Biso   1.000  C
  C47      1.0000 0.77680  0.57750  0.64380  Biso   1.000  C
  H41      1.0000 0.79930  0.60970  0.69320  Biso   1.000  H
  H42      1.0000 0.77950  0.48560  0.60530  Biso   1.000  H
  H43      1.0000 0.76810  0.64260  0.57030  Biso   1.000  H
  C48      1.0000 0.67660  0.43670  0.87360  Biso   1.000  C
  H44      1.0000 0.66590  0.49770  0.93240  Biso   1.000  H
  H45      1.0000 0.65980  0.41580  0.79100  Biso   1.000  H
  H46      1.0000 0.68390  0.35030  0.92200  Biso   1.000  H
  C49      1.0000 0.84900  0.67490  0.98340  Biso   1.000  C
  C50      1.0000 0.88760  0.64160  0.98120  Biso   1.000  C
  C51      1.0000 0.90400  0.53780  0.06510  Biso   1.000  C
  H47      1.0000 0.89200  0.49130  0.12630  Biso   1.000  H
  C52      1.0000 0.90570  0.71850  0.90240  Biso   1.000  C
  H48      1.0000 0.89470  0.79320  0.84960  Biso   1.000  H
  C53      1.0000 0.94110  0.68660  0.89940  Biso   1.000  C
  H49      1.0000 0.95340  0.73920  0.84380  Biso   1.000  H
  C54      1.0000 0.93910  0.50070  0.05900  Biso   1.000  C
  H50      1.0000 0.94990  0.42420  0.10940  Biso   1.000  H
  C55      1.0000 0.95710  0.57990  0.97700  Biso   1.000  C
  N20      1.0000 0.99350  0.55340  0.96840  Biso   1.000  N
  Zn6      1.0000 0.28600  0.31194  0.90922  Biso   1.000  Zn
  N21      1.0000 0.25157  0.15460  0.84640  Biso   1.000  N
  N22      1.0000 0.22370  0.11600  0.90880  Biso   1.000  N
  N23      1.0000 0.22379  0.97390  0.72980  Biso   1.000  N
  O11      1.0000 0.33520  0.27340  0.90850  Biso   1.000  O
  O12      1.0000 0.33300  0.10600  0.05080  Biso   1.000  O
  C56      1.0000 0.25109  0.06900  0.74170  Biso   1.000  C
  C57      1.0000 0.20770  0.00780  0.83560  Biso   1.000  C
  C58      1.0000 0.27680  0.07750  0.64380  Biso   1.000  C
  H51      1.0000 0.29930  0.10970  0.69320  Biso   1.000  H
  H52      1.0000 0.27950  0.98560  0.60530  Biso   1.000  H
  H53      1.0000 0.26810  0.14260  0.57030  Biso   1.000  H
  C59      1.0000 0.17660  0.93670  0.87360  Biso   1.000  C
  H54      1.0000 0.16590  0.99770  0.93240  Biso   1.000  H
  H55      1.0000 0.15980  0.91580  0.79100  Biso   1.000  H
  H56      1.0000 0.18390  0.85030  0.92200  Biso   1.000  H
  C60      1.0000 0.34900  0.17490  0.98340  Biso   1.000  C
  C61      1.0000 0.38760  0.14160  0.98120  Biso   1.000  C
  C62      1.0000 0.40400  0.03780  0.06510  Biso   1.000  C
  H57      1.0000 0.39200  0.99130  0.12630  Biso   1.000  H
  C63      1.0000 0.40570  0.21850  0.90240  Biso   1.000  C
  H58      1.0000 0.39470  0.29320  0.84960  Biso   1.000  H
  C64      1.0000 0.44110  0.18660  0.89940  Biso   1.000  C
  H59      1.0000 0.45340  0.23920  0.84380  Biso   1.000  H
  C65      1.0000 0.43910  0.00070  0.05900  Biso   1.000  C
  H60      1.0000 0.44990  0.92420  0.10940  Biso   1.000  H
  C66      1.0000 0.45710  0.07990  0.97700  Biso   1.000  C
  N24      1.0000 0.49350  0.05340  0.96840  Biso   1.000  N
  Zn7      1.0000 0.21400  0.81194  0.59078  Biso   1.000  Zn
  N25      1.0000 0.24843  0.65460  0.65360  Biso   1.000  N
  N26      1.0000 0.27630  0.61600  0.59120  Biso   1.000  N
  N27      1.0000 0.27621  0.47390  0.77020  Biso   1.000  N
  O13      1.0000 0.16480  0.77340  0.59150  Biso   1.000  O
  O14      1.0000 0.16700  0.60600  0.44920  Biso   1.000  O
  C67      1.0000 0.24891  0.56900  0.75830  Biso   1.000  C
  C68      1.0000 0.29230  0.50780  0.66440  Biso   1.000  C
  C69      1.0000 0.22320  0.57750  0.85620  Biso   1.000  C
  H61      1.0000 0.20070  0.60970  0.80680  Biso   1.000  H
  H62      1.0000 0.22050  0.48560  0.89470  Biso   1.000  H
  H63      1.0000 0.23190  0.64260  0.92970  Biso   1.000  H
  C70      1.0000 0.32340  0.43670  0.62640  Biso   1.000  C
  H64      1.0000 0.33410  0.49770  0.56760  Biso   1.000  H
  H65      1.0000 0.34020  0.41580  0.70900  Biso   1.000  H
  H66      1.0000 0.31610  0.35030  0.57800  Biso   1.000  H
  C71      1.0000 0.15100  0.67490  0.51660  Biso   1.000  C
  C72      1.0000 0.11240  0.64160  0.51880  Biso   1.000  C
  C73      1.0000 0.09600  0.53780  0.43490  Biso   1.000  C
  H67      1.0000 0.10800  0.49130  0.37370  Biso   1.000  H
  C74      1.0000 0.09430  0.71850  0.59760  Biso   1.000  C
  H68      1.0000 0.10530  0.79320  0.65040  Biso   1.000  H
  C75      1.0000 0.05890  0.68660  0.60060  Biso   1.000  C
  H69      1.0000 0.04660  0.73920  0.65620  Biso   1.000  H
  C76      1.0000 0.06090  0.50070  0.44100  Biso   1.000  C
  H70      1.0000 0.05010  0.42420  0.39060  Biso   1.000  H
  C77      1.0000 0.04290  0.57990  0.52300  Biso   1.000  C
  N28      1.0000 0.00650  0.55340  0.53160  Biso   1.000  N
  Zn8      1.0000 0.71400  0.31194  0.59078  Biso   1.000  Zn
  N29      1.0000 0.74843  0.15460  0.65360  Biso   1.000  N
  N30      1.0000 0.77630  0.11600  0.59120  Biso   1.000  N
  N31      1.0000 0.77621  0.97390  0.77020  Biso   1.000  N
  O15      1.0000 0.66480  0.27340  0.59150  Biso   1.000  O
  O16      1.0000 0.66700  0.10600  0.44920  Biso   1.000  O
  C78      1.0000 0.74891  0.06900  0.75830  Biso   1.000  C
  C79      1.0000 0.79230  0.00780  0.66440  Biso   1.000  C
  C80      1.0000 0.72320  0.07750  0.85620  Biso   1.000  C
  H71      1.0000 0.70070  0.10970  0.80680  Biso   1.000  H
  H72      1.0000 0.72050  0.98560  0.89470  Biso   1.000  H
  H73      1.0000 0.73190  0.14260  0.92970  Biso   1.000  H
  C81      1.0000 0.82340  0.93670  0.62640  Biso   1.000  C
  H74      1.0000 0.83410  0.99770  0.56760  Biso   1.000  H
  H75      1.0000 0.84020  0.91580  0.70900  Biso   1.000  H
  H76      1.0000 0.81610  0.85030  0.57800  Biso   1.000  H
  C82      1.0000 0.65100  0.17490  0.51660  Biso   1.000  C
  C83      1.0000 0.61240  0.14160  0.51880  Biso   1.000  C
  C84      1.0000 0.59600  0.03780  0.43490  Biso   1.000  C
  H77      1.0000 0.60800  0.99130  0.37370  Biso   1.000  H
  C85      1.0000 0.59430  0.21850  0.59760  Biso   1.000  C
  H78      1.0000 0.60530  0.29320  0.65040  Biso   1.000  H
  C86      1.0000 0.55890  0.18660  0.60060  Biso   1.000  C
  H79      1.0000 0.54660  0.23920  0.65620  Biso   1.000  H
  C87      1.0000 0.56090  0.00070  0.44100  Biso   1.000  C
  H80      1.0000 0.55010  0.92420  0.39060  Biso   1.000  H
  C88      1.0000 0.54290  0.07990  0.52300  Biso   1.000  C
  N32      1.0000 0.50650  0.05340  0.53160  Biso   1.000  N
