data_image0
_cell_length_a       14.83
_cell_length_b       18.7615
_cell_length_c       33.92
_cell_angle_alpha    105.077
_cell_angle_beta     90
_cell_angle_gamma    113.28

_symmetry_space_group_name_H-M    P 1
_symmetry_int_tables_number       1

loop_
  _symmetry_equiv_pos_as_xyz
  'x, y, z'

loop_
  _atom_site_label
  _atom_site_occupancy
  _atom_site_fract_x
  _atom_site_fract_y
  _atom_site_fract_z
  _atom_site_thermal_displace_type
  _atom_site_B_iso_or_equiv
  _atom_site_type_symbol
  Zn1      1.0000 0.03358  0.23104  0.56369  Biso   1.000  Zn
  Zn2      1.0000 0.97168  0.65802  0.73262  Biso   1.000  Zn
  Zn3      1.0000 0.26162  0.75328  0.92498  Biso   1.000  Zn
  Zn4      1.0000 0.19746  0.23104  0.06369  Biso   1.000  Zn
  Zn5      1.0000 0.68634  0.65802  0.23262  Biso   1.000  Zn
  Zn6      1.0000 0.49166  0.75328  0.42498  Biso   1.000  Zn
  H1       1.0000 0.24960  0.30120  0.58570  Biso   1.000  H
  H2       1.0000 0.37350  0.40740  0.63190  Biso   1.000  H
  H3       1.0000 0.16960  0.46980  0.68850  Biso   1.000  H
  H4       1.0000 0.05080  0.36340  0.64070  Biso   1.000  H
  H5       1.0000 0.83710  0.71860  0.77970  Biso   1.000  H
  H6       1.0000 0.67200  0.69700  0.77700  Biso   1.000  H
  H7       1.0000 0.61690  0.53200  0.66810  Biso   1.000  H
  H8       1.0000 0.78840  0.56060  0.67260  Biso   1.000  H
  H9       1.0000 0.17320  0.66000  0.83870  Biso   1.000  H
  H10      1.0000 0.21760  0.59100  0.77790  Biso   1.000  H
  H11      1.0000 0.50240  0.72480  0.82390  Biso   1.000  H
  H12      1.0000 0.45080  0.77560  0.88410  Biso   1.000  H
  H13      1.0000 0.35480  0.67560  0.97000  Biso   1.000  H
  H14      1.0000 0.48770  0.70820  0.01540  Biso   1.000  H
  H15      1.0000 0.59250  0.94120  0.00690  Biso   1.000  H
  H16      1.0000 0.44180  0.89020  0.95860  Biso   1.000  H
  H17      1.0000 0.11430  0.11880  0.11220  Biso   1.000  H
  H18      1.0000 0.96820  0.01620  0.11990  Biso   1.000  H
  H19      1.0000 0.85910  0.00720  0.00890  Biso   1.000  H
  H20      1.0000 0.99980  0.11900  0.00950  Biso   1.000  H
  H21      1.0000 0.59670  0.62120  0.14390  Biso   1.000  H
  H22      1.0000 0.61300  0.67820  0.09200  Biso   1.000  H
  H23      1.0000 0.82670  0.87960  0.16550  Biso   1.000  H
  H24      1.0000 0.79390  0.82380  0.21650  Biso   1.000  H
  H25      1.0000 0.05160  0.30120  0.08570  Biso   1.000  H
  H26      1.0000 0.03390  0.40740  0.13190  Biso   1.000  H
  H27      1.0000 0.30020  0.46980  0.18850  Biso   1.000  H
  H28      1.0000 0.31260  0.36340  0.14070  Biso   1.000  H
  H29      1.0000 0.88150  0.71860  0.27970  Biso   1.000  H
  H30      1.0000 0.02500  0.69700  0.27700  Biso   1.000  H
  H31      1.0000 0.91510  0.53200  0.16810  Biso   1.000  H
  H32      1.0000 0.77220  0.56060  0.17260  Biso   1.000  H
  H33      1.0000 0.48680  0.66000  0.33870  Biso   1.000  H
  H34      1.0000 0.37340  0.59100  0.27790  Biso   1.000  H
  H35      1.0000 0.22240  0.72480  0.32390  Biso   1.000  H
  H36      1.0000 0.32480  0.77560  0.38410  Biso   1.000  H
  H37      1.0000 0.32080  0.67560  0.47000  Biso   1.000  H
  H38      1.0000 0.22050  0.70820  0.51540  Biso   1.000  H
  H39      1.0000 0.34870  0.94120  0.50690  Biso   1.000  H
  H40      1.0000 0.44840  0.89020  0.45860  Biso   1.000  H
  H41      1.0000 0.00450  0.11880  0.61220  Biso   1.000  H
  H42      1.0000 0.04800  0.01620  0.61990  Biso   1.000  H
  H43      1.0000 0.14810  0.00720  0.50890  Biso   1.000  H
  H44      1.0000 0.11920  0.11900  0.50950  Biso   1.000  H
  H45      1.0000 0.02450  0.62120  0.64390  Biso   1.000  H
  H46      1.0000 0.06520  0.67820  0.59200  Biso   1.000  H
  H47      1.0000 0.05290  0.87960  0.66550  Biso   1.000  H
  H48      1.0000 0.02990  0.82380  0.71650  Biso   1.000  H
  C1       1.0000 0.23210  0.33640  0.60680  Biso   1.000  C
  C2       1.0000 0.30680  0.39960  0.63470  Biso   1.000  C
  C3       1.0000 0.28580  0.45140  0.66630  Biso   1.000  C
  C4       1.0000 0.18900  0.43600  0.66740  Biso   1.000  C
  C5       1.0000 0.11820  0.37260  0.63870  Biso   1.000  C
  C6       1.0000 0.35810  0.51340  0.69740  Biso   1.000  C
  C7       1.0000 0.79150  0.67800  0.75740  Biso   1.000  C
  C8       1.0000 0.69300  0.66540  0.75550  Biso   1.000  C
  C9       1.0000 0.62490  0.60880  0.72360  Biso   1.000  C
  C10      1.0000 0.65990  0.56940  0.69190  Biso   1.000  C
  C11      1.0000 0.76290  0.58580  0.69510  Biso   1.000  C
  C12      1.0000 0.51770  0.59120  0.72370  Biso   1.000  C
  C13      1.0000 0.24060  0.66940  0.83670  Biso   1.000  C
  C14      1.0000 0.26740  0.63140  0.79900  Biso   1.000  C
  C15      1.0000 0.36550  0.65360  0.79360  Biso   1.000  C
  C16      1.0000 0.43380  0.70800  0.82630  Biso   1.000  C
  C17      1.0000 0.40200  0.73760  0.86210  Biso   1.000  C
  C18      1.0000 0.39920  0.61360  0.75730  Biso   1.000  C
  C19      1.0000 0.40290  0.72980  0.97810  Biso   1.000  C
  C20      1.0000 0.48210  0.74800  0.00420  Biso   1.000  C
  C21      1.0000 0.55710  0.82820  0.01460  Biso   1.000  C
  C22      1.0000 0.54590  0.88640  0.99970  Biso   1.000  C
  C23      1.0000 0.45330  0.85460  0.97140  Biso   1.000  C
  C24      1.0000 0.64690  0.85080  0.04220  Biso   1.000  C
  C25      1.0000 0.05900  0.09860  0.09210  Biso   1.000  C
  C26      1.0000 0.97380  0.03540  0.09630  Biso   1.000  C
  C27      1.0000 0.89710  0.00160  0.06460  Biso   1.000  C
  C28      1.0000 0.90880  0.03140  0.03170  Biso   1.000  C
  C29      1.0000 0.99380  0.09720  0.03210  Biso   1.000  C
  C30      1.0000 0.80540  0.93300  0.06590  Biso   1.000  C
  C31      1.0000 0.64460  0.67500  0.14820  Biso   1.000  C
  C32      1.0000 0.65100  0.70800  0.11800  Biso   1.000  C
  C33      1.0000 0.71880  0.79200  0.12640  Biso   1.000  C
  C34      1.0000 0.77490  0.82740  0.16110  Biso   1.000  C
  C35      1.0000 0.76080  0.79160  0.18990  Biso   1.000  C
  C36      1.0000 0.71870  0.83400  0.09510  Biso   1.000  C
  C37      1.0000 0.10430  0.33640  0.10680  Biso   1.000  C
  C38      1.0000 0.09280  0.39960  0.13470  Biso   1.000  C
  C39      1.0000 0.16560  0.45140  0.16630  Biso   1.000  C
  C40      1.0000 0.24700  0.43600  0.16740  Biso   1.000  C
  C41      1.0000 0.25440  0.37260  0.13870  Biso   1.000  C
  C42      1.0000 0.15530  0.51340  0.19740  Biso   1.000  C
  C43      1.0000 0.88650  0.67800  0.25740  Biso   1.000  C
  C44      1.0000 0.97240  0.66540  0.25550  Biso   1.000  C
  C45      1.0000 0.98390  0.60880  0.22360  Biso   1.000  C
  C46      1.0000 0.90950  0.56940  0.19190  Biso   1.000  C
  C47      1.0000 0.82290  0.58580  0.19510  Biso   1.000  C
  C48      1.0000 0.07350  0.59120  0.22370  Biso   1.000  C
  C49      1.0000 0.42880  0.66940  0.33670  Biso   1.000  C
  C50      1.0000 0.36400  0.63140  0.29900  Biso   1.000  C
  C51      1.0000 0.28810  0.65360  0.29360  Biso   1.000  C
  C52      1.0000 0.27420  0.70800  0.32630  Biso   1.000  C
  C53      1.0000 0.33560  0.73760  0.36210  Biso   1.000  C
  C54      1.0000 0.21440  0.61360  0.25730  Biso   1.000  C
  C55      1.0000 0.32690  0.72980  0.47810  Biso   1.000  C
  C56      1.0000 0.26590  0.74800  0.50420  Biso   1.000  C
  C57      1.0000 0.27110  0.82820  0.51460  Biso   1.000  C
  C58      1.0000 0.34050  0.88640  0.49970  Biso   1.000  C
  C59      1.0000 0.40130  0.85460  0.47140  Biso   1.000  C
  C60      1.0000 0.20390  0.85080  0.54220  Biso   1.000  C
  C61      1.0000 0.03960  0.09860  0.59210  Biso   1.000  C
  C62      1.0000 0.06160  0.03540  0.59630  Biso   1.000  C
  C63      1.0000 0.10450  0.00160  0.56460  Biso   1.000  C
  C64      1.0000 0.12260  0.03140  0.53170  Biso   1.000  C
  C65      1.0000 0.10340  0.09720  0.53210  Biso   1.000  C
  C66      1.0000 0.12760  0.93300  0.56590  Biso   1.000  C
  C67      1.0000 0.03040  0.67500  0.64820  Biso   1.000  C
  C68      1.0000 0.05700  0.70800  0.61800  Biso   1.000  C
  C69      1.0000 0.07320  0.79200  0.62640  Biso   1.000  C
  C70      1.0000 0.05250  0.82740  0.66110  Biso   1.000  C
  C71      1.0000 0.03080  0.79160  0.68990  Biso   1.000  C
  C72      1.0000 0.11530  0.83400  0.59510  Biso   1.000  C
  I1       1.0000 0.07195  0.26904  0.49721  Biso   1.000  I
  I2       1.0000 0.86970  0.20252  0.59286  Biso   1.000  I
  I3       1.0000 0.00291  0.53132  0.71000  Biso   1.000  I
  I4       1.0000 0.04934  0.75762  0.80261  Biso   1.000  I
  I5       1.0000 0.12313  0.62800  0.93812  Biso   1.000  I
  I6       1.0000 0.24033  0.87566  0.92441  Biso   1.000  I
  I7       1.0000 0.19709  0.26904  0.99721  Biso   1.000  I
  I8       1.0000 0.33282  0.20252  0.09286  Biso   1.000  I
  I9       1.0000 0.52841  0.53132  0.21000  Biso   1.000  I
  I10      1.0000 0.70828  0.75762  0.30261  Biso   1.000  I
  I11      1.0000 0.50487  0.62800  0.43812  Biso   1.000  I
  I12      1.0000 0.63533  0.87566  0.42441  Biso   1.000  I
  N1       1.0000 0.13990  0.32260  0.60770  Biso   1.000  N
  N2       1.0000 0.82280  0.63420  0.72830  Biso   1.000  N
  N3       1.0000 0.30630  0.71660  0.86850  Biso   1.000  N
  N4       1.0000 0.45830  0.53100  0.69240  Biso   1.000  N
  N5       1.0000 0.49330  0.63680  0.75550  Biso   1.000  N
  N6       1.0000 0.32970  0.55520  0.72940  Biso   1.000  N
  N7       1.0000 0.38870  0.78180  0.96340  Biso   1.000  N
  N8       1.0000 0.06810  0.13220  0.06210  Biso   1.000  N
  N9       1.0000 0.70200  0.71240  0.18560  Biso   1.000  N
  N10      1.0000 0.72860  0.91280  0.03900  Biso   1.000  N
  N11      1.0000 0.80670  0.89820  0.09590  Biso   1.000  N
  N12      1.0000 0.63980  0.80940  0.06890  Biso   1.000  N
  N13      1.0000 0.18270  0.32260  0.10770  Biso   1.000  N
  N14      1.0000 0.81140  0.63420  0.22830  Biso   1.000  N
  N15      1.0000 0.41030  0.71660  0.36850  Biso   1.000  N
  N16      1.0000 0.07270  0.53100  0.19240  Biso   1.000  N
  N17      1.0000 0.14350  0.63680  0.25550  Biso   1.000  N
  N18      1.0000 0.22550  0.55520  0.22940  Biso   1.000  N
  N19      1.0000 0.39310  0.78180  0.46340  Biso   1.000  N
  N20      1.0000 0.06410  0.13220  0.56210  Biso   1.000  N
  N21      1.0000 0.01040  0.71240  0.68560  Biso   1.000  N
  N22      1.0000 0.18420  0.91280  0.53900  Biso   1.000  N
  N23      1.0000 0.09150  0.89820  0.59590  Biso   1.000  N
  N24      1.0000 0.16960  0.80940  0.56890  Biso   1.000  N
  Zn7      1.0000 0.80254  0.76896  0.93631  Biso   1.000  Zn
  Zn8      1.0000 0.31366  0.34198  0.76738  Biso   1.000  Zn
  Zn9      1.0000 0.50834  0.24672  0.57502  Biso   1.000  Zn
  Zn10     1.0000 0.96642  0.76896  0.43631  Biso   1.000  Zn
  Zn11     1.0000 0.02832  0.34198  0.26738  Biso   1.000  Zn
  Zn12     1.0000 0.73838  0.24672  0.07502  Biso   1.000  Zn
  H49      1.0000 0.94840  0.69880  0.91430  Biso   1.000  H
  H50      1.0000 0.96610  0.59260  0.86810  Biso   1.000  H
  H51      1.0000 0.69980  0.53020  0.81150  Biso   1.000  H
  H52      1.0000 0.68740  0.63660  0.85930  Biso   1.000  H
  H53      1.0000 0.11850  0.28140  0.72030  Biso   1.000  H
  H54      1.0000 0.97500  0.30300  0.72300  Biso   1.000  H
  H55      1.0000 0.08490  0.46800  0.83190  Biso   1.000  H
  H56      1.0000 0.22780  0.43940  0.82740  Biso   1.000  H
  H57      1.0000 0.51320  0.34000  0.66130  Biso   1.000  H
  H58      1.0000 0.62660  0.40900  0.72210  Biso   1.000  H
  H59      1.0000 0.77760  0.27520  0.67610  Biso   1.000  H
  H60      1.0000 0.67520  0.22440  0.61590  Biso   1.000  H
  H61      1.0000 0.67920  0.32440  0.53000  Biso   1.000  H
  H62      1.0000 0.77950  0.29180  0.48460  Biso   1.000  H
  H63      1.0000 0.65130  0.05880  0.49310  Biso   1.000  H
  H64      1.0000 0.55160  0.10980  0.54140  Biso   1.000  H
  H65      1.0000 0.99550  0.88120  0.38780  Biso   1.000  H
  H66      1.0000 0.95200  0.98380  0.38010  Biso   1.000  H
  H67      1.0000 0.85190  0.99280  0.49110  Biso   1.000  H
  H68      1.0000 0.88080  0.88100  0.49050  Biso   1.000  H
  H69      1.0000 0.97550  0.37880  0.35610  Biso   1.000  H
  H70      1.0000 0.93480  0.32180  0.40800  Biso   1.000  H
  H71      1.0000 0.94710  0.12040  0.33450  Biso   1.000  H
  H72      1.0000 0.97010  0.17620  0.28350  Biso   1.000  H
  H73      1.0000 0.75040  0.69880  0.41430  Biso   1.000  H
  H74      1.0000 0.62650  0.59260  0.36810  Biso   1.000  H
  H75      1.0000 0.83040  0.53020  0.31150  Biso   1.000  H
  H76      1.0000 0.94920  0.63660  0.35930  Biso   1.000  H
  H77      1.0000 0.16290  0.28140  0.22030  Biso   1.000  H
  H78      1.0000 0.32800  0.30300  0.22300  Biso   1.000  H
  H79      1.0000 0.38310  0.46800  0.33190  Biso   1.000  H
  H80      1.0000 0.21160  0.43940  0.32740  Biso   1.000  H
  H81      1.0000 0.82680  0.34000  0.16130  Biso   1.000  H
  H82      1.0000 0.78240  0.40900  0.22210  Biso   1.000  H
  H83      1.0000 0.49760  0.27520  0.17610  Biso   1.000  H
  H84      1.0000 0.54920  0.22440  0.11590  Biso   1.000  H
  H85      1.0000 0.64520  0.32440  0.03000  Biso   1.000  H
  H86      1.0000 0.51230  0.29180  0.98460  Biso   1.000  H
  H87      1.0000 0.40750  0.05880  0.99310  Biso   1.000  H
  H88      1.0000 0.55820  0.10980  0.04140  Biso   1.000  H
  H89      1.0000 0.88570  0.88120  0.88780  Biso   1.000  H
  H90      1.0000 0.03180  0.98380  0.88010  Biso   1.000  H
  H91      1.0000 0.14090  0.99280  0.99110  Biso   1.000  H
  H92      1.0000 0.00020  0.88100  0.99050  Biso   1.000  H
  H93      1.0000 0.40330  0.37880  0.85610  Biso   1.000  H
  H94      1.0000 0.38700  0.32180  0.90800  Biso   1.000  H
  H95      1.0000 0.17330  0.12040  0.83450  Biso   1.000  H
  H96      1.0000 0.20610  0.17620  0.78350  Biso   1.000  H
  C73      1.0000 0.89570  0.66360  0.89320  Biso   1.000  C
  C74      1.0000 0.90720  0.60040  0.86530  Biso   1.000  C
  C75      1.0000 0.83440  0.54860  0.83370  Biso   1.000  C
  C76      1.0000 0.75300  0.56400  0.83260  Biso   1.000  C
  C77      1.0000 0.74560  0.62740  0.86130  Biso   1.000  C
  C78      1.0000 0.84470  0.48660  0.80260  Biso   1.000  C
  C79      1.0000 0.11350  0.32200  0.74260  Biso   1.000  C
  C80      1.0000 0.02760  0.33460  0.74450  Biso   1.000  C
  C81      1.0000 0.01610  0.39120  0.77640  Biso   1.000  C
  C82      1.0000 0.09050  0.43060  0.80810  Biso   1.000  C
  C83      1.0000 0.17710  0.41420  0.80490  Biso   1.000  C
  C84      1.0000 0.92650  0.40880  0.77630  Biso   1.000  C
  C85      1.0000 0.57120  0.33060  0.66330  Biso   1.000  C
  C86      1.0000 0.63600  0.36860  0.70100  Biso   1.000  C
  C87      1.0000 0.71190  0.34640  0.70640  Biso   1.000  C
  C88      1.0000 0.72580  0.29200  0.67370  Biso   1.000  C
  C89      1.0000 0.66440  0.26240  0.63790  Biso   1.000  C
  C90      1.0000 0.78560  0.38640  0.74270  Biso   1.000  C
  C91      1.0000 0.67310  0.27020  0.52190  Biso   1.000  C
  C92      1.0000 0.73410  0.25200  0.49580  Biso   1.000  C
  C93      1.0000 0.72890  0.17180  0.48540  Biso   1.000  C
  C94      1.0000 0.65950  0.11360  0.50030  Biso   1.000  C
  C95      1.0000 0.59870  0.14540  0.52860  Biso   1.000  C
  C96      1.0000 0.79610  0.14920  0.45780  Biso   1.000  C
  C97      1.0000 0.96040  0.90140  0.40790  Biso   1.000  C
  C98      1.0000 0.93840  0.96460  0.40370  Biso   1.000  C
  C99      1.0000 0.89550  0.99840  0.43540  Biso   1.000  C
  C100     1.0000 0.87740  0.96860  0.46830  Biso   1.000  C
  C101     1.0000 0.89660  0.90280  0.46790  Biso   1.000  C
  C102     1.0000 0.87240  0.06700  0.43410  Biso   1.000  C
  C103     1.0000 0.96960  0.32500  0.35180  Biso   1.000  C
  C104     1.0000 0.94300  0.29200  0.38200  Biso   1.000  C
  C105     1.0000 0.92680  0.20800  0.37360  Biso   1.000  C
  C106     1.0000 0.94750  0.17260  0.33890  Biso   1.000  C
  C107     1.0000 0.96920  0.20840  0.31010  Biso   1.000  C
  C108     1.0000 0.88470  0.16600  0.40490  Biso   1.000  C
  C109     1.0000 0.76790  0.66360  0.39320  Biso   1.000  C
  C110     1.0000 0.69320  0.60040  0.36530  Biso   1.000  C
  C111     1.0000 0.71420  0.54860  0.33370  Biso   1.000  C
  C112     1.0000 0.81100  0.56400  0.33260  Biso   1.000  C
  C113     1.0000 0.88180  0.62740  0.36130  Biso   1.000  C
  C114     1.0000 0.64190  0.48660  0.30260  Biso   1.000  C
  C115     1.0000 0.20850  0.32200  0.24260  Biso   1.000  C
  C116     1.0000 0.30700  0.33460  0.24450  Biso   1.000  C
  C117     1.0000 0.37510  0.39120  0.27640  Biso   1.000  C
  C118     1.0000 0.34010  0.43060  0.30810  Biso   1.000  C
  C119     1.0000 0.23710  0.41420  0.30490  Biso   1.000  C
  C120     1.0000 0.48230  0.40880  0.27630  Biso   1.000  C
  C121     1.0000 0.75940  0.33060  0.16330  Biso   1.000  C
  C122     1.0000 0.73260  0.36860  0.20100  Biso   1.000  C
  C123     1.0000 0.63450  0.34640  0.20640  Biso   1.000  C
  C124     1.0000 0.56620  0.29200  0.17370  Biso   1.000  C
  C125     1.0000 0.59800  0.26240  0.13790  Biso   1.000  C
  C126     1.0000 0.60080  0.38640  0.24270  Biso   1.000  C
  C127     1.0000 0.59710  0.27020  0.02190  Biso   1.000  C
  C128     1.0000 0.51790  0.25200  0.99580  Biso   1.000  C
  C129     1.0000 0.44290  0.17180  0.98540  Biso   1.000  C
  C130     1.0000 0.45410  0.11360  0.00030  Biso   1.000  C
  C131     1.0000 0.54670  0.14540  0.02860  Biso   1.000  C
  C132     1.0000 0.35310  0.14920  0.95780  Biso   1.000  C
  C133     1.0000 0.94100  0.90140  0.90790  Biso   1.000  C
  C134     1.0000 0.02620  0.96460  0.90370  Biso   1.000  C
  C135     1.0000 0.10290  0.99840  0.93540  Biso   1.000  C
  C136     1.0000 0.09120  0.96860  0.96830  Biso   1.000  C
  C137     1.0000 0.00620  0.90280  0.96790  Biso   1.000  C
  C138     1.0000 0.19460  0.06700  0.93410  Biso   1.000  C
  C139     1.0000 0.35540  0.32500  0.85180  Biso   1.000  C
  C140     1.0000 0.34900  0.29200  0.88200  Biso   1.000  C
  C141     1.0000 0.28120  0.20800  0.87360  Biso   1.000  C
  C142     1.0000 0.22510  0.17260  0.83890  Biso   1.000  C
  C143     1.0000 0.23920  0.20840  0.81010  Biso   1.000  C
  C144     1.0000 0.28130  0.16600  0.90490  Biso   1.000  C
  I13      1.0000 0.80291  0.73096  0.00279  Biso   1.000  I
  I14      1.0000 0.66718  0.79748  0.90714  Biso   1.000  I
  I15      1.0000 0.47159  0.46868  0.79000  Biso   1.000  I
  I16      1.0000 0.29172  0.24238  0.69739  Biso   1.000  I
  I17      1.0000 0.49513  0.37200  0.56188  Biso   1.000  I
  I18      1.0000 0.36467  0.12434  0.57559  Biso   1.000  I
  I19      1.0000 0.92805  0.73096  0.50279  Biso   1.000  I
  I20      1.0000 0.13030  0.79748  0.40714  Biso   1.000  I
  I21      1.0000 0.99709  0.46868  0.29000  Biso   1.000  I
  I22      1.0000 0.95066  0.24238  0.19739  Biso   1.000  I
  I23      1.0000 0.87687  0.37200  0.06188  Biso   1.000  I
  I24      1.0000 0.75967  0.12434  0.07559  Biso   1.000  I
  N25      1.0000 0.81730  0.67740  0.89230  Biso   1.000  N
  N26      1.0000 0.18860  0.36580  0.77170  Biso   1.000  N
  N27      1.0000 0.58970  0.28340  0.63150  Biso   1.000  N
  N28      1.0000 0.92730  0.46900  0.80760  Biso   1.000  N
  N29      1.0000 0.85650  0.36320  0.74450  Biso   1.000  N
  N30      1.0000 0.77450  0.44480  0.77060  Biso   1.000  N
  N31      1.0000 0.60690  0.21820  0.53660  Biso   1.000  N
  N32      1.0000 0.93590  0.86780  0.43790  Biso   1.000  N
  N33      1.0000 0.98960  0.28760  0.31440  Biso   1.000  N
  N34      1.0000 0.81580  0.08720  0.46100  Biso   1.000  N
  N35      1.0000 0.90850  0.10180  0.40410  Biso   1.000  N
  N36      1.0000 0.83040  0.19060  0.43110  Biso   1.000  N
  N37      1.0000 0.86010  0.67740  0.39230  Biso   1.000  N
  N38      1.0000 0.17720  0.36580  0.27170  Biso   1.000  N
  N39      1.0000 0.69370  0.28340  0.13150  Biso   1.000  N
  N40      1.0000 0.54170  0.46900  0.30760  Biso   1.000  N
  N41      1.0000 0.50670  0.36320  0.24450  Biso   1.000  N
  N42      1.0000 0.67030  0.44480  0.27060  Biso   1.000  N
  N43      1.0000 0.61130  0.21820  0.03660  Biso   1.000  N
  N44      1.0000 0.93190  0.86780  0.93790  Biso   1.000  N
  N45      1.0000 0.29800  0.28760  0.81440  Biso   1.000  N
  N46      1.0000 0.27140  0.08720  0.96100  Biso   1.000  N
  N47      1.0000 0.19330  0.10180  0.90410  Biso   1.000  N
  N48      1.0000 0.36020  0.19060  0.93110  Biso   1.000  N
