data_image0
_cell_length_a       26.9517
_cell_length_b       26.9517
_cell_length_c       13.2369
_cell_angle_alpha    90
_cell_angle_beta     90
_cell_angle_gamma    120

_symmetry_space_group_name_H-M    "P 1"
_symmetry_int_tables_number       1

loop_
  _symmetry_equiv_pos_as_xyz
  'x, y, z'

loop_
  _atom_site_label
  _atom_site_occupancy
  _atom_site_fract_x
  _atom_site_fract_y
  _atom_site_fract_z
  _atom_site_thermal_displace_type
  _atom_site_B_iso_or_equiv
  _atom_site_type_symbol
  N1       1.0000 0.45892  0.40290  0.06190  Biso   1.000  N
  C1       1.0000 0.44910  0.36143  0.99620  Biso   1.000  C
  H1       1.0000 0.46530  0.37210  0.93040  Biso   1.000  H
  C2       1.0000 0.41680  0.30373  0.01890  Biso   1.000  C
  H2       1.0000 0.41150  0.27580  0.96990  Biso   1.000  H
  C3       1.0000 0.39216  0.28694  0.11360  Biso   1.000  C
  C4       1.0000 0.40270  0.32990  0.18210  Biso   1.000  C
  H3       1.0000 0.38700  0.32050  0.24830  Biso   1.000  H
  C5       1.0000 0.43610  0.38680  0.15360  Biso   1.000  C
  H4       1.0000 0.44310  0.41570  0.20190  Biso   1.000  H
  C6       1.0000 0.35907  0.22484  0.14050  Biso   1.000  C
  N2       1.0000 0.12559  0.73623  0.39523  Biso   1.000  N
  C7       1.0000 0.11577  0.69476  0.32953  Biso   1.000  C
  H5       1.0000 0.13197  0.70543  0.26373  Biso   1.000  H
  C8       1.0000 0.08347  0.63706  0.35223  Biso   1.000  C
  H6       1.0000 0.07817  0.60913  0.30323  Biso   1.000  H
  C9       1.0000 0.05883  0.62027  0.44693  Biso   1.000  C
  C10      1.0000 0.06937  0.66323  0.51543  Biso   1.000  C
  H7       1.0000 0.05367  0.65383  0.58163  Biso   1.000  H
  C11      1.0000 0.10277  0.72013  0.48693  Biso   1.000  C
  H8       1.0000 0.10977  0.74903  0.53523  Biso   1.000  H
  C12      1.0000 0.02574  0.55817  0.47383  Biso   1.000  C
  N3       1.0000 0.79225  0.06957  0.72857  Biso   1.000  N
  C13      1.0000 0.78243  0.02810  0.66287  Biso   1.000  C
  H9       1.0000 0.79863  0.03877  0.59707  Biso   1.000  H
  C14      1.0000 0.75013  0.97040  0.68557  Biso   1.000  C
  H10      1.0000 0.74483  0.94247  0.63657  Biso   1.000  H
  C15      1.0000 0.72549  0.95361  0.78027  Biso   1.000  C
  C16      1.0000 0.73603  0.99657  0.84877  Biso   1.000  C
  H11      1.0000 0.72033  0.98717  0.91497  Biso   1.000  H
  C17      1.0000 0.76943  0.05347  0.82027  Biso   1.000  C
  H12      1.0000 0.77643  0.08237  0.86857  Biso   1.000  H
  C18      1.0000 0.69240  0.89151  0.80717  Biso   1.000  C
  N4       1.0000 0.59710  0.05602  0.06190  Biso   1.000  N
  C19      1.0000 0.63857  0.08767  0.99620  Biso   1.000  C
  H13      1.0000 0.62790  0.09320  0.93040  Biso   1.000  H
  C20      1.0000 0.69627  0.11307  0.01890  Biso   1.000  C
  H14      1.0000 0.72420  0.13570  0.96990  Biso   1.000  H
  C21      1.0000 0.71306  0.10522  0.11360  Biso   1.000  C
  C22      1.0000 0.67010  0.07280  0.18210  Biso   1.000  C
  H15      1.0000 0.67950  0.06650  0.24830  Biso   1.000  H
  C23      1.0000 0.61320  0.04930  0.15360  Biso   1.000  C
  H16      1.0000 0.58430  0.02740  0.20190  Biso   1.000  H
  C24      1.0000 0.77516  0.13423  0.14050  Biso   1.000  C
  N5       1.0000 0.26377  0.38935  0.39523  Biso   1.000  N
  C25      1.0000 0.30524  0.42100  0.32953  Biso   1.000  C
  H17      1.0000 0.29457  0.42653  0.26373  Biso   1.000  H
  C26      1.0000 0.36294  0.44640  0.35223  Biso   1.000  C
  H18      1.0000 0.39087  0.46903  0.30323  Biso   1.000  H
  C27      1.0000 0.37973  0.43855  0.44693  Biso   1.000  C
  C28      1.0000 0.33677  0.40613  0.51543  Biso   1.000  C
  H19      1.0000 0.34617  0.39983  0.58163  Biso   1.000  H
  C29      1.0000 0.27987  0.38263  0.48693  Biso   1.000  C
  H20      1.0000 0.25097  0.36073  0.53523  Biso   1.000  H
  C30      1.0000 0.44183  0.46756  0.47383  Biso   1.000  C
  N6       1.0000 0.93043  0.72269  0.72857  Biso   1.000  N
  C31      1.0000 0.97190  0.75434  0.66287  Biso   1.000  C
  H21      1.0000 0.96123  0.75987  0.59707  Biso   1.000  H
  C32      1.0000 0.02960  0.77974  0.68557  Biso   1.000  C
  H22      1.0000 0.05753  0.80237  0.63657  Biso   1.000  H
  C33      1.0000 0.04639  0.77189  0.78027  Biso   1.000  C
  C34      1.0000 0.00343  0.73947  0.84877  Biso   1.000  C
  H23      1.0000 0.01283  0.73317  0.91497  Biso   1.000  H
  C35      1.0000 0.94653  0.71597  0.82027  Biso   1.000  C
  H24      1.0000 0.91763  0.69407  0.86857  Biso   1.000  H
  C36      1.0000 0.10849  0.80090  0.80717  Biso   1.000  C
  N7       1.0000 0.94398  0.54108  0.06190  Biso   1.000  N
  C37      1.0000 0.91233  0.55090  0.99620  Biso   1.000  C
  H25      1.0000 0.90680  0.53470  0.93040  Biso   1.000  H
  C38      1.0000 0.88693  0.58320  0.01890  Biso   1.000  C
  H26      1.0000 0.86430  0.58850  0.96990  Biso   1.000  H
  C39      1.0000 0.89478  0.60784  0.11360  Biso   1.000  C
  C40      1.0000 0.92720  0.59730  0.18210  Biso   1.000  C
  H27      1.0000 0.93350  0.61300  0.24830  Biso   1.000  H
  C41      1.0000 0.95070  0.56390  0.15360  Biso   1.000  C
  H28      1.0000 0.97260  0.55690  0.20190  Biso   1.000  H
  C42      1.0000 0.86577  0.64093  0.14050  Biso   1.000  C
  N8       1.0000 0.61065  0.87441  0.39523  Biso   1.000  N
  C43      1.0000 0.57900  0.88423  0.32953  Biso   1.000  C
  H29      1.0000 0.57347  0.86803  0.26373  Biso   1.000  H
  C44      1.0000 0.55360  0.91653  0.35223  Biso   1.000  C
  H30      1.0000 0.53097  0.92183  0.30323  Biso   1.000  H
  C45      1.0000 0.56145  0.94117  0.44693  Biso   1.000  C
  C46      1.0000 0.59387  0.93063  0.51543  Biso   1.000  C
  H31      1.0000 0.60017  0.94633  0.58163  Biso   1.000  H
  C47      1.0000 0.61737  0.89723  0.48693  Biso   1.000  C
  H32      1.0000 0.63927  0.89023  0.53523  Biso   1.000  H
  C48      1.0000 0.53244  0.97426  0.47383  Biso   1.000  C
  N9       1.0000 0.27731  0.20775  0.72857  Biso   1.000  N
  C49      1.0000 0.24566  0.21757  0.66287  Biso   1.000  C
  H33      1.0000 0.24013  0.20137  0.59707  Biso   1.000  H
  C50      1.0000 0.22026  0.24987  0.68557  Biso   1.000  C
  H34      1.0000 0.19763  0.25517  0.63657  Biso   1.000  H
  C51      1.0000 0.22811  0.27451  0.78027  Biso   1.000  C
  C52      1.0000 0.26053  0.26397  0.84877  Biso   1.000  C
  H35      1.0000 0.26683  0.27967  0.91497  Biso   1.000  H
  C53      1.0000 0.28403  0.23057  0.82027  Biso   1.000  C
  H36      1.0000 0.30593  0.22357  0.86857  Biso   1.000  H
  C54      1.0000 0.19910  0.30760  0.80717  Biso   1.000  C
  N10      1.0000 0.40290  0.45892  0.93810  Biso   1.000  N
  C55      1.0000 0.36143  0.44910  0.00380  Biso   1.000  C
  H37      1.0000 0.37210  0.46530  0.06960  Biso   1.000  H
  C56      1.0000 0.30373  0.41680  0.98110  Biso   1.000  C
  H38      1.0000 0.27580  0.41150  0.03010  Biso   1.000  H
  C57      1.0000 0.28694  0.39216  0.88640  Biso   1.000  C
  C58      1.0000 0.32990  0.40270  0.81790  Biso   1.000  C
  H39      1.0000 0.32050  0.38700  0.75170  Biso   1.000  H
  C59      1.0000 0.38680  0.43610  0.84640  Biso   1.000  C
  H40      1.0000 0.41570  0.44310  0.79810  Biso   1.000  H
  C60      1.0000 0.22484  0.35907  0.85950  Biso   1.000  C
  N11      1.0000 0.06957  0.79225  0.27143  Biso   1.000  N
  C61      1.0000 0.02810  0.78243  0.33713  Biso   1.000  C
  H41      1.0000 0.03877  0.79863  0.40293  Biso   1.000  H
  C62      1.0000 0.97040  0.75013  0.31443  Biso   1.000  C
  H42      1.0000 0.94247  0.74483  0.36343  Biso   1.000  H
  C63      1.0000 0.95361  0.72549  0.21973  Biso   1.000  C
  C64      1.0000 0.99657  0.73603  0.15123  Biso   1.000  C
  H43      1.0000 0.98717  0.72033  0.08503  Biso   1.000  H
  C65      1.0000 0.05347  0.76943  0.17973  Biso   1.000  C
  H44      1.0000 0.08237  0.77643  0.13143  Biso   1.000  H
  C66      1.0000 0.89151  0.69240  0.19283  Biso   1.000  C
  N12      1.0000 0.73623  0.12559  0.60477  Biso   1.000  N
  C67      1.0000 0.69476  0.11577  0.67047  Biso   1.000  C
  H45      1.0000 0.70543  0.13197  0.73627  Biso   1.000  H
  C68      1.0000 0.63706  0.08347  0.64777  Biso   1.000  C
  H46      1.0000 0.60913  0.07817  0.69677  Biso   1.000  H
  C69      1.0000 0.62027  0.05883  0.55307  Biso   1.000  C
  C70      1.0000 0.66323  0.06937  0.48457  Biso   1.000  C
  H47      1.0000 0.65383  0.05367  0.41837  Biso   1.000  H
  C71      1.0000 0.72013  0.10277  0.51307  Biso   1.000  C
  H48      1.0000 0.74903  0.10977  0.46477  Biso   1.000  H
  C72      1.0000 0.55817  0.02574  0.52617  Biso   1.000  C
  N13      1.0000 0.05602  0.59710  0.93810  Biso   1.000  N
  C73      1.0000 0.08767  0.63857  0.00380  Biso   1.000  C
  H49      1.0000 0.09320  0.62790  0.06960  Biso   1.000  H
  C74      1.0000 0.11307  0.69627  0.98110  Biso   1.000  C
  H50      1.0000 0.13570  0.72420  0.03010  Biso   1.000  H
  C75      1.0000 0.10522  0.71306  0.88640  Biso   1.000  C
  C76      1.0000 0.07280  0.67010  0.81790  Biso   1.000  C
  H51      1.0000 0.06650  0.67950  0.75170  Biso   1.000  H
  C77      1.0000 0.04930  0.61320  0.84640  Biso   1.000  C
  H52      1.0000 0.02740  0.58430  0.79810  Biso   1.000  H
  C78      1.0000 0.13423  0.77516  0.85950  Biso   1.000  C
  N14      1.0000 0.72269  0.93043  0.27143  Biso   1.000  N
  C79      1.0000 0.75434  0.97190  0.33713  Biso   1.000  C
  H53      1.0000 0.75987  0.96123  0.40293  Biso   1.000  H
  C80      1.0000 0.77974  0.02960  0.31443  Biso   1.000  C
  H54      1.0000 0.80237  0.05753  0.36343  Biso   1.000  H
  C81      1.0000 0.77189  0.04639  0.21973  Biso   1.000  C
  C82      1.0000 0.73947  0.00343  0.15123  Biso   1.000  C
  H55      1.0000 0.73317  0.01283  0.08503  Biso   1.000  H
  C83      1.0000 0.71597  0.94653  0.17973  Biso   1.000  C
  H56      1.0000 0.69407  0.91763  0.13143  Biso   1.000  H
  C84      1.0000 0.80090  0.10849  0.19283  Biso   1.000  C
  N15      1.0000 0.38935  0.26377  0.60477  Biso   1.000  N
  C85      1.0000 0.42100  0.30524  0.67047  Biso   1.000  C
  H57      1.0000 0.42653  0.29457  0.73627  Biso   1.000  H
  C86      1.0000 0.44640  0.36294  0.64777  Biso   1.000  C
  H58      1.0000 0.46903  0.39087  0.69677  Biso   1.000  H
  C87      1.0000 0.43855  0.37973  0.55307  Biso   1.000  C
  C88      1.0000 0.40613  0.33677  0.48457  Biso   1.000  C
  H59      1.0000 0.39983  0.34617  0.41837  Biso   1.000  H
  C89      1.0000 0.38263  0.27987  0.51307  Biso   1.000  C
  H60      1.0000 0.36073  0.25097  0.46477  Biso   1.000  H
  C90      1.0000 0.46756  0.44183  0.52617  Biso   1.000  C
  N16      1.0000 0.54108  0.94398  0.93810  Biso   1.000  N
  C91      1.0000 0.55090  0.91233  0.00380  Biso   1.000  C
  H61      1.0000 0.53470  0.90680  0.06960  Biso   1.000  H
  C92      1.0000 0.58320  0.88693  0.98110  Biso   1.000  C
  H62      1.0000 0.58850  0.86430  0.03010  Biso   1.000  H
  C93      1.0000 0.60784  0.89478  0.88640  Biso   1.000  C
  C94      1.0000 0.59730  0.92720  0.81790  Biso   1.000  C
  H63      1.0000 0.61300  0.93350  0.75170  Biso   1.000  H
  C95      1.0000 0.56390  0.95070  0.84640  Biso   1.000  C
  H64      1.0000 0.55690  0.97260  0.79810  Biso   1.000  H
  C96      1.0000 0.64093  0.86577  0.85950  Biso   1.000  C
  N17      1.0000 0.20775  0.27731  0.27143  Biso   1.000  N
  C97      1.0000 0.21757  0.24566  0.33713  Biso   1.000  C
  H65      1.0000 0.20137  0.24013  0.40293  Biso   1.000  H
  C98      1.0000 0.24987  0.22026  0.31443  Biso   1.000  C
  H66      1.0000 0.25517  0.19763  0.36343  Biso   1.000  H
  C99      1.0000 0.27451  0.22811  0.21973  Biso   1.000  C
  C100     1.0000 0.26397  0.26053  0.15123  Biso   1.000  C
  H67      1.0000 0.27967  0.26683  0.08503  Biso   1.000  H
  C101     1.0000 0.23057  0.28403  0.17973  Biso   1.000  C
  H68      1.0000 0.22357  0.30593  0.13143  Biso   1.000  H
  C102     1.0000 0.30760  0.19910  0.19283  Biso   1.000  C
  N18      1.0000 0.87441  0.61065  0.60477  Biso   1.000  N
  C103     1.0000 0.88423  0.57900  0.67047  Biso   1.000  C
  H69      1.0000 0.86803  0.57347  0.73627  Biso   1.000  H
  C104     1.0000 0.91653  0.55360  0.64777  Biso   1.000  C
  H70      1.0000 0.92183  0.53097  0.69677  Biso   1.000  H
  C105     1.0000 0.94117  0.56145  0.55307  Biso   1.000  C
  C106     1.0000 0.93063  0.59387  0.48457  Biso   1.000  C
  H71      1.0000 0.94633  0.60017  0.41837  Biso   1.000  H
  C107     1.0000 0.89723  0.61737  0.51307  Biso   1.000  C
  H72      1.0000 0.89023  0.63927  0.46477  Biso   1.000  H
  C108     1.0000 0.97426  0.53244  0.52617  Biso   1.000  C
  N19      1.0000 0.54108  0.59710  0.93810  Biso   1.000  N
  C109     1.0000 0.55090  0.63857  0.00380  Biso   1.000  C
  H73      1.0000 0.53470  0.62790  0.06960  Biso   1.000  H
  C110     1.0000 0.58320  0.69627  0.98110  Biso   1.000  C
  H74      1.0000 0.58850  0.72420  0.03010  Biso   1.000  H
  C111     1.0000 0.60784  0.71306  0.88640  Biso   1.000  C
  C112     1.0000 0.59730  0.67010  0.81790  Biso   1.000  C
  H75      1.0000 0.61300  0.67950  0.75170  Biso   1.000  H
  C113     1.0000 0.56390  0.61320  0.84640  Biso   1.000  C
  H76      1.0000 0.55690  0.58430  0.79810  Biso   1.000  H
  C114     1.0000 0.64093  0.77516  0.85950  Biso   1.000  C
  N20      1.0000 0.20775  0.93043  0.27143  Biso   1.000  N
  C115     1.0000 0.21757  0.97190  0.33713  Biso   1.000  C
  H77      1.0000 0.20137  0.96123  0.40293  Biso   1.000  H
  C116     1.0000 0.24987  0.02960  0.31443  Biso   1.000  C
  H78      1.0000 0.25517  0.05753  0.36343  Biso   1.000  H
  C117     1.0000 0.27451  0.04639  0.21973  Biso   1.000  C
  C118     1.0000 0.26397  0.00343  0.15123  Biso   1.000  C
  H79      1.0000 0.27967  0.01283  0.08503  Biso   1.000  H
  C119     1.0000 0.23057  0.94653  0.17973  Biso   1.000  C
  H80      1.0000 0.22357  0.91763  0.13143  Biso   1.000  H
  C120     1.0000 0.30760  0.10849  0.19283  Biso   1.000  C
  N21      1.0000 0.87441  0.26377  0.60477  Biso   1.000  N
  C121     1.0000 0.88423  0.30524  0.67047  Biso   1.000  C
  H81      1.0000 0.86803  0.29457  0.73627  Biso   1.000  H
  C122     1.0000 0.91653  0.36294  0.64777  Biso   1.000  C
  H82      1.0000 0.92183  0.39087  0.69677  Biso   1.000  H
  C123     1.0000 0.94117  0.37973  0.55307  Biso   1.000  C
  C124     1.0000 0.93063  0.33677  0.48457  Biso   1.000  C
  H83      1.0000 0.94633  0.34617  0.41837  Biso   1.000  H
  C125     1.0000 0.89723  0.27987  0.51307  Biso   1.000  C
  H84      1.0000 0.89023  0.25097  0.46477  Biso   1.000  H
  C126     1.0000 0.97426  0.44183  0.52617  Biso   1.000  C
  N22      1.0000 0.40290  0.94398  0.93810  Biso   1.000  N
  C127     1.0000 0.36143  0.91233  0.00380  Biso   1.000  C
  H85      1.0000 0.37210  0.90680  0.06960  Biso   1.000  H
  C128     1.0000 0.30373  0.88693  0.98110  Biso   1.000  C
  H86      1.0000 0.27580  0.86430  0.03010  Biso   1.000  H
  C129     1.0000 0.28694  0.89478  0.88640  Biso   1.000  C
  C130     1.0000 0.32990  0.92720  0.81790  Biso   1.000  C
  H87      1.0000 0.32050  0.93350  0.75170  Biso   1.000  H
  C131     1.0000 0.38680  0.95070  0.84640  Biso   1.000  C
  H88      1.0000 0.41570  0.97260  0.79810  Biso   1.000  H
  C132     1.0000 0.22484  0.86577  0.85950  Biso   1.000  C
  N23      1.0000 0.06957  0.27731  0.27143  Biso   1.000  N
  C133     1.0000 0.02810  0.24566  0.33713  Biso   1.000  C
  H89      1.0000 0.03877  0.24013  0.40293  Biso   1.000  H
  C134     1.0000 0.97040  0.22026  0.31443  Biso   1.000  C
  H90      1.0000 0.94247  0.19763  0.36343  Biso   1.000  H
  C135     1.0000 0.95361  0.22811  0.21973  Biso   1.000  C
  C136     1.0000 0.99657  0.26053  0.15123  Biso   1.000  C
  H91      1.0000 0.98717  0.26683  0.08503  Biso   1.000  H
  C137     1.0000 0.05347  0.28403  0.17973  Biso   1.000  C
  H92      1.0000 0.08237  0.30593  0.13143  Biso   1.000  H
  C138     1.0000 0.89151  0.19910  0.19283  Biso   1.000  C
  N24      1.0000 0.73623  0.61065  0.60477  Biso   1.000  N
  C139     1.0000 0.69476  0.57900  0.67047  Biso   1.000  C
  H93      1.0000 0.70543  0.57347  0.73627  Biso   1.000  H
  C140     1.0000 0.63706  0.55360  0.64777  Biso   1.000  C
  H94      1.0000 0.60913  0.53097  0.69677  Biso   1.000  H
  C141     1.0000 0.62027  0.56145  0.55307  Biso   1.000  C
  C142     1.0000 0.66323  0.59387  0.48457  Biso   1.000  C
  H95      1.0000 0.65383  0.60017  0.41837  Biso   1.000  H
  C143     1.0000 0.72013  0.61737  0.51307  Biso   1.000  C
  H96      1.0000 0.74903  0.63927  0.46477  Biso   1.000  H
  C144     1.0000 0.55817  0.53244  0.52617  Biso   1.000  C
  N25      1.0000 0.05602  0.45892  0.93810  Biso   1.000  N
  C145     1.0000 0.08767  0.44910  0.00380  Biso   1.000  C
  H97      1.0000 0.09320  0.46530  0.06960  Biso   1.000  H
  C146     1.0000 0.11307  0.41680  0.98110  Biso   1.000  C
  H98      1.0000 0.13570  0.41150  0.03010  Biso   1.000  H
  C147     1.0000 0.10522  0.39216  0.88640  Biso   1.000  C
  C148     1.0000 0.07280  0.40270  0.81790  Biso   1.000  C
  H99      1.0000 0.06650  0.38700  0.75170  Biso   1.000  H
  C149     1.0000 0.04930  0.43610  0.84640  Biso   1.000  C
  H100     1.0000 0.02740  0.44310  0.79810  Biso   1.000  H
  C150     1.0000 0.13423  0.35907  0.85950  Biso   1.000  C
  N26      1.0000 0.72269  0.79225  0.27143  Biso   1.000  N
  C151     1.0000 0.75434  0.78243  0.33713  Biso   1.000  C
  H101     1.0000 0.75987  0.79863  0.40293  Biso   1.000  H
  C152     1.0000 0.77974  0.75013  0.31443  Biso   1.000  C
  H102     1.0000 0.80237  0.74483  0.36343  Biso   1.000  H
  C153     1.0000 0.77189  0.72549  0.21973  Biso   1.000  C
  C154     1.0000 0.73947  0.73603  0.15123  Biso   1.000  C
  H103     1.0000 0.73317  0.72033  0.08503  Biso   1.000  H
  C155     1.0000 0.71597  0.76943  0.17973  Biso   1.000  C
  H104     1.0000 0.69407  0.77643  0.13143  Biso   1.000  H
  C156     1.0000 0.80090  0.69240  0.19283  Biso   1.000  C
  N27      1.0000 0.38935  0.12559  0.60477  Biso   1.000  N
  C157     1.0000 0.42100  0.11577  0.67047  Biso   1.000  C
  H105     1.0000 0.42653  0.13197  0.73627  Biso   1.000  H
  C158     1.0000 0.44640  0.08347  0.64777  Biso   1.000  C
  H106     1.0000 0.46903  0.07817  0.69677  Biso   1.000  H
  C159     1.0000 0.43855  0.05883  0.55307  Biso   1.000  C
  C160     1.0000 0.40613  0.06937  0.48457  Biso   1.000  C
  H107     1.0000 0.39983  0.05367  0.41837  Biso   1.000  H
  C161     1.0000 0.38263  0.10277  0.51307  Biso   1.000  C
  H108     1.0000 0.36073  0.10977  0.46477  Biso   1.000  H
  C162     1.0000 0.46756  0.02574  0.52617  Biso   1.000  C
  N28      1.0000 0.59710  0.54108  0.06190  Biso   1.000  N
  C163     1.0000 0.63857  0.55090  0.99620  Biso   1.000  C
  H109     1.0000 0.62790  0.53470  0.93040  Biso   1.000  H
  C164     1.0000 0.69627  0.58320  0.01890  Biso   1.000  C
  H110     1.0000 0.72420  0.58850  0.96990  Biso   1.000  H
  C165     1.0000 0.71306  0.60784  0.11360  Biso   1.000  C
  C166     1.0000 0.67010  0.59730  0.18210  Biso   1.000  C
  H111     1.0000 0.67950  0.61300  0.24830  Biso   1.000  H
  C167     1.0000 0.61320  0.56390  0.15360  Biso   1.000  C
  H112     1.0000 0.58430  0.55690  0.20190  Biso   1.000  H
  C168     1.0000 0.77516  0.64093  0.14050  Biso   1.000  C
  N29      1.0000 0.26377  0.87441  0.39523  Biso   1.000  N
  C169     1.0000 0.30524  0.88423  0.32953  Biso   1.000  C
  H113     1.0000 0.29457  0.86803  0.26373  Biso   1.000  H
  C170     1.0000 0.36294  0.91653  0.35223  Biso   1.000  C
  H114     1.0000 0.39087  0.92183  0.30323  Biso   1.000  H
  C171     1.0000 0.37973  0.94117  0.44693  Biso   1.000  C
  C172     1.0000 0.33677  0.93063  0.51543  Biso   1.000  C
  H115     1.0000 0.34617  0.94633  0.58163  Biso   1.000  H
  C173     1.0000 0.27987  0.89723  0.48693  Biso   1.000  C
  H116     1.0000 0.25097  0.89023  0.53523  Biso   1.000  H
  C174     1.0000 0.44183  0.97426  0.47383  Biso   1.000  C
  N30      1.0000 0.93043  0.20775  0.72857  Biso   1.000  N
  C175     1.0000 0.97190  0.21757  0.66287  Biso   1.000  C
  H117     1.0000 0.96123  0.20137  0.59707  Biso   1.000  H
  C176     1.0000 0.02960  0.24987  0.68557  Biso   1.000  C
  H118     1.0000 0.05753  0.25517  0.63657  Biso   1.000  H
  C177     1.0000 0.04639  0.27451  0.78027  Biso   1.000  C
  C178     1.0000 0.00343  0.26397  0.84877  Biso   1.000  C
  H119     1.0000 0.01283  0.27967  0.91497  Biso   1.000  H
  C179     1.0000 0.94653  0.23057  0.82027  Biso   1.000  C
  H120     1.0000 0.91763  0.22357  0.86857  Biso   1.000  H
  C180     1.0000 0.10849  0.30760  0.80717  Biso   1.000  C
  N31      1.0000 0.94398  0.40290  0.06190  Biso   1.000  N
  C181     1.0000 0.91233  0.36143  0.99620  Biso   1.000  C
  H121     1.0000 0.90680  0.37210  0.93040  Biso   1.000  H
  C182     1.0000 0.88693  0.30373  0.01890  Biso   1.000  C
  H122     1.0000 0.86430  0.27580  0.96990  Biso   1.000  H
  C183     1.0000 0.89478  0.28694  0.11360  Biso   1.000  C
  C184     1.0000 0.92720  0.32990  0.18210  Biso   1.000  C
  H123     1.0000 0.93350  0.32050  0.24830  Biso   1.000  H
  C185     1.0000 0.95070  0.38680  0.15360  Biso   1.000  C
  H124     1.0000 0.97260  0.41570  0.20190  Biso   1.000  H
  C186     1.0000 0.86577  0.22484  0.14050  Biso   1.000  C
  N32      1.0000 0.61065  0.73623  0.39523  Biso   1.000  N
  C187     1.0000 0.57900  0.69476  0.32953  Biso   1.000  C
  H125     1.0000 0.57347  0.70543  0.26373  Biso   1.000  H
  C188     1.0000 0.55360  0.63706  0.35223  Biso   1.000  C
  H126     1.0000 0.53097  0.60913  0.30323  Biso   1.000  H
  C189     1.0000 0.56145  0.62027  0.44693  Biso   1.000  C
  C190     1.0000 0.59387  0.66323  0.51543  Biso   1.000  C
  H127     1.0000 0.60017  0.65383  0.58163  Biso   1.000  H
  C191     1.0000 0.61737  0.72013  0.48693  Biso   1.000  C
  H128     1.0000 0.63927  0.74903  0.53523  Biso   1.000  H
  C192     1.0000 0.53244  0.55817  0.47383  Biso   1.000  C
  N33      1.0000 0.27731  0.06957  0.72857  Biso   1.000  N
  C193     1.0000 0.24566  0.02810  0.66287  Biso   1.000  C
  H129     1.0000 0.24013  0.03877  0.59707  Biso   1.000  H
  C194     1.0000 0.22026  0.97040  0.68557  Biso   1.000  C
  H130     1.0000 0.19763  0.94247  0.63657  Biso   1.000  H
  C195     1.0000 0.22811  0.95361  0.78027  Biso   1.000  C
  C196     1.0000 0.26053  0.99657  0.84877  Biso   1.000  C
  H131     1.0000 0.26683  0.98717  0.91497  Biso   1.000  H
  C197     1.0000 0.28403  0.05347  0.82027  Biso   1.000  C
  H132     1.0000 0.30593  0.08237  0.86857  Biso   1.000  H
  C198     1.0000 0.19910  0.89151  0.80717  Biso   1.000  C
  N34      1.0000 0.45892  0.05602  0.06190  Biso   1.000  N
  C199     1.0000 0.44910  0.08767  0.99620  Biso   1.000  C
  H133     1.0000 0.46530  0.09320  0.93040  Biso   1.000  H
  C200     1.0000 0.41680  0.11307  0.01890  Biso   1.000  C
  H134     1.0000 0.41150  0.13570  0.96990  Biso   1.000  H
  C201     1.0000 0.39216  0.10522  0.11360  Biso   1.000  C
  C202     1.0000 0.40270  0.07280  0.18210  Biso   1.000  C
  H135     1.0000 0.38700  0.06650  0.24830  Biso   1.000  H
  C203     1.0000 0.43610  0.04930  0.15360  Biso   1.000  C
  H136     1.0000 0.44310  0.02740  0.20190  Biso   1.000  H
  C204     1.0000 0.35907  0.13423  0.14050  Biso   1.000  C
  N35      1.0000 0.12559  0.38935  0.39523  Biso   1.000  N
  C205     1.0000 0.11577  0.42100  0.32953  Biso   1.000  C
  H137     1.0000 0.13197  0.42653  0.26373  Biso   1.000  H
  C206     1.0000 0.08347  0.44640  0.35223  Biso   1.000  C
  H138     1.0000 0.07817  0.46903  0.30323  Biso   1.000  H
  C207     1.0000 0.05883  0.43855  0.44693  Biso   1.000  C
  C208     1.0000 0.06937  0.40613  0.51543  Biso   1.000  C
  H139     1.0000 0.05367  0.39983  0.58163  Biso   1.000  H
  C209     1.0000 0.10277  0.38263  0.48693  Biso   1.000  C
  H140     1.0000 0.10977  0.36073  0.53523  Biso   1.000  H
  C210     1.0000 0.02574  0.46756  0.47383  Biso   1.000  C
  N36      1.0000 0.79225  0.72269  0.72857  Biso   1.000  N
  C211     1.0000 0.78243  0.75434  0.66287  Biso   1.000  C
  H141     1.0000 0.79863  0.75987  0.59707  Biso   1.000  H
  C212     1.0000 0.75013  0.77974  0.68557  Biso   1.000  C
  H142     1.0000 0.74483  0.80237  0.63657  Biso   1.000  H
  C213     1.0000 0.72549  0.77189  0.78027  Biso   1.000  C
  C214     1.0000 0.73603  0.73947  0.84877  Biso   1.000  C
  H143     1.0000 0.72033  0.73317  0.91497  Biso   1.000  H
  C215     1.0000 0.76943  0.71597  0.82027  Biso   1.000  C
  H144     1.0000 0.77643  0.69407  0.86857  Biso   1.000  H
  C216     1.0000 0.69240  0.80090  0.80717  Biso   1.000  C
  Cd1      1.0000 0.50000  0.50000  0.00000  Biso   1.000  Cd
  Cd2      1.0000 0.16667  0.83333  0.33333  Biso   1.000  Cd
  Cd3      1.0000 0.83333  0.16667  0.66667  Biso   1.000  Cd
  Cd4      1.0000 0.50000  0.00000  0.00000  Biso   1.000  Cd
  Cd5      1.0000 0.16667  0.33333  0.33333  Biso   1.000  Cd
  Cd6      1.0000 0.83333  0.66667  0.66667  Biso   1.000  Cd
  Cd7      1.0000 0.00000  0.50000  0.00000  Biso   1.000  Cd
  Cd8      1.0000 0.66667  0.83333  0.33333  Biso   1.000  Cd
  Cd9      1.0000 0.33333  0.16667  0.66667  Biso   1.000  Cd
  Cl1      1.0000 0.47175  0.52825  0.16589  Biso   1.000  Cl
  Cl2      1.0000 0.13841  0.86159  0.49922  Biso   1.000  Cl
  Cl3      1.0000 0.80508  0.19492  0.83256  Biso   1.000  Cl
  Cl4      1.0000 0.47175  0.94349  0.16589  Biso   1.000  Cl
  Cl5      1.0000 0.13841  0.27682  0.49922  Biso   1.000  Cl
  Cl6      1.0000 0.80508  0.61016  0.83256  Biso   1.000  Cl
  Cl7      1.0000 0.05651  0.52825  0.16589  Biso   1.000  Cl
  Cl8      1.0000 0.72318  0.86159  0.49922  Biso   1.000  Cl
  Cl9      1.0000 0.38984  0.19492  0.83256  Biso   1.000  Cl
  Cl10     1.0000 0.52826  0.47175  0.83411  Biso   1.000  Cl
  Cl11     1.0000 0.19492  0.80508  0.16744  Biso   1.000  Cl
  Cl12     1.0000 0.86159  0.13841  0.50078  Biso   1.000  Cl
  Cl13     1.0000 0.94349  0.47174  0.83411  Biso   1.000  Cl
  Cl14     1.0000 0.61016  0.80508  0.16744  Biso   1.000  Cl
  Cl15     1.0000 0.27682  0.13841  0.50078  Biso   1.000  Cl
  Cl16     1.0000 0.52825  0.05651  0.83411  Biso   1.000  Cl
  Cl17     1.0000 0.19492  0.38984  0.16744  Biso   1.000  Cl
  Cl18     1.0000 0.86159  0.72318  0.50078  Biso   1.000  Cl
  C217     1.0000 0.38402  0.19201  0.11520  Biso   1.000  C
  H145     1.0000 0.41940  0.20970  0.07950  Biso   1.000  H
  C218     1.0000 0.05069  0.52534  0.44853  Biso   1.000  C
  H146     1.0000 0.08607  0.54303  0.41283  Biso   1.000  H
  C219     1.0000 0.71735  0.85868  0.78187  Biso   1.000  C
  H147     1.0000 0.75273  0.87637  0.74617  Biso   1.000  H
  C220     1.0000 0.80799  0.19201  0.11520  Biso   1.000  C
  H148     1.0000 0.79030  0.20970  0.07950  Biso   1.000  H
  C221     1.0000 0.47466  0.52534  0.44853  Biso   1.000  C
  H149     1.0000 0.45697  0.54303  0.41283  Biso   1.000  H
  C222     1.0000 0.14132  0.85868  0.78187  Biso   1.000  C
  H150     1.0000 0.12363  0.87637  0.74617  Biso   1.000  H
  C223     1.0000 0.80799  0.61598  0.11520  Biso   1.000  C
  H151     1.0000 0.79030  0.58060  0.07950  Biso   1.000  H
  C224     1.0000 0.47466  0.94931  0.44853  Biso   1.000  C
  H152     1.0000 0.45697  0.91393  0.41283  Biso   1.000  H
  C225     1.0000 0.14132  0.28265  0.78187  Biso   1.000  C
  H153     1.0000 0.12363  0.24727  0.74617  Biso   1.000  H
  C226     1.0000 0.19201  0.38402  0.88480  Biso   1.000  C
  H154     1.0000 0.20970  0.41940  0.92050  Biso   1.000  H
  C227     1.0000 0.85868  0.71735  0.21813  Biso   1.000  C
  H155     1.0000 0.87637  0.75273  0.25383  Biso   1.000  H
  C228     1.0000 0.52534  0.05069  0.55147  Biso   1.000  C
  H156     1.0000 0.54303  0.08607  0.58717  Biso   1.000  H
  C229     1.0000 0.19201  0.80799  0.88480  Biso   1.000  C
  H157     1.0000 0.20970  0.79030  0.92050  Biso   1.000  H
  C230     1.0000 0.85868  0.14132  0.21813  Biso   1.000  C
  H158     1.0000 0.87637  0.12363  0.25383  Biso   1.000  H
  C231     1.0000 0.52534  0.47466  0.55147  Biso   1.000  C
  H159     1.0000 0.54303  0.45697  0.58717  Biso   1.000  H
  C232     1.0000 0.61598  0.80799  0.88480  Biso   1.000  C
  H160     1.0000 0.58060  0.79030  0.92050  Biso   1.000  H
  C233     1.0000 0.28265  0.14132  0.21813  Biso   1.000  C
  H161     1.0000 0.24727  0.12363  0.25383  Biso   1.000  H
  C234     1.0000 0.94931  0.47466  0.55147  Biso   1.000  C
  H162     1.0000 0.91393  0.45697  0.58717  Biso   1.000  H
