data_image0
_cell_length_a       12.7392
_cell_length_b       21.714
_cell_length_c       17.8196
_cell_angle_alpha    90
_cell_angle_beta     101.864
_cell_angle_gamma    90

_symmetry_space_group_name_H-M    "P 1"
_symmetry_int_tables_number       1

loop_
  _symmetry_equiv_pos_as_xyz
  'x, y, z'

loop_
  _atom_site_label
  _atom_site_occupancy
  _atom_site_fract_x
  _atom_site_fract_y
  _atom_site_fract_z
  _atom_site_thermal_displace_type
  _atom_site_B_iso_or_equiv
  _atom_site_type_symbol
  C1       1.0000 0.93810  0.08460  0.30890  Biso   1.000  C
  C2       1.0000 0.00320  0.03660  0.34490  Biso   1.000  C
  C3       1.0000 0.06300  0.00380  0.30090  Biso   1.000  C
  C4       1.0000 0.00300  0.01900  0.42400  Biso   1.000  C
  C5       1.0000 0.93390  0.04630  0.46530  Biso   1.000  C
  H1       1.0000 0.88720  0.07820  0.44210  Biso   1.000  H
  C6       1.0000 0.06840  0.97180  0.46080  Biso   1.000  C
  H2       1.0000 0.11600  0.95160  0.43420  Biso   1.000  H
  C7       1.0000 0.71990  0.11800  0.06100  Biso   1.000  C
  C8       1.0000 0.68630  0.07660  0.00100  Biso   1.000  C
  C9       1.0000 0.74310  0.07340  0.94170  Biso   1.000  C
  C10      1.0000 0.59230  0.03770  0.00030  Biso   1.000  C
  C11      1.0000 0.56020  0.99230  0.94490  Biso   1.000  C
  H3       1.0000 0.60060  0.98620  0.90630  Biso   1.000  H
  C12      1.0000 0.52830  0.04400  0.05510  Biso   1.000  C
  H4       1.0000 0.54680  0.07460  0.09380  Biso   1.000  H
  C13      1.0000 0.62090  0.23660  0.29770  Biso   1.000  C
  C14      1.0000 0.55070  0.26040  0.34140  Biso   1.000  C
  C15      1.0000 0.47500  0.30530  0.30820  Biso   1.000  C
  C16      1.0000 0.55220  0.24140  0.42000  Biso   1.000  C
  C17      1.0000 0.61960  0.19460  0.45660  Biso   1.000  C
  H5       1.0000 0.66840  0.17510  0.43040  Biso   1.000  H
  C18      1.0000 0.61560  0.17620  0.53060  Biso   1.000  C
  H6       1.0000 0.66330  0.14500  0.55440  Biso   1.000  H
  C19      1.0000 0.54410  0.20210  0.57100  Biso   1.000  C
  C20      1.0000 0.47680  0.24820  0.53450  Biso   1.000  C
  H7       1.0000 0.42640  0.26660  0.56030  Biso   1.000  H
  C21      1.0000 0.48180  0.26800  0.46110  Biso   1.000  C
  H8       1.0000 0.43600  0.30040  0.43830  Biso   1.000  H
  C22      1.0000 0.53870  0.18430  0.65000  Biso   1.000  C
  C23      1.0000 0.60850  0.14060  0.69030  Biso   1.000  C
  C24      1.0000 0.46650  0.21570  0.68540  Biso   1.000  C
  Cu1      1.0000 0.79701  0.18803  0.21561  Biso   1.000  Cu
  Cu2      1.0000 0.18629  0.91608  0.21222  Biso   1.000  Cu
  N1       1.0000 0.88380  0.12370  0.27960  Biso   1.000  N
  N2       1.0000 0.11390  0.97627  0.26600  Biso   1.000  N
  N3       1.0000 0.74510  0.15120  0.11240  Biso   1.000  N
  N4       1.0000 0.78580  0.06994  0.89120  Biso   1.000  N
  N5       1.0000 0.68120  0.21664  0.26360  Biso   1.000  N
  N6       1.0000 0.40880  0.34150  0.28780  Biso   1.000  N
  N7       1.0000 0.66810  0.10470  0.72200  Biso   1.000  N
  N8       1.0000 0.40490  0.24569  0.70770  Biso   1.000  N
  C25      1.0000 0.56190  0.58460  0.19110  Biso   1.000  C
  C26      1.0000 0.49680  0.53660  0.15510  Biso   1.000  C
  C27      1.0000 0.43700  0.50380  0.19910  Biso   1.000  C
  C28      1.0000 0.49700  0.51900  0.07600  Biso   1.000  C
  C29      1.0000 0.56610  0.54630  0.03470  Biso   1.000  C
  H9       1.0000 0.61280  0.57820  0.05790  Biso   1.000  H
  C30      1.0000 0.43160  0.47180  0.03920  Biso   1.000  C
  H10      1.0000 0.38400  0.45160  0.06580  Biso   1.000  H
  C31      1.0000 0.78010  0.61800  0.43900  Biso   1.000  C
  C32      1.0000 0.81370  0.57660  0.49900  Biso   1.000  C
  C33      1.0000 0.75690  0.57340  0.55830  Biso   1.000  C
  C34      1.0000 0.90770  0.53770  0.49970  Biso   1.000  C
  C35      1.0000 0.93980  0.49230  0.55510  Biso   1.000  C
  H11      1.0000 0.89940  0.48620  0.59370  Biso   1.000  H
  C36      1.0000 0.97170  0.54400  0.44490  Biso   1.000  C
  H12      1.0000 0.95320  0.57460  0.40620  Biso   1.000  H
  C37      1.0000 0.87910  0.73660  0.20230  Biso   1.000  C
  C38      1.0000 0.94930  0.76040  0.15860  Biso   1.000  C
  C39      1.0000 0.02500  0.80530  0.19180  Biso   1.000  C
  C40      1.0000 0.94780  0.74140  0.08000  Biso   1.000  C
  C41      1.0000 0.88040  0.69460  0.04340  Biso   1.000  C
  H13      1.0000 0.83160  0.67510  0.06960  Biso   1.000  H
  C42      1.0000 0.88440  0.67620  0.96940  Biso   1.000  C
  H14      1.0000 0.83670  0.64500  0.94560  Biso   1.000  H
  C43      1.0000 0.95590  0.70210  0.92900  Biso   1.000  C
  C44      1.0000 0.02320  0.74820  0.96550  Biso   1.000  C
  H15      1.0000 0.07360  0.76660  0.93970  Biso   1.000  H
  C45      1.0000 0.01820  0.76800  0.03890  Biso   1.000  C
  H16      1.0000 0.06400  0.80040  0.06170  Biso   1.000  H
  C46      1.0000 0.96130  0.68430  0.85000  Biso   1.000  C
  C47      1.0000 0.89150  0.64060  0.80970  Biso   1.000  C
  C48      1.0000 0.03350  0.71570  0.81460  Biso   1.000  C
  Cu3      1.0000 0.70299  0.68803  0.28439  Biso   1.000  Cu
  Cu4      1.0000 0.31371  0.41608  0.28778  Biso   1.000  Cu
  N9       1.0000 0.61620  0.62370  0.22040  Biso   1.000  N
  N10      1.0000 0.38610  0.47627  0.23400  Biso   1.000  N
  N11      1.0000 0.75490  0.65120  0.38760  Biso   1.000  N
  N12      1.0000 0.71420  0.56994  0.60880  Biso   1.000  N
  N13      1.0000 0.81880  0.71664  0.23640  Biso   1.000  N
  N14      1.0000 0.09120  0.84150  0.21220  Biso   1.000  N
  N15      1.0000 0.83190  0.60470  0.77800  Biso   1.000  N
  N16      1.0000 0.09510  0.74569  0.79230  Biso   1.000  N
  C49      1.0000 0.06190  0.91540  0.69110  Biso   1.000  C
  C50      1.0000 0.99680  0.96340  0.65510  Biso   1.000  C
  C51      1.0000 0.93700  0.99620  0.69910  Biso   1.000  C
  C52      1.0000 0.99700  0.98100  0.57600  Biso   1.000  C
  C53      1.0000 0.06610  0.95370  0.53470  Biso   1.000  C
  H17      1.0000 0.11280  0.92180  0.55790  Biso   1.000  H
  C54      1.0000 0.93160  0.02820  0.53920  Biso   1.000  C
  H18      1.0000 0.88400  0.04840  0.56580  Biso   1.000  H
  C55      1.0000 0.28010  0.88200  0.93900  Biso   1.000  C
  C56      1.0000 0.31370  0.92340  0.99900  Biso   1.000  C
  C57      1.0000 0.25690  0.92660  0.05830  Biso   1.000  C
  C58      1.0000 0.40770  0.96230  0.99970  Biso   1.000  C
  C59      1.0000 0.43980  0.00770  0.05510  Biso   1.000  C
  H19      1.0000 0.39940  0.01380  0.09370  Biso   1.000  H
  C60      1.0000 0.47170  0.95600  0.94490  Biso   1.000  C
  H20      1.0000 0.45320  0.92540  0.90620  Biso   1.000  H
  C61      1.0000 0.37910  0.76340  0.70230  Biso   1.000  C
  C62      1.0000 0.44930  0.73960  0.65860  Biso   1.000  C
  C63      1.0000 0.52500  0.69470  0.69180  Biso   1.000  C
  C64      1.0000 0.44780  0.75860  0.58000  Biso   1.000  C
  C65      1.0000 0.38040  0.80540  0.54340  Biso   1.000  C
  H21      1.0000 0.33160  0.82490  0.56960  Biso   1.000  H
  C66      1.0000 0.38440  0.82380  0.46940  Biso   1.000  C
  H22      1.0000 0.33670  0.85500  0.44560  Biso   1.000  H
  C67      1.0000 0.45590  0.79790  0.42900  Biso   1.000  C
  C68      1.0000 0.52320  0.75180  0.46550  Biso   1.000  C
  H23      1.0000 0.57360  0.73340  0.43970  Biso   1.000  H
  C69      1.0000 0.51820  0.73200  0.53890  Biso   1.000  C
  H24      1.0000 0.56400  0.69960  0.56170  Biso   1.000  H
  C70      1.0000 0.46130  0.81570  0.35000  Biso   1.000  C
  C71      1.0000 0.39150  0.85940  0.30970  Biso   1.000  C
  C72      1.0000 0.53350  0.78430  0.31460  Biso   1.000  C
  Cu5      1.0000 0.20299  0.81197  0.78439  Biso   1.000  Cu
  Cu6      1.0000 0.81371  0.08392  0.78778  Biso   1.000  Cu
  N17      1.0000 0.11620  0.87630  0.72040  Biso   1.000  N
  N18      1.0000 0.88610  0.02373  0.73400  Biso   1.000  N
  N19      1.0000 0.25490  0.84880  0.88760  Biso   1.000  N
  N20      1.0000 0.21420  0.93006  0.10880  Biso   1.000  N
  N21      1.0000 0.31880  0.78336  0.73640  Biso   1.000  N
  N22      1.0000 0.59120  0.65850  0.71220  Biso   1.000  N
  N23      1.0000 0.33190  0.89530  0.27800  Biso   1.000  N
  N24      1.0000 0.59510  0.75431  0.29230  Biso   1.000  N
  C73      1.0000 0.43810  0.41540  0.80890  Biso   1.000  C
  C74      1.0000 0.50320  0.46340  0.84490  Biso   1.000  C
  C75      1.0000 0.56300  0.49620  0.80090  Biso   1.000  C
  C76      1.0000 0.50300  0.48100  0.92400  Biso   1.000  C
  C77      1.0000 0.43390  0.45370  0.96530  Biso   1.000  C
  H25      1.0000 0.38720  0.42180  0.94210  Biso   1.000  H
  C78      1.0000 0.56840  0.52820  0.96080  Biso   1.000  C
  H26      1.0000 0.61600  0.54840  0.93420  Biso   1.000  H
  C79      1.0000 0.21990  0.38200  0.56100  Biso   1.000  C
  C80      1.0000 0.18630  0.42340  0.50100  Biso   1.000  C
  C81      1.0000 0.24310  0.42660  0.44170  Biso   1.000  C
  C82      1.0000 0.09230  0.46230  0.50030  Biso   1.000  C
  C83      1.0000 0.06020  0.50770  0.44490  Biso   1.000  C
  H27      1.0000 0.10060  0.51380  0.40630  Biso   1.000  H
  C84      1.0000 0.02830  0.45600  0.55510  Biso   1.000  C
  H28      1.0000 0.04680  0.42540  0.59380  Biso   1.000  H
  C85      1.0000 0.12090  0.26340  0.79770  Biso   1.000  C
  C86      1.0000 0.05070  0.23960  0.84140  Biso   1.000  C
  C87      1.0000 0.97500  0.19470  0.80820  Biso   1.000  C
  C88      1.0000 0.05220  0.25860  0.92000  Biso   1.000  C
  C89      1.0000 0.11960  0.30540  0.95660  Biso   1.000  C
  H29      1.0000 0.16840  0.32490  0.93040  Biso   1.000  H
  C90      1.0000 0.11560  0.32380  0.03060  Biso   1.000  C
  H30      1.0000 0.16330  0.35500  0.05440  Biso   1.000  H
  C91      1.0000 0.04410  0.29790  0.07100  Biso   1.000  C
  C92      1.0000 0.97680  0.25180  0.03450  Biso   1.000  C
  H31      1.0000 0.92640  0.23340  0.06030  Biso   1.000  H
  C93      1.0000 0.98180  0.23200  0.96110  Biso   1.000  C
  H32      1.0000 0.93600  0.19960  0.93830  Biso   1.000  H
  C94      1.0000 0.03870  0.31570  0.15000  Biso   1.000  C
  C95      1.0000 0.10850  0.35940  0.19030  Biso   1.000  C
  C96      1.0000 0.96650  0.28430  0.18540  Biso   1.000  C
  Cu7      1.0000 0.29701  0.31197  0.71561  Biso   1.000  Cu
  Cu8      1.0000 0.68629  0.58392  0.71222  Biso   1.000  Cu
  N25      1.0000 0.38380  0.37630  0.77960  Biso   1.000  N
  N26      1.0000 0.61390  0.52373  0.76600  Biso   1.000  N
  N27      1.0000 0.24510  0.34880  0.61240  Biso   1.000  N
  N28      1.0000 0.28580  0.43006  0.39120  Biso   1.000  N
  N29      1.0000 0.18120  0.28336  0.76360  Biso   1.000  N
  N30      1.0000 0.90880  0.15850  0.78780  Biso   1.000  N
  N31      1.0000 0.16810  0.39530  0.22200  Biso   1.000  N
  N32      1.0000 0.90490  0.25431  0.20770  Biso   1.000  N
