data_image0
_cell_length_a       10.1
_cell_length_b       10.796
_cell_length_c       10.982
_cell_angle_alpha    90
_cell_angle_beta     90
_cell_angle_gamma    90

_symmetry_space_group_name_H-M    "P 1"
_symmetry_int_tables_number       1

loop_
  _symmetry_equiv_pos_as_xyz
  'x, y, z'

loop_
  _atom_site_label
  _atom_site_occupancy
  _atom_site_fract_x
  _atom_site_fract_y
  _atom_site_fract_z
  _atom_site_thermal_displace_type
  _atom_site_B_iso_or_equiv
  _atom_site_type_symbol
  Co1      1.0000 0.35434  0.00172  0.28591  Biso   1.000  Co
  P1       1.0000 0.35797  0.02994  0.56779  Biso   1.000  P
  P2       1.0000 0.43194  0.73315  0.20513  Biso   1.000  P
  O1       1.0000 0.46394  0.86841  0.22430  Biso   1.000  O
  O2       1.0000 0.30092  0.97330  0.68262  Biso   1.000  O
  O3       1.0000 0.50788  0.02470  0.57124  Biso   1.000  O
  O4       1.0000 0.30980  0.69130  0.27417  Biso   1.000  O
  O5       1.0000 0.55330  0.65750  0.23190  Biso   1.000  O
  O6       1.0000 0.29970  0.97210  0.45440  Biso   1.000  O
  H1       1.0000 0.33200  0.15990  0.56700  Biso   1.000  H
  H2       1.0000 0.40400  0.72500  0.07810  Biso   1.000  H
  Co2      1.0000 0.14566  0.99828  0.78591  Biso   1.000  Co
  P3       1.0000 0.14203  0.97006  0.06779  Biso   1.000  P
  P4       1.0000 0.06806  0.26685  0.70513  Biso   1.000  P
  O7       1.0000 0.03606  0.13159  0.72430  Biso   1.000  O
  O8       1.0000 0.19908  0.02670  0.18262  Biso   1.000  O
  O9       1.0000 0.99212  0.97530  0.07124  Biso   1.000  O
  O10      1.0000 0.19020  0.30870  0.77417  Biso   1.000  O
  O11      1.0000 0.94670  0.34250  0.73190  Biso   1.000  O
  O12      1.0000 0.20030  0.02790  0.95440  Biso   1.000  O
  H3       1.0000 0.16800  0.84010  0.06700  Biso   1.000  H
  H4       1.0000 0.09600  0.27500  0.57810  Biso   1.000  H
  Co3      1.0000 0.64566  0.50172  0.21409  Biso   1.000  Co
  P5       1.0000 0.64203  0.52994  0.93221  Biso   1.000  P
  P6       1.0000 0.56806  0.23315  0.29487  Biso   1.000  P
  O13      1.0000 0.53606  0.36841  0.27570  Biso   1.000  O
  O14      1.0000 0.69908  0.47330  0.81738  Biso   1.000  O
  O15      1.0000 0.49212  0.52470  0.92876  Biso   1.000  O
  O16      1.0000 0.69020  0.19130  0.22583  Biso   1.000  O
  O17      1.0000 0.44670  0.15750  0.26810  Biso   1.000  O
  O18      1.0000 0.70030  0.47210  0.04560  Biso   1.000  O
  H5       1.0000 0.66800  0.65990  0.93300  Biso   1.000  H
  H6       1.0000 0.59600  0.22500  0.42190  Biso   1.000  H
  Co4      1.0000 0.85434  0.49828  0.71409  Biso   1.000  Co
  P7       1.0000 0.85797  0.47006  0.43221  Biso   1.000  P
  P8       1.0000 0.93194  0.76685  0.79487  Biso   1.000  P
  O19      1.0000 0.96394  0.63159  0.77570  Biso   1.000  O
  O20      1.0000 0.80092  0.52670  0.31738  Biso   1.000  O
  O21      1.0000 0.00788  0.47530  0.42876  Biso   1.000  O
  O22      1.0000 0.80980  0.80870  0.72583  Biso   1.000  O
  O23      1.0000 0.05330  0.84250  0.76810  Biso   1.000  O
  O24      1.0000 0.79970  0.52790  0.54560  Biso   1.000  O
  H7       1.0000 0.83200  0.34010  0.43300  Biso   1.000  H
  H8       1.0000 0.90400  0.77500  0.92190  Biso   1.000  H
