data_image0
_cell_length_a       5.6153
_cell_length_b       9.3336
_cell_length_c       13.3398
_cell_angle_alpha    106.03
_cell_angle_beta     93.611
_cell_angle_gamma    102.05

_symmetry_space_group_name_H-M    P 1
_symmetry_int_tables_number       1

loop_
  _symmetry_equiv_pos_as_xyz
  'x, y, z'

loop_
  _atom_site_label
  _atom_site_occupancy
  _atom_site_fract_x
  _atom_site_fract_y
  _atom_site_fract_z
  _atom_site_thermal_displace_type
  _atom_site_B_iso_or_equiv
  _atom_site_type_symbol
  Mn1      1.0000 0.00000  0.00000  0.00000  Biso   1.000  Mn
  H1       1.0000 0.69900  0.43200  0.51400  Biso   1.000  H
  H2       1.0000 0.59400  0.39370  0.92960  Biso   1.000  H
  H3       1.0000 0.23970  0.35090  0.04970  Biso   1.000  H
  H4       1.0000 0.57560  0.91890  0.79990  Biso   1.000  H
  H5       1.0000 0.42590  0.74690  0.63830  Biso   1.000  H
  H6       1.0000 0.00200  0.56240  0.66090  Biso   1.000  H
  H7       1.0000 0.14080  0.74460  0.81870  Biso   1.000  H
  H8       1.0000 0.30100  0.56800  0.48600  Biso   1.000  H
  H9       1.0000 0.40600  0.60630  0.07040  Biso   1.000  H
  H10      1.0000 0.76030  0.64910  0.95030  Biso   1.000  H
  H11      1.0000 0.42440  0.08110  0.20010  Biso   1.000  H
  H12      1.0000 0.57410  0.25310  0.36170  Biso   1.000  H
  H13      1.0000 0.99800  0.43760  0.33910  Biso   1.000  H
  H14      1.0000 0.85920  0.25540  0.18130  Biso   1.000  H
  C1       1.0000 0.56060  0.14230  0.96230  Biso   1.000  C
  C2       1.0000 0.89710  0.34330  0.98760  Biso   1.000  C
  C3       1.0000 0.75760  0.43600  0.95810  Biso   1.000  C
  C4       1.0000 0.14240  0.41020  0.02960  Biso   1.000  C
  C5       1.0000 0.66240  0.84580  0.77160  Biso   1.000  C
  C6       1.0000 0.56920  0.74160  0.67450  Biso   1.000  C
  C7       1.0000 0.69160  0.62830  0.63120  Biso   1.000  C
  C8       1.0000 0.60150  0.50730  0.53110  Biso   1.000  C
  C9       1.0000 0.91040  0.63330  0.68760  Biso   1.000  C
  C10      1.0000 0.99220  0.74320  0.78300  Biso   1.000  C
  C11      1.0000 0.43940  0.85770  0.03770  Biso   1.000  C
  C12      1.0000 0.10290  0.65670  0.01240  Biso   1.000  C
  C13      1.0000 0.24240  0.56400  0.04190  Biso   1.000  C
  C14      1.0000 0.85760  0.58980  0.97040  Biso   1.000  C
  C15      1.0000 0.33760  0.15420  0.22840  Biso   1.000  C
  C16      1.0000 0.43080  0.25840  0.32550  Biso   1.000  C
  C17      1.0000 0.30840  0.37170  0.36880  Biso   1.000  C
  C18      1.0000 0.39850  0.49270  0.46890  Biso   1.000  C
  C19      1.0000 0.08960  0.36670  0.31240  Biso   1.000  C
  C20      1.0000 0.00780  0.25680  0.21700  Biso   1.000  C
  N1       1.0000 0.34490  0.09630  0.94900  Biso   1.000  N
  N2       1.0000 0.79890  0.18510  0.97620  Biso   1.000  N
  N3       1.0000 0.87030  0.84800  0.82750  Biso   1.000  N
  N4       1.0000 0.65510  0.90370  0.05100  Biso   1.000  N
  N5       1.0000 0.20110  0.81490  0.02380  Biso   1.000  N
  N6       1.0000 0.12970  0.15200  0.17250  Biso   1.000  N
