data_image0
_cell_length_a       5.5655
_cell_length_b       9.3702
_cell_length_c       11.7543
_cell_angle_alpha    94.321
_cell_angle_beta     96.734
_cell_angle_gamma    100.837

_symmetry_space_group_name_H-M    P 1
_symmetry_int_tables_number       1

loop_
  _symmetry_equiv_pos_as_xyz
  'x, y, z'

loop_
  _atom_site_label
  _atom_site_occupancy
  _atom_site_fract_x
  _atom_site_fract_y
  _atom_site_fract_z
  _atom_site_thermal_displace_type
  _atom_site_B_iso_or_equiv
  _atom_site_type_symbol
  Mn1      1.0000 0.00000  0.00000  0.00000  Biso   1.000  Mn
  H1       1.0000 0.18060  0.32450  0.91320  Biso   1.000  H
  H2       1.0000 0.34500  0.56880  0.90990  Biso   1.000  H
  H3       1.0000 0.28860  0.91290  0.79110  Biso   1.000  H
  H4       1.0000 0.28060  0.89840  0.59610  Biso   1.000  H
  H5       1.0000 0.74870  0.11570  0.77490  Biso   1.000  H
  H6       1.0000 0.73140  0.11260  0.58000  Biso   1.000  H
  H7       1.0000 0.81940  0.67550  0.08680  Biso   1.000  H
  H8       1.0000 0.65500  0.43120  0.09010  Biso   1.000  H
  H9       1.0000 0.71140  0.08710  0.20890  Biso   1.000  H
  H10      1.0000 0.71940  0.10160  0.40390  Biso   1.000  H
  H11      1.0000 0.25130  0.88430  0.22510  Biso   1.000  H
  H12      1.0000 0.26860  0.88740  0.42000  Biso   1.000  H
  C1       1.0000 0.10730  0.39440  0.94825  Biso   1.000  C
  C2       1.0000 0.57270  0.16640  0.02026  Biso   1.000  C
  C3       1.0000 0.20610  0.54170  0.94623  Biso   1.000  C
  C4       1.0000 0.00350  0.00300  0.56320  Biso   1.000  C
  C5       1.0000 0.89900  0.35030  0.00237  Biso   1.000  C
  C6       1.0000 0.17020  0.95210  0.74810  Biso   1.000  C
  C7       1.0000 0.16850  0.94410  0.62990  Biso   1.000  C
  C8       1.0000 0.85850  0.07020  0.73890  Biso   1.000  C
  C9       1.0000 0.84650  0.06880  0.62070  Biso   1.000  C
  C10      1.0000 0.89270  0.60560  0.05175  Biso   1.000  C
  C11      1.0000 0.42730  0.83360  0.97974  Biso   1.000  C
  C12      1.0000 0.79390  0.45830  0.05377  Biso   1.000  C
  C13      1.0000 0.99650  0.99700  0.43680  Biso   1.000  C
  C14      1.0000 0.10100  0.64970  0.99763  Biso   1.000  C
  C15      1.0000 0.82980  0.04790  0.25190  Biso   1.000  C
  C16      1.0000 0.83150  0.05590  0.37010  Biso   1.000  C
  C17      1.0000 0.14150  0.92980  0.26110  Biso   1.000  C
  C18      1.0000 0.15350  0.93120  0.37930  Biso   1.000  C
  N1       1.0000 0.01470  0.01160  0.80387  Biso   1.000  N
  N2       1.0000 0.36760  0.13198  0.03802  Biso   1.000  N
  N3       1.0000 0.80040  0.19800  0.00188  Biso   1.000  N
  N4       1.0000 0.98530  0.98840  0.19613  Biso   1.000  N
  N5       1.0000 0.63240  0.86802  0.96198  Biso   1.000  N
  N6       1.0000 0.19960  0.80200  0.99812  Biso   1.000  N
