data_image0
_cell_length_a       11.6635
_cell_length_b       21.3807
_cell_length_c       21.3807
_cell_angle_alpha    63.2305
_cell_angle_beta     79.5232
_cell_angle_gamma    100.477

_symmetry_space_group_name_H-M    P 1
_symmetry_int_tables_number       1

loop_
  _symmetry_equiv_pos_as_xyz
  'x, y, z'

loop_
  _atom_site_label
  _atom_site_occupancy
  _atom_site_fract_x
  _atom_site_fract_y
  _atom_site_fract_z
  _atom_site_thermal_displace_type
  _atom_site_B_iso_or_equiv
  _atom_site_type_symbol
  Nd1      1.0000 0.44474  0.39054  0.07967  Biso   1.000  Nd
  Nd2      1.0000 0.52441  0.07967  0.52979  Biso   1.000  Nd
  Nd3      1.0000 0.05420  0.52979  0.39054  Biso   1.000  Nd
  Nd4      1.0000 0.55527  0.60947  0.92032  Biso   1.000  Nd
  Nd5      1.0000 0.47559  0.92033  0.47021  Biso   1.000  Nd
  Nd6      1.0000 0.94580  0.47021  0.60947  Biso   1.000  Nd
  H1       1.0000 0.15110  0.08180  0.16480  Biso   1.000  H
  H2       1.0000 0.17320  0.13250  0.19900  Biso   1.000  H
  H3       1.0000 0.28450  0.12730  0.15000  Biso   1.000  H
  H4       1.0000 0.15200  0.20420  0.40810  Biso   1.000  H
  H5       1.0000 0.26600  0.21220  0.35010  Biso   1.000  H
  H6       1.0000 0.13910  0.20780  0.33490  Biso   1.000  H
  H7       1.0000 0.15310  0.29650  0.41700  Biso   1.000  H
  H8       1.0000 0.14130  0.36470  0.35020  Biso   1.000  H
  H9       1.0000 0.26800  0.36500  0.36520  Biso   1.000  H
  H10      1.0000 0.79000  0.50200  0.98800  Biso   1.000  H
  H11      1.0000 0.31590  0.16480  0.75340  Biso   1.000  H
  H12      1.0000 0.37220  0.19900  0.66850  Biso   1.000  H
  H13      1.0000 0.43450  0.15000  0.72270  Biso   1.000  H
  H14      1.0000 0.56010  0.40810  0.38770  Biso   1.000  H
  H15      1.0000 0.61610  0.35010  0.43770  Biso   1.000  H
  H16      1.0000 0.47400  0.33490  0.45730  Biso   1.000  H
  H17      1.0000 0.57010  0.41700  0.28650  Biso   1.000  H
  H18      1.0000 0.49150  0.35020  0.28510  Biso   1.000  H
  H19      1.0000 0.63320  0.36520  0.26980  Biso   1.000  H
  H20      1.0000 0.77800  0.98800  0.51000  Biso   1.000  H
  H21      1.0000 0.06930  0.75340  0.08180  Biso   1.000  H
  H22      1.0000 0.04070  0.66850  0.13250  Biso   1.000  H
  H23      1.0000 0.15720  0.72270  0.12730  Biso   1.000  H
  H24      1.0000 0.94780  0.38770  0.20420  Biso   1.000  H
  H25      1.0000 0.05380  0.43770  0.21220  Biso   1.000  H
  H26      1.0000 0.93130  0.45730  0.20780  Biso   1.000  H
  H27      1.0000 0.85660  0.28650  0.29650  Biso   1.000  H
  H28      1.0000 0.77660  0.28510  0.36470  Biso   1.000  H
  H29      1.0000 0.90300  0.26980  0.36500  Biso   1.000  H
  H30      1.0000 0.28800  0.51000  0.50200  Biso   1.000  H
  H31      1.0000 0.84890  0.91820  0.83520  Biso   1.000  H
  H32      1.0000 0.82680  0.86750  0.80100  Biso   1.000  H
  H33      1.0000 0.71550  0.87270  0.85000  Biso   1.000  H
  H34      1.0000 0.84800  0.79580  0.59190  Biso   1.000  H
  H35      1.0000 0.73400  0.78780  0.64990  Biso   1.000  H
  H36      1.0000 0.86090  0.79220  0.66510  Biso   1.000  H
  H37      1.0000 0.84690  0.70350  0.58300  Biso   1.000  H
  H38      1.0000 0.85870  0.63530  0.64980  Biso   1.000  H
  H39      1.0000 0.73200  0.63500  0.63480  Biso   1.000  H
  H40      1.0000 0.21000  0.49800  0.01200  Biso   1.000  H
  H41      1.0000 0.68410  0.83520  0.24660  Biso   1.000  H
  H42      1.0000 0.62780  0.80100  0.33150  Biso   1.000  H
  H43      1.0000 0.56550  0.85000  0.27730  Biso   1.000  H
  H44      1.0000 0.43990  0.59190  0.61230  Biso   1.000  H
  H45      1.0000 0.38390  0.64990  0.56230  Biso   1.000  H
  H46      1.0000 0.52600  0.66510  0.54270  Biso   1.000  H
  H47      1.0000 0.42990  0.58300  0.71350  Biso   1.000  H
  H48      1.0000 0.50850  0.64980  0.71490  Biso   1.000  H
  H49      1.0000 0.36680  0.63480  0.73020  Biso   1.000  H
  H50      1.0000 0.22200  0.01200  0.49000  Biso   1.000  H
  H51      1.0000 0.93070  0.24660  0.91820  Biso   1.000  H
  H52      1.0000 0.95930  0.33150  0.86750  Biso   1.000  H
  H53      1.0000 0.84280  0.27730  0.87270  Biso   1.000  H
  H54      1.0000 0.05220  0.61230  0.79580  Biso   1.000  H
  H55      1.0000 0.94620  0.56230  0.78780  Biso   1.000  H
  H56      1.0000 0.06870  0.54270  0.79220  Biso   1.000  H
  H57      1.0000 0.14340  0.71350  0.70350  Biso   1.000  H
  H58      1.0000 0.22340  0.71490  0.63530  Biso   1.000  H
  H59      1.0000 0.09700  0.73020  0.63500  Biso   1.000  H
  H60      1.0000 0.71200  0.49000  0.49800  Biso   1.000  H
  C1       1.0000 0.47660  0.45810  0.89580  Biso   1.000  C
  C2       1.0000 0.46770  0.44370  0.83280  Biso   1.000  C
  C3       1.0000 0.57200  0.44170  0.79090  Biso   1.000  C
  C4       1.0000 0.57080  0.43950  0.72690  Biso   1.000  C
  C5       1.0000 0.69430  0.44650  0.67870  Biso   1.000  C
  C6       1.0000 0.46690  0.43810  0.70630  Biso   1.000  C
  C7       1.0000 0.35660  0.43750  0.74830  Biso   1.000  C
  C8       1.0000 0.36390  0.44020  0.81160  Biso   1.000  C
  C9       1.0000 0.73250  0.52590  0.96210  Biso   1.000  C
  C10      1.0000 0.25980  0.26000  0.07360  Biso   1.000  C
  C11      1.0000 0.20080  0.12730  0.15690  Biso   1.000  C
  C12      1.0000 0.27860  0.34600  0.24990  Biso   1.000  C
  C13      1.0000 0.19230  0.22560  0.35660  Biso   1.000  C
  C14      1.0000 0.19380  0.33520  0.36720  Biso   1.000  C
  C15      1.0000 0.37240  0.89580  0.64610  Biso   1.000  C
  C16      1.0000 0.30050  0.83280  0.72350  Biso   1.000  C
  C17      1.0000 0.36290  0.79090  0.76740  Biso   1.000  C
  C18      1.0000 0.29770  0.72690  0.83360  Biso   1.000  C
  C19      1.0000 0.37300  0.67870  0.87480  Biso   1.000  C
  C20      1.0000 0.17320  0.70630  0.85560  Biso   1.000  C
  C21      1.0000 0.10490  0.74830  0.81420  Biso   1.000  C
  C22      1.0000 0.17550  0.81160  0.74820  Biso   1.000  C
  C23      1.0000 0.69460  0.96210  0.51200  Biso   1.000  C
  C24      1.0000 0.33340  0.07360  0.66640  Biso   1.000  C
  C25      1.0000 0.35770  0.15690  0.71580  Biso   1.000  C
  C26      1.0000 0.52850  0.24990  0.40410  Biso   1.000  C
  C27      1.0000 0.54890  0.35660  0.41780  Biso   1.000  C
  C28      1.0000 0.56100  0.36720  0.29760  Biso   1.000  C
  C29      1.0000 0.01850  0.64610  0.45810  Biso   1.000  C
  C30      1.0000 0.02400  0.72350  0.44370  Biso   1.000  C
  C31      1.0000 0.13030  0.76740  0.44170  Biso   1.000  C
  C32      1.0000 0.13130  0.83360  0.43950  Biso   1.000  C
  C33      1.0000 0.24780  0.87480  0.44650  Biso   1.000  C
  C34      1.0000 0.02880  0.85560  0.43810  Biso   1.000  C
  C35      1.0000 0.91910  0.81420  0.43750  Biso   1.000  C
  C36      1.0000 0.92370  0.74820  0.44020  Biso   1.000  C
  C37      1.0000 0.20660  0.51200  0.52590  Biso   1.000  C
  C38      1.0000 0.99980  0.66640  0.26000  Biso   1.000  C
  C39      1.0000 0.07350  0.71580  0.12730  Biso   1.000  C
  C40      1.0000 0.93260  0.40410  0.34600  Biso   1.000  C
  C41      1.0000 0.96670  0.41780  0.22560  Biso   1.000  C
  C42      1.0000 0.85860  0.29760  0.33520  Biso   1.000  C
  C43      1.0000 0.52340  0.54190  0.10420  Biso   1.000  C
  C44      1.0000 0.53230  0.55630  0.16720  Biso   1.000  C
  C45      1.0000 0.42800  0.55830  0.20910  Biso   1.000  C
  C46      1.0000 0.42920  0.56050  0.27310  Biso   1.000  C
  C47      1.0000 0.30570  0.55350  0.32130  Biso   1.000  C
  C48      1.0000 0.53310  0.56190  0.29370  Biso   1.000  C
  C49      1.0000 0.64340  0.56250  0.25170  Biso   1.000  C
  C50      1.0000 0.63610  0.55980  0.18840  Biso   1.000  C
  C51      1.0000 0.26750  0.47410  0.03790  Biso   1.000  C
  C52      1.0000 0.74020  0.74000  0.92640  Biso   1.000  C
  C53      1.0000 0.79920  0.87270  0.84310  Biso   1.000  C
  C54      1.0000 0.72140  0.65400  0.75010  Biso   1.000  C
  C55      1.0000 0.80770  0.77440  0.64340  Biso   1.000  C
  C56      1.0000 0.80620  0.66480  0.63280  Biso   1.000  C
  C57      1.0000 0.62760  0.10420  0.35390  Biso   1.000  C
  C58      1.0000 0.69950  0.16720  0.27650  Biso   1.000  C
  C59      1.0000 0.63710  0.20910  0.23260  Biso   1.000  C
  C60      1.0000 0.70230  0.27310  0.16640  Biso   1.000  C
  C61      1.0000 0.62700  0.32130  0.12520  Biso   1.000  C
  C62      1.0000 0.82680  0.29370  0.14440  Biso   1.000  C
  C63      1.0000 0.89510  0.25170  0.18580  Biso   1.000  C
  C64      1.0000 0.82450  0.18840  0.25180  Biso   1.000  C
  C65      1.0000 0.30540  0.03790  0.48800  Biso   1.000  C
  C66      1.0000 0.66660  0.92640  0.33360  Biso   1.000  C
  C67      1.0000 0.64230  0.84310  0.28420  Biso   1.000  C
  C68      1.0000 0.47150  0.75010  0.59590  Biso   1.000  C
  C69      1.0000 0.45110  0.64340  0.58220  Biso   1.000  C
  C70      1.0000 0.43900  0.63280  0.70240  Biso   1.000  C
  C71      1.0000 0.98150  0.35390  0.54190  Biso   1.000  C
  C72      1.0000 0.97600  0.27650  0.55630  Biso   1.000  C
  C73      1.0000 0.86970  0.23260  0.55830  Biso   1.000  C
  C74      1.0000 0.86870  0.16640  0.56050  Biso   1.000  C
  C75      1.0000 0.75220  0.12520  0.55350  Biso   1.000  C
  C76      1.0000 0.97120  0.14440  0.56190  Biso   1.000  C
  C77      1.0000 0.08090  0.18580  0.56250  Biso   1.000  C
  C78      1.0000 0.07630  0.25180  0.55980  Biso   1.000  C
  C79      1.0000 0.79340  0.48800  0.47410  Biso   1.000  C
  C80      1.0000 0.00020  0.33360  0.74000  Biso   1.000  C
  C81      1.0000 0.92650  0.28420  0.87270  Biso   1.000  C
  C82      1.0000 0.06740  0.59590  0.65400  Biso   1.000  C
  C83      1.0000 0.03330  0.58220  0.77440  Biso   1.000  C
  C84      1.0000 0.14140  0.70240  0.66480  Biso   1.000  C
  I1       1.0000 0.72448  0.43476  0.83010  Biso   1.000  I
  I2       1.0000 0.46823  0.43764  0.60823  Biso   1.000  I
  I3       1.0000 0.20569  0.43789  0.87922  Biso   1.000  I
  I4       1.0000 0.55458  0.83010  0.73514  Biso   1.000  I
  I5       1.0000 0.07646  0.60823  0.95413  Biso   1.000  I
  I6       1.0000 0.08491  0.87922  0.68289  Biso   1.000  I
  I7       1.0000 0.28972  0.73514  0.43476  Biso   1.000  I
  I8       1.0000 0.03059  0.95413  0.43764  Biso   1.000  I
  I9       1.0000 0.76780  0.68289  0.43789  Biso   1.000  I
  I10      1.0000 0.27552  0.56524  0.16990  Biso   1.000  I
  I11      1.0000 0.53177  0.56236  0.39177  Biso   1.000  I
  I12      1.0000 0.79431  0.56211  0.12078  Biso   1.000  I
  I13      1.0000 0.44542  0.16990  0.26486  Biso   1.000  I
  I14      1.0000 0.92354  0.39177  0.04587  Biso   1.000  I
  I15      1.0000 0.91509  0.12078  0.31711  Biso   1.000  I
  I16      1.0000 0.71028  0.26486  0.56524  Biso   1.000  I
  I17      1.0000 0.96941  0.04587  0.56236  Biso   1.000  I
  I18      1.0000 0.23220  0.31711  0.56211  Biso   1.000  I
  N1       1.0000 0.18990  0.19420  0.08550  Biso   1.000  N
  N2       1.0000 0.25390  0.43580  0.72710  Biso   1.000  N
  N3       1.0000 0.22160  0.30390  0.32180  Biso   1.000  N
  N4       1.0000 0.27540  0.08550  0.72030  Biso   1.000  N
  N5       1.0000 0.98100  0.72710  0.83710  Biso   1.000  N
  N6       1.0000 0.54340  0.32180  0.37430  Biso   1.000  N
  N7       1.0000 0.99570  0.72030  0.19420  Biso   1.000  N
  N8       1.0000 0.81810  0.83710  0.43580  Biso   1.000  N
  N9       1.0000 0.91770  0.37430  0.30390  Biso   1.000  N
  N10      1.0000 0.81010  0.80580  0.91450  Biso   1.000  N
  N11      1.0000 0.74610  0.56420  0.27290  Biso   1.000  N
  N12      1.0000 0.77840  0.69610  0.67820  Biso   1.000  N
  N13      1.0000 0.72460  0.91450  0.27970  Biso   1.000  N
  N14      1.0000 0.01900  0.27290  0.16290  Biso   1.000  N
  N15      1.0000 0.45660  0.67820  0.62570  Biso   1.000  N
  N16      1.0000 0.00430  0.27970  0.80580  Biso   1.000  N
  N17      1.0000 0.18190  0.16290  0.56420  Biso   1.000  N
  N18      1.0000 0.08230  0.62570  0.69610  Biso   1.000  N
  O1       1.0000 0.44221  0.40388  0.95975  Biso   1.000  O
  O2       1.0000 0.52183  0.52467  0.87438  Biso   1.000  O
  O3       1.0000 0.71650  0.39040  0.68350  Biso   1.000  O
  O4       1.0000 0.76450  0.50830  0.63850  Biso   1.000  O
  O5       1.0000 0.62300  0.49192  0.99262  Biso   1.000  O
  O6       1.0000 0.76950  0.59370  0.91800  Biso   1.000  O
  O7       1.0000 0.32340  0.27300  0.10280  Biso   1.000  O
  O8       1.0000 0.31140  0.32270  0.20950  Biso   1.000  O
  O9       1.0000 0.40196  0.95975  0.63637  Biso   1.000  O
  O10      1.0000 0.39621  0.87438  0.60095  Biso   1.000  O
  O11      1.0000 0.40000  0.68350  0.92610  Biso   1.000  O
  O12      1.0000 0.40300  0.63850  0.85320  Biso   1.000  O
  O13      1.0000 0.61562  0.99262  0.51546  Biso   1.000  O
  O14      1.0000 0.68750  0.91800  0.48830  Biso   1.000  O
  O15      1.0000 0.42620  0.10280  0.62420  Biso   1.000  O
  O16      1.0000 0.52090  0.20950  0.46780  Biso   1.000  O
  O17      1.0000 0.03833  0.63637  0.40388  Biso   1.000  O
  O18      1.0000 0.99716  0.60095  0.52467  Biso   1.000  O
  O19      1.0000 0.32610  0.92610  0.39040  Biso   1.000  O
  O20      1.0000 0.25620  0.85320  0.50830  Biso   1.000  O
  O21      1.0000 0.13108  0.51546  0.49192  Biso   1.000  O
  O22      1.0000 0.17580  0.48830  0.59370  Biso   1.000  O
  O23      1.0000 0.05040  0.62420  0.27300  Biso   1.000  O
  O24      1.0000 0.98870  0.46780  0.32270  Biso   1.000  O
  O25      1.0000 0.55779  0.59612  0.04025  Biso   1.000  O
  O26      1.0000 0.47817  0.47533  0.12562  Biso   1.000  O
  O27      1.0000 0.28350  0.60960  0.31650  Biso   1.000  O
  O28      1.0000 0.23550  0.49170  0.36150  Biso   1.000  O
  O29      1.0000 0.37700  0.50808  0.00738  Biso   1.000  O
  O30      1.0000 0.23050  0.40630  0.08200  Biso   1.000  O
  O31      1.0000 0.67660  0.72700  0.89720  Biso   1.000  O
  O32      1.0000 0.68860  0.67730  0.79050  Biso   1.000  O
  O33      1.0000 0.59804  0.04025  0.36363  Biso   1.000  O
  O34      1.0000 0.60379  0.12562  0.39905  Biso   1.000  O
  O35      1.0000 0.60000  0.31650  0.07390  Biso   1.000  O
  O36      1.0000 0.59700  0.36150  0.14680  Biso   1.000  O
  O37      1.0000 0.38438  0.00738  0.48454  Biso   1.000  O
  O38      1.0000 0.31250  0.08200  0.51170  Biso   1.000  O
  O39      1.0000 0.57380  0.89720  0.37580  Biso   1.000  O
  O40      1.0000 0.47910  0.79050  0.53220  Biso   1.000  O
  O41      1.0000 0.96167  0.36363  0.59612  Biso   1.000  O
  O42      1.0000 0.00284  0.39905  0.47533  Biso   1.000  O
  O43      1.0000 0.67390  0.07390  0.60960  Biso   1.000  O
  O44      1.0000 0.74380  0.14680  0.49170  Biso   1.000  O
  O45      1.0000 0.86892  0.48454  0.50808  Biso   1.000  O
  O46      1.0000 0.82420  0.51170  0.40630  Biso   1.000  O
  O47      1.0000 0.94960  0.37580  0.72700  Biso   1.000  O
  O48      1.0000 0.01130  0.53220  0.67730  Biso   1.000  O
