data_image0
_cell_length_a       6.82019
_cell_length_b       15.1316
_cell_length_c       15.1316
_cell_angle_alpha    62.2159
_cell_angle_beta     81.3591
_cell_angle_gamma    98.6409

_symmetry_space_group_name_H-M    P 1
_symmetry_int_tables_number       1

loop_
  _symmetry_equiv_pos_as_xyz
  'x, y, z'

loop_
  _atom_site_label
  _atom_site_occupancy
  _atom_site_fract_x
  _atom_site_fract_y
  _atom_site_fract_z
  _atom_site_thermal_displace_type
  _atom_site_B_iso_or_equiv
  _atom_site_type_symbol
  Co1      1.0000 0.80208  0.26583  0.32299  Biso   1.000  Co
  Co2      1.0000 0.12507  0.32299  0.41118  Biso   1.000  Co
  Co3      1.0000 0.53625  0.41118  0.26583  Biso   1.000  Co
  Co4      1.0000 0.19792  0.73417  0.67701  Biso   1.000  Co
  Co5      1.0000 0.87493  0.67701  0.58882  Biso   1.000  Co
  Co6      1.0000 0.46375  0.58882  0.73417  Biso   1.000  Co
  H1       1.0000 0.82567  0.46886  0.55158  Biso   1.000  H
  H2       1.0000 0.37725  0.55158  0.97956  Biso   1.000  H
  H3       1.0000 0.35681  0.97956  0.46886  Biso   1.000  H
  H4       1.0000 0.17433  0.53114  0.44842  Biso   1.000  H
  H5       1.0000 0.62275  0.44842  0.02044  Biso   1.000  H
  H6       1.0000 0.64319  0.02044  0.53114  Biso   1.000  H
  C1       1.0000 0.74354  0.38834  0.43767  Biso   1.000  C
  C2       1.0000 0.61501  0.44620  0.46562  Biso   1.000  C
  C3       1.0000 0.43165  0.46497  0.43276  Biso   1.000  C
  C4       1.0000 0.67846  0.48158  0.52872  Biso   1.000  C
  C5       1.0000 0.18121  0.43767  0.17399  Biso   1.000  C
  C6       1.0000 0.08063  0.46562  0.08818  Biso   1.000  C
  C7       1.0000 0.86441  0.43276  0.10227  Biso   1.000  C
  C8       1.0000 0.20718  0.52872  0.98970  Biso   1.000  C
  C9       1.0000 0.35520  0.17399  0.38834  Biso   1.000  C
  C10      1.0000 0.16881  0.08818  0.44620  Biso   1.000  C
  C11      1.0000 0.96668  0.10227  0.46497  Biso   1.000  C
  C12      1.0000 0.19688  0.98970  0.48158  Biso   1.000  C
  C13      1.0000 0.25646  0.61166  0.56233  Biso   1.000  C
  C14      1.0000 0.38499  0.55380  0.53438  Biso   1.000  C
  C15      1.0000 0.56835  0.53503  0.56724  Biso   1.000  C
  C16      1.0000 0.32154  0.51842  0.47128  Biso   1.000  C
  C17      1.0000 0.81879  0.56233  0.82601  Biso   1.000  C
  C18      1.0000 0.91937  0.53438  0.91182  Biso   1.000  C
  C19      1.0000 0.13559  0.56724  0.89773  Biso   1.000  C
  C20      1.0000 0.79282  0.47128  0.01030  Biso   1.000  C
  C21      1.0000 0.64480  0.82601  0.61166  Biso   1.000  C
  C22      1.0000 0.83119  0.91182  0.55380  Biso   1.000  C
  C23      1.0000 0.03332  0.89773  0.53503  Biso   1.000  C
  C24      1.0000 0.80312  0.01030  0.51842  Biso   1.000  C
  O1       1.0000 0.69308  0.36405  0.37429  Biso   1.000  O
  O2       1.0000 0.90065  0.37251  0.47281  Biso   1.000  O
  O3       1.0000 0.35922  0.43852  0.36899  Biso   1.000  O
  O4       1.0000 0.06737  0.37429  0.26166  Biso   1.000  O
  O5       1.0000 0.37346  0.47281  0.15468  Biso   1.000  O
  O6       1.0000 0.72821  0.36899  0.19249  Biso   1.000  O
  O7       1.0000 0.32903  0.26166  0.36405  Biso   1.000  O
  O8       1.0000 0.52814  0.15468  0.37251  Biso   1.000  O
  O9       1.0000 0.92070  0.19249  0.43852  Biso   1.000  O
  O10      1.0000 0.30692  0.63595  0.62571  Biso   1.000  O
  O11      1.0000 0.09935  0.62749  0.52719  Biso   1.000  O
  O12      1.0000 0.64078  0.56148  0.63101  Biso   1.000  O
  O13      1.0000 0.93263  0.62571  0.73834  Biso   1.000  O
  O14      1.0000 0.62654  0.52719  0.84532  Biso   1.000  O
  O15      1.0000 0.27179  0.63101  0.80751  Biso   1.000  O
  O16      1.0000 0.67097  0.73834  0.63595  Biso   1.000  O
  O17      1.0000 0.47186  0.84532  0.62749  Biso   1.000  O
  O18      1.0000 0.07930  0.80751  0.56148  Biso   1.000  O
