data_image0
_cell_length_a       13.643
_cell_length_b       19.7598
_cell_length_c       22.1834
_cell_angle_alpha    77.8882
_cell_angle_beta     72.0911
_cell_angle_gamma    69.8047

_symmetry_space_group_name_H-M    P 1
_symmetry_int_tables_number       1

loop_
  _symmetry_equiv_pos_as_xyz
  'x, y, z'

loop_
  _atom_site_label
  _atom_site_occupancy
  _atom_site_fract_x
  _atom_site_fract_y
  _atom_site_fract_z
  _atom_site_thermal_displace_type
  _atom_site_B_iso_or_equiv
  _atom_site_type_symbol
  Mn1      1.0000 0.28511  0.45281  0.47359  Biso   1.000  Mn
  Mn2      1.0000 0.71151  0.04719  0.02641  Biso   1.000  Mn
  Mn3      1.0000 0.71489  0.54719  0.52641  Biso   1.000  Mn
  Mn4      1.0000 0.28849  0.95281  0.97359  Biso   1.000  Mn
  Mn5      1.0000 0.50000  0.50000  0.50000  Biso   1.000  Mn
  Mn6      1.0000 0.00000  0.00000  0.00000  Biso   1.000  Mn
  H1       1.0000 0.12910  0.67910  0.39750  Biso   1.000  H
  H2       1.0000 0.06310  0.80050  0.36610  Biso   1.000  H
  H3       1.0000 0.26460  0.84320  0.43900  Biso   1.000  H
  H4       1.0000 0.33910  0.72000  0.46480  Biso   1.000  H
  H5       1.0000 0.08600  0.55810  0.41490  Biso   1.000  H
  H6       1.0000 0.91810  0.44680  0.38740  Biso   1.000  H
  H7       1.0000 0.97270  0.30330  0.42730  Biso   1.000  H
  H8       1.0000 0.96690  0.01670  0.20450  Biso   1.000  H
  H9       1.0000 0.96170  0.00260  0.31020  Biso   1.000  H
  H10      1.0000 0.24950  0.85330  0.27930  Biso   1.000  H
  H11      1.0000 0.26050  0.87070  0.17210  Biso   1.000  H
  H12      1.0000 0.54720  0.38750  0.27830  Biso   1.000  H
  H13      1.0000 0.71360  0.32460  0.22040  Biso   1.000  H
  H14      1.0000 0.83150  0.28530  0.37250  Biso   1.000  H
  H15      1.0000 0.66580  0.35050  0.42950  Biso   1.000  H
  H16      1.0000 0.94410  0.55160  0.38500  Biso   1.000  H
  H17      1.0000 0.39770  0.28610  0.53090  Biso   1.000  H
  H18      1.0000 0.25010  0.15300  0.50920  Biso   1.000  H
  H19      1.0000 0.37300  0.16900  0.54740  Biso   1.000  H
  H20      1.0000 0.09420  0.20970  0.45330  Biso   1.000  H
  H21      1.0000 0.70570  0.82090  0.10250  Biso   1.000  H
  H22      1.0000 0.72970  0.69950  0.13390  Biso   1.000  H
  H23      1.0000 0.04680  0.65680  0.06100  Biso   1.000  H
  H24      1.0000 0.02390  0.78000  0.03520  Biso   1.000  H
  H25      1.0000 0.55900  0.94190  0.08510  Biso   1.000  H
  H26      1.0000 0.25230  0.05320  0.11260  Biso   1.000  H
  H27      1.0000 0.20330  0.19670  0.07270  Biso   1.000  H
  H28      1.0000 0.68810  0.48330  0.29550  Biso   1.000  H
  H29      1.0000 0.77450  0.49740  0.18980  Biso   1.000  H
  H30      1.0000 0.88210  0.64670  0.22070  Biso   1.000  H
  H31      1.0000 0.80330  0.62930  0.32790  Biso   1.000  H
  H32      1.0000 0.71300  0.11250  0.22170  Biso   1.000  H
  H33      1.0000 0.75860  0.17540  0.27960  Biso   1.000  H
  H34      1.0000 0.98930  0.21470  0.12750  Biso   1.000  H
  H35      1.0000 0.94580  0.14950  0.07050  Biso   1.000  H
  H36      1.0000 0.38070  0.94840  0.11500  Biso   1.000  H
  H37      1.0000 0.71470  0.21390  0.96910  Biso   1.000  H
  H38      1.0000 0.41230  0.34700  0.99080  Biso   1.000  H
  H39      1.0000 0.58940  0.33100  0.95260  Biso   1.000  H
  H40      1.0000 0.25720  0.29030  0.04670  Biso   1.000  H
  H41      1.0000 0.87090  0.32090  0.60250  Biso   1.000  H
  H42      1.0000 0.93690  0.19950  0.63390  Biso   1.000  H
  H43      1.0000 0.73540  0.15680  0.56100  Biso   1.000  H
  H44      1.0000 0.66090  0.28000  0.53520  Biso   1.000  H
  H45      1.0000 0.91400  0.44190  0.58510  Biso   1.000  H
  H46      1.0000 0.08190  0.55320  0.61260  Biso   1.000  H
  H47      1.0000 0.02730  0.69670  0.57270  Biso   1.000  H
  H48      1.0000 0.03310  0.98330  0.79550  Biso   1.000  H
  H49      1.0000 0.03830  0.99740  0.68980  Biso   1.000  H
  H50      1.0000 0.75050  0.14670  0.72070  Biso   1.000  H
  H51      1.0000 0.73950  0.12930  0.82790  Biso   1.000  H
  H52      1.0000 0.45280  0.61250  0.72170  Biso   1.000  H
  H53      1.0000 0.28640  0.67540  0.77960  Biso   1.000  H
  H54      1.0000 0.16850  0.71470  0.62750  Biso   1.000  H
  H55      1.0000 0.33420  0.64950  0.57050  Biso   1.000  H
  H56      1.0000 0.05590  0.44840  0.61500  Biso   1.000  H
  H57      1.0000 0.60230  0.71390  0.46910  Biso   1.000  H
  H58      1.0000 0.74990  0.84700  0.49080  Biso   1.000  H
  H59      1.0000 0.62700  0.83100  0.45260  Biso   1.000  H
  H60      1.0000 0.90580  0.79030  0.54670  Biso   1.000  H
  H61      1.0000 0.29430  0.17910  0.89750  Biso   1.000  H
  H62      1.0000 0.27030  0.30050  0.86610  Biso   1.000  H
  H63      1.0000 0.95320  0.34320  0.93900  Biso   1.000  H
  H64      1.0000 0.97610  0.22000  0.96480  Biso   1.000  H
  H65      1.0000 0.44100  0.05810  0.91490  Biso   1.000  H
  H66      1.0000 0.74770  0.94680  0.88740  Biso   1.000  H
  H67      1.0000 0.79670  0.80330  0.92730  Biso   1.000  H
  H68      1.0000 0.31190  0.51670  0.70450  Biso   1.000  H
  H69      1.0000 0.22550  0.50260  0.81020  Biso   1.000  H
  H70      1.0000 0.11790  0.35330  0.77930  Biso   1.000  H
  H71      1.0000 0.19670  0.37070  0.67210  Biso   1.000  H
  H72      1.0000 0.28700  0.88750  0.77830  Biso   1.000  H
  H73      1.0000 0.24140  0.82460  0.72040  Biso   1.000  H
  H74      1.0000 0.01070  0.78530  0.87250  Biso   1.000  H
  H75      1.0000 0.05420  0.85050  0.92950  Biso   1.000  H
  H76      1.0000 0.61930  0.05160  0.88500  Biso   1.000  H
  H77      1.0000 0.28530  0.78610  0.03090  Biso   1.000  H
  H78      1.0000 0.58770  0.65300  0.00920  Biso   1.000  H
  H79      1.0000 0.41060  0.66900  0.04740  Biso   1.000  H
  H80      1.0000 0.74280  0.70970  0.95330  Biso   1.000  H
  C1       1.0000 0.28900  0.60673  0.45427  Biso   1.000  C
  C2       1.0000 0.24153  0.68656  0.43518  Biso   1.000  C
  C3       1.0000 0.15814  0.71172  0.40520  Biso   1.000  C
  C4       1.0000 0.11846  0.78458  0.38670  Biso   1.000  C
  C5       1.0000 0.15757  0.83432  0.39774  Biso   1.000  C
  C6       1.0000 0.23877  0.81016  0.42910  Biso   1.000  C
  C7       1.0000 0.28164  0.73622  0.44590  Biso   1.000  C
  C8       1.0000 0.07540  0.51320  0.41880  Biso   1.000  C
  C9       1.0000 0.97400  0.44800  0.40240  Biso   1.000  C
  C10      1.0000 0.03110  0.30920  0.43640  Biso   1.000  C
  C11      1.0000 0.12510  0.38980  0.44740  Biso   1.000  C
  C12      1.0000 0.19250  0.32830  0.47370  Biso   1.000  C
  C13      1.0000 0.02512  0.98439  0.21917  Biso   1.000  C
  C14      1.0000 0.02146  0.97498  0.28250  Biso   1.000  C
  C15      1.0000 0.10382  0.92594  0.30622  Biso   1.000  C
  C16      1.0000 0.19274  0.88702  0.26410  Biso   1.000  C
  C17      1.0000 0.19924  0.89702  0.19990  Biso   1.000  C
  C18      1.0000 0.11528  0.94597  0.17667  Biso   1.000  C
  C19      1.0000 0.12238  0.95742  0.10702  Biso   1.000  C
  C20      1.0000 0.10560  0.91570  0.37670  Biso   1.000  C
  C21      1.0000 0.99389  0.93862  0.42220  Biso   1.000  C
  C22      1.0000 0.16640  0.96450  0.38210  Biso   1.000  C
  C23      1.0000 0.47773  0.41064  0.39950  Biso   1.000  C
  C24      1.0000 0.58931  0.37415  0.36043  Biso   1.000  C
  C25      1.0000 0.60425  0.36661  0.29749  Biso   1.000  C
  C26      1.0000 0.70373  0.32822  0.26312  Biso   1.000  C
  C27      1.0000 0.78910  0.29504  0.29096  Biso   1.000  C
  C28      1.0000 0.77429  0.30500  0.35342  Biso   1.000  C
  C29      1.0000 0.67498  0.34416  0.38748  Biso   1.000  C
  C30      1.0000 0.95560  0.30400  0.21020  Biso   1.000  C
  C31      1.0000 0.99080  0.50900  0.40000  Biso   1.000  C
  C32      1.0000 0.03970  0.38360  0.42740  Biso   1.000  C
  C33      1.0000 0.34240  0.28000  0.51840  Biso   1.000  C
  C34      1.0000 0.25390  0.19970  0.50690  Biso   1.000  C
  C35      1.0000 0.32880  0.20830  0.52730  Biso   1.000  C
  C36      1.0000 0.09680  0.25560  0.45540  Biso   1.000  C
  C37      1.0000 0.17620  0.26140  0.48040  Biso   1.000  C
  C38      1.0000 0.85000  0.89327  0.04573  Biso   1.000  C
  C39      1.0000 0.86327  0.81344  0.06482  Biso   1.000  C
  C40      1.0000 0.77506  0.78828  0.09480  Biso   1.000  C
  C41      1.0000 0.78974  0.71542  0.11330  Biso   1.000  C
  C42      1.0000 0.88963  0.66568  0.10226  Biso   1.000  C
  C43      1.0000 0.97803  0.68984  0.07090  Biso   1.000  C
  C44      1.0000 0.96376  0.76378  0.05410  Biso   1.000  C
  C45      1.0000 0.50740  0.98680  0.08120  Biso   1.000  C
  C46      1.0000 0.32440  0.05200  0.09760  Biso   1.000  C
  C47      1.0000 0.27670  0.19080  0.06360  Biso   1.000  C
  C48      1.0000 0.46230  0.11020  0.05260  Biso   1.000  C
  C49      1.0000 0.49450  0.17170  0.02630  Biso   1.000  C
  C50      1.0000 0.72868  0.51561  0.28083  Biso   1.000  C
  C51      1.0000 0.77894  0.52502  0.21750  Biso   1.000  C
  C52      1.0000 0.83598  0.57406  0.19378  Biso   1.000  C
  C53      1.0000 0.84386  0.61298  0.23590  Biso   1.000  C
  C54      1.0000 0.79616  0.60298  0.30010  Biso   1.000  C
  C55      1.0000 0.73792  0.55403  0.32333  Biso   1.000  C
  C56      1.0000 0.68682  0.54258  0.39298  Biso   1.000  C
  C57      1.0000 0.89800  0.58430  0.12330  Biso   1.000  C
  C58      1.0000 0.85471  0.56138  0.07780  Biso   1.000  C
  C59      1.0000 0.01300  0.53550  0.11790  Biso   1.000  C
  C60      1.0000 0.78787  0.08936  0.10050  Biso   1.000  C
  C61      1.0000 0.82389  0.12585  0.13957  Biso   1.000  C
  C62      1.0000 0.76835  0.13339  0.20251  Biso   1.000  C
  C63      1.0000 0.79507  0.17178  0.23688  Biso   1.000  C
  C64      1.0000 0.87510  0.20496  0.20904  Biso   1.000  C
  C65      1.0000 0.93271  0.19500  0.14658  Biso   1.000  C
  C66      1.0000 0.90662  0.15584  0.11252  Biso   1.000  C
  C67      1.0000 0.96980  0.19600  0.28980  Biso   1.000  C
  C68      1.0000 0.39980  0.99100  0.10000  Biso   1.000  C
  C69      1.0000 0.35070  0.11640  0.07260  Biso   1.000  C
  C70      1.0000 0.64080  0.22000  0.98160  Biso   1.000  C
  C71      1.0000 0.46050  0.30030  0.99310  Biso   1.000  C
  C72      1.0000 0.56440  0.29170  0.97270  Biso   1.000  C
  C73      1.0000 0.30780  0.24440  0.04460  Biso   1.000  C
  C74      1.0000 0.41800  0.23860  0.01960  Biso   1.000  C
  C75      1.0000 0.71100  0.39327  0.54573  Biso   1.000  C
  C76      1.0000 0.75847  0.31344  0.56482  Biso   1.000  C
  C77      1.0000 0.84186  0.28828  0.59480  Biso   1.000  C
  C78      1.0000 0.88154  0.21542  0.61330  Biso   1.000  C
  C79      1.0000 0.84243  0.16568  0.60226  Biso   1.000  C
  C80      1.0000 0.76123  0.18984  0.57090  Biso   1.000  C
  C81      1.0000 0.71836  0.26378  0.55410  Biso   1.000  C
  C82      1.0000 0.92460  0.48680  0.58120  Biso   1.000  C
  C83      1.0000 0.02600  0.55200  0.59760  Biso   1.000  C
  C84      1.0000 0.96890  0.69080  0.56360  Biso   1.000  C
  C85      1.0000 0.87490  0.61020  0.55260  Biso   1.000  C
  C86      1.0000 0.80750  0.67170  0.52630  Biso   1.000  C
  C87      1.0000 0.97488  0.01561  0.78083  Biso   1.000  C
  C88      1.0000 0.97854  0.02502  0.71750  Biso   1.000  C
  C89      1.0000 0.89618  0.07406  0.69378  Biso   1.000  C
  C90      1.0000 0.80726  0.11298  0.73590  Biso   1.000  C
  C91      1.0000 0.80076  0.10298  0.80010  Biso   1.000  C
  C92      1.0000 0.88472  0.05403  0.82333  Biso   1.000  C
  C93      1.0000 0.87762  0.04258  0.89298  Biso   1.000  C
  C94      1.0000 0.89440  0.08430  0.62330  Biso   1.000  C
  C95      1.0000 0.00611  0.06138  0.57780  Biso   1.000  C
  C96      1.0000 0.83360  0.03550  0.61790  Biso   1.000  C
  C97      1.0000 0.52227  0.58936  0.60050  Biso   1.000  C
  C98      1.0000 0.41069  0.62585  0.63957  Biso   1.000  C
  C99      1.0000 0.39575  0.63339  0.70251  Biso   1.000  C
  C100     1.0000 0.29627  0.67178  0.73688  Biso   1.000  C
  C101     1.0000 0.21090  0.70496  0.70904  Biso   1.000  C
  C102     1.0000 0.22571  0.69500  0.64658  Biso   1.000  C
  C103     1.0000 0.32502  0.65584  0.61252  Biso   1.000  C
  C104     1.0000 0.04440  0.69600  0.78980  Biso   1.000  C
  C105     1.0000 0.00920  0.49100  0.60000  Biso   1.000  C
  C106     1.0000 0.96030  0.61640  0.57260  Biso   1.000  C
  C107     1.0000 0.65760  0.72000  0.48160  Biso   1.000  C
  C108     1.0000 0.74610  0.80030  0.49310  Biso   1.000  C
  C109     1.0000 0.67120  0.79170  0.47270  Biso   1.000  C
  C110     1.0000 0.90320  0.74440  0.54460  Biso   1.000  C
  C111     1.0000 0.82380  0.73860  0.51960  Biso   1.000  C
  C112     1.0000 0.15000  0.10673  0.95427  Biso   1.000  C
  C113     1.0000 0.13673  0.18656  0.93518  Biso   1.000  C
  C114     1.0000 0.22494  0.21172  0.90520  Biso   1.000  C
  C115     1.0000 0.21026  0.28458  0.88670  Biso   1.000  C
  C116     1.0000 0.11037  0.33432  0.89774  Biso   1.000  C
  C117     1.0000 0.02197  0.31016  0.92910  Biso   1.000  C
  C118     1.0000 0.03624  0.23622  0.94590  Biso   1.000  C
  C119     1.0000 0.49260  0.01320  0.91880  Biso   1.000  C
  C120     1.0000 0.67560  0.94800  0.90240  Biso   1.000  C
  C121     1.0000 0.72330  0.80920  0.93640  Biso   1.000  C
  C122     1.0000 0.53770  0.88980  0.94740  Biso   1.000  C
  C123     1.0000 0.50550  0.82830  0.97370  Biso   1.000  C
  C124     1.0000 0.27132  0.48439  0.71917  Biso   1.000  C
  C125     1.0000 0.22106  0.47498  0.78250  Biso   1.000  C
  C126     1.0000 0.16402  0.42594  0.80622  Biso   1.000  C
  C127     1.0000 0.15614  0.38702  0.76410  Biso   1.000  C
  C128     1.0000 0.20384  0.39702  0.69990  Biso   1.000  C
  C129     1.0000 0.26208  0.44597  0.67667  Biso   1.000  C
  C130     1.0000 0.31318  0.45742  0.60702  Biso   1.000  C
  C131     1.0000 0.10200  0.41570  0.87670  Biso   1.000  C
  C132     1.0000 0.14529  0.43862  0.92220  Biso   1.000  C
  C133     1.0000 0.98700  0.46450  0.88210  Biso   1.000  C
  C134     1.0000 0.21213  0.91064  0.89950  Biso   1.000  C
  C135     1.0000 0.17611  0.87415  0.86043  Biso   1.000  C
  C136     1.0000 0.23165  0.86661  0.79749  Biso   1.000  C
  C137     1.0000 0.20493  0.82822  0.76312  Biso   1.000  C
  C138     1.0000 0.12490  0.79504  0.79096  Biso   1.000  C
  C139     1.0000 0.06729  0.80500  0.85342  Biso   1.000  C
  C140     1.0000 0.09338  0.84416  0.88748  Biso   1.000  C
  C141     1.0000 0.03020  0.80400  0.71020  Biso   1.000  C
  C142     1.0000 0.60020  0.00900  0.90000  Biso   1.000  C
  C143     1.0000 0.64930  0.88360  0.92740  Biso   1.000  C
  C144     1.0000 0.35920  0.78000  0.01840  Biso   1.000  C
  C145     1.0000 0.53950  0.69970  0.00690  Biso   1.000  C
  C146     1.0000 0.43560  0.70830  0.02730  Biso   1.000  C
  C147     1.0000 0.69220  0.75560  0.95540  Biso   1.000  C
  C148     1.0000 0.58200  0.76140  0.98040  Biso   1.000  C
  C149     1.0000 0.89850  0.25000  0.25000  Biso   1.000  C
  C150     1.0000 0.10150  0.75000  0.75000  Biso   1.000  C
  N1       1.0000 0.14231  0.45438  0.44260  Biso   1.000  N
  N2       1.0000 0.27505  0.33730  0.49220  Biso   1.000  N
  N3       1.0000 0.53929  0.04562  0.05740  Biso   1.000  N
  N4       1.0000 0.60455  0.16270  0.00780  Biso   1.000  N
  N5       1.0000 0.85769  0.54562  0.55740  Biso   1.000  N
  N6       1.0000 0.72495  0.66270  0.50780  Biso   1.000  N
  N7       1.0000 0.46071  0.95438  0.94260  Biso   1.000  N
  N8       1.0000 0.39545  0.83730  0.99220  Biso   1.000  N
  O1       1.0000 0.37314  0.58838  0.47134  Biso   1.000  O
  O2       1.0000 0.23863  0.56527  0.45147  Biso   1.000  O
  O3       1.0000 0.46684  0.42131  0.45555  Biso   1.000  O
  O4       1.0000 0.40008  0.42641  0.37683  Biso   1.000  O
  O5       1.0000 0.03620  0.97882  0.09018  Biso   1.000  O
  O6       1.0000 0.21648  0.94430  0.07074  Biso   1.000  O
  O7       1.0000 0.93286  0.91162  0.02866  Biso   1.000  O
  O8       1.0000 0.75537  0.93473  0.04853  Biso   1.000  O
  O9       1.0000 0.84370  0.07869  0.04445  Biso   1.000  O
  O10      1.0000 0.70332  0.07359  0.12317  Biso   1.000  O
  O11      1.0000 0.60520  0.52118  0.40982  Biso   1.000  O
  O12      1.0000 0.73152  0.55570  0.42926  Biso   1.000  O
  O13      1.0000 0.62686  0.41162  0.52866  Biso   1.000  O
  O14      1.0000 0.76137  0.43473  0.54853  Biso   1.000  O
  O15      1.0000 0.53316  0.57869  0.54445  Biso   1.000  O
  O16      1.0000 0.59992  0.57359  0.62317  Biso   1.000  O
  O17      1.0000 0.96380  0.02118  0.90982  Biso   1.000  O
  O18      1.0000 0.78352  0.05570  0.92926  Biso   1.000  O
  O19      1.0000 0.06714  0.08838  0.97134  Biso   1.000  O
  O20      1.0000 0.24463  0.06527  0.95147  Biso   1.000  O
  O21      1.0000 0.15630  0.92131  0.95555  Biso   1.000  O
  O22      1.0000 0.29668  0.92641  0.87683  Biso   1.000  O
  O23      1.0000 0.39480  0.47882  0.59018  Biso   1.000  O
  O24      1.0000 0.26848  0.44430  0.57074  Biso   1.000  O
  F1       1.0000 0.27171  0.94092  0.35026  Biso   1.000  F
  F2       1.0000 0.16702  0.96781  0.44095  Biso   1.000  F
  F3       1.0000 0.13072  0.03219  0.35657  Biso   1.000  F
  F4       1.0000 0.94622  0.01078  0.41858  Biso   1.000  F
  F5       1.0000 0.99552  0.91691  0.48245  Biso   1.000  F
  F6       1.0000 0.92455  0.91115  0.41115  Biso   1.000  F
  F7       1.0000 0.95766  0.35092  0.24516  Biso   1.000  F
  F8       1.0000 0.90683  0.34487  0.16507  Biso   1.000  F
  F9       1.0000 0.05804  0.27411  0.17981  Biso   1.000  F
  F10      1.0000 0.06289  0.55908  0.14974  Biso   1.000  F
  F11      1.0000 0.07578  0.53219  0.05905  Biso   1.000  F
  F12      1.0000 0.01948  0.46781  0.14343  Biso   1.000  F
  F13      1.0000 0.87558  0.48922  0.08142  Biso   1.000  F
  F14      1.0000 0.89488  0.58309  0.01755  Biso   1.000  F
  F15      1.0000 0.74685  0.58885  0.08885  Biso   1.000  F
  F16      1.0000 0.05374  0.14908  0.25484  Biso   1.000  F
  F17      1.0000 0.91677  0.15513  0.33493  Biso   1.000  F
  F18      1.0000 0.01196  0.22589  0.32019  Biso   1.000  F
  F19      1.0000 0.72829  0.05908  0.64974  Biso   1.000  F
  F20      1.0000 0.83298  0.03219  0.55905  Biso   1.000  F
  F21      1.0000 0.86928  0.96781  0.64343  Biso   1.000  F
  F22      1.0000 0.05378  0.98922  0.58142  Biso   1.000  F
  F23      1.0000 0.00448  0.08309  0.51755  Biso   1.000  F
  F24      1.0000 0.07545  0.08885  0.58885  Biso   1.000  F
  F25      1.0000 0.04234  0.64908  0.75484  Biso   1.000  F
  F26      1.0000 0.09317  0.65513  0.83493  Biso   1.000  F
  F27      1.0000 0.94196  0.72589  0.82019  Biso   1.000  F
  F28      1.0000 0.93711  0.44092  0.85026  Biso   1.000  F
  F29      1.0000 0.92422  0.46781  0.94095  Biso   1.000  F
  F30      1.0000 0.98052  0.53219  0.85657  Biso   1.000  F
  F31      1.0000 0.12442  0.51078  0.91858  Biso   1.000  F
  F32      1.0000 0.10512  0.41691  0.98245  Biso   1.000  F
  F33      1.0000 0.25315  0.41115  0.91115  Biso   1.000  F
  F34      1.0000 0.94626  0.85092  0.74516  Biso   1.000  F
  F35      1.0000 0.08323  0.84487  0.66507  Biso   1.000  F
  F36      1.0000 0.98804  0.77411  0.67981  Biso   1.000  F
