data_image0
_cell_length_a       15.8983
_cell_length_b       26.422
_cell_length_c       16.3418
_cell_angle_alpha    90
_cell_angle_beta     116.881
_cell_angle_gamma    90

_symmetry_space_group_name_H-M    "P 1"
_symmetry_int_tables_number       1

loop_
  _symmetry_equiv_pos_as_xyz
  'x, y, z'

loop_
  _atom_site_label
  _atom_site_occupancy
  _atom_site_fract_x
  _atom_site_fract_y
  _atom_site_fract_z
  _atom_site_thermal_displace_type
  _atom_site_B_iso_or_equiv
  _atom_site_type_symbol
  Co1      1.0000 0.23019  0.50347  0.52220  Biso   1.000  Co
  Co2      1.0000 0.44686  0.50841  0.67991  Biso   1.000  Co
  Co3      1.0000 0.39105  0.52369  0.44082  Biso   1.000  Co
  N1       1.0000 0.08770  0.50248  0.50150  Biso   1.000  N
  O1       1.0000 0.39150  0.44325  0.71120  Biso   1.000  O
  O2       1.0000 0.24260  0.43873  0.60150  Biso   1.000  O
  O3       1.0000 0.23510  0.25734  0.84870  Biso   1.000  O
  O4       1.0000 0.48610  0.07336  0.84000  Biso   1.000  O
  O5       1.0000 0.46820  0.05013  0.96270  Biso   1.000  O
  O6       1.0000 0.25880  0.54857  0.63940  Biso   1.000  O
  O7       1.0000 0.40390  0.55482  0.75290  Biso   1.000  O
  O8       1.0000 0.17160  0.68748  0.90680  Biso   1.000  O
  O9       1.0000 0.20240  0.92681  0.95560  Biso   1.000  O
  O10      1.0000 0.33520  0.90765  0.94640  Biso   1.000  O
  O11      1.0000 0.42070  0.54616  0.33500  Biso   1.000  O
  O12      1.0000 0.42640  0.51052  0.21560  Biso   1.000  O
  O13      1.0000 0.03730  0.62516  0.00390  Biso   1.000  O
  O14      1.0000 0.81620  0.53981  0.59660  Biso   1.000  O
  O15      1.0000 0.72890  0.50998  0.66160  Biso   1.000  O
  O16      1.0000 0.36970  0.49622  0.54620  Biso   1.000  O
  C1       1.0000 0.30920  0.42578  0.67620  Biso   1.000  C
  C2       1.0000 0.28920  0.38370  0.72620  Biso   1.000  C
  C3       1.0000 0.19890  0.36310  0.69380  Biso   1.000  C
  H1       1.0000 0.14830  0.37810  0.64210  Biso   1.000  H
  C4       1.0000 0.18110  0.32200  0.73460  Biso   1.000  C
  H2       1.0000 0.11920  0.30840  0.71080  Biso   1.000  H
  C5       1.0000 0.25360  0.30040  0.81020  Biso   1.000  C
  C6       1.0000 0.34240  0.31980  0.84670  Biso   1.000  C
  H3       1.0000 0.39120  0.30500  0.90010  Biso   1.000  H
  C7       1.0000 0.36200  0.36260  0.80400  Biso   1.000  C
  H4       1.0000 0.42380  0.37640  0.82850  Biso   1.000  H
  C8       1.0000 0.29000  0.21470  0.85820  Biso   1.000  C
  C9       1.0000 0.33900  0.20650  0.80980  Biso   1.000  C
  H5       1.0000 0.33760  0.23100  0.76660  Biso   1.000  H
  C10      1.0000 0.39060  0.16330  0.82280  Biso   1.000  C
  H6       1.0000 0.42290  0.15810  0.78680  Biso   1.000  H
  C11      1.0000 0.39770  0.12670  0.88570  Biso   1.000  C
  C12      1.0000 0.34340  0.13480  0.93170  Biso   1.000  C
  H7       1.0000 0.34310  0.10990  0.97350  Biso   1.000  H
  C13      1.0000 0.29000  0.17800  0.91820  Biso   1.000  C
  H8       1.0000 0.25320  0.18250  0.95010  Biso   1.000  H
  C14      1.0000 0.45570  0.08020  0.89640  Biso   1.000  C
  C15      1.0000 0.31580  0.56395  0.71650  Biso   1.000  C
  C16      1.0000 0.28090  0.59591  0.76960  Biso   1.000  C
  C17      1.0000 0.19290  0.62020  0.72290  Biso   1.000  C
  H9       1.0000 0.15680  0.61550  0.65860  Biso   1.000  H
  C18      1.0000 0.15890  0.65050  0.76930  Biso   1.000  C
  H10      1.0000 0.10050  0.66760  0.73670  Biso   1.000  H
  C19      1.0000 0.20850  0.65620  0.86190  Biso   1.000  C
  C20      1.0000 0.29450  0.63210  0.91070  Biso   1.000  C
  H11      1.0000 0.32900  0.63620  0.97530  Biso   1.000  H
  C21      1.0000 0.32890  0.60210  0.86340  Biso   1.000  C
  H12      1.0000 0.38740  0.58520  0.89650  Biso   1.000  H
  C22      1.0000 0.19030  0.73870  0.90980  Biso   1.000  C
  C23      1.0000 0.13410  0.77070  0.92980  Biso   1.000  C
  H13      1.0000 0.08170  0.75780  0.93640  Biso   1.000  H
  C24      1.0000 0.15460  0.82230  0.94030  Biso   1.000  C
  H14      1.0000 0.11620  0.84450  0.95460  Biso   1.000  H
  C25      1.0000 0.22970  0.84160  0.93020  Biso   1.000  C
  C26      1.0000 0.28450  0.80870  0.90950  Biso   1.000  C
  H15      1.0000 0.33730  0.82150  0.90370  Biso   1.000  H
  C27      1.0000 0.26460  0.75760  0.89700  Biso   1.000  C
  H16      1.0000 0.30140  0.73580  0.87970  Biso   1.000  H
  C28      1.0000 0.25800  0.89730  0.94540  Biso   1.000  C
  C29      1.0000 0.38560  0.53817  0.24930  Biso   1.000  C
  C30      1.0000 0.29350  0.56237  0.18360  Biso   1.000  C
  C31      1.0000 0.24460  0.59239  0.21450  Biso   1.000  C
  H17      1.0000 0.26980  0.59950  0.27820  Biso   1.000  H
  C32      1.0000 0.15810  0.61290  0.15370  Biso   1.000  C
  H18      1.0000 0.12350  0.63360  0.17540  Biso   1.000  H
  C33      1.0000 0.12310  0.60247  0.06030  Biso   1.000  C
  C34      1.0000 0.17170  0.57220  0.02880  Biso   1.000  C
  H19      1.0000 0.14670  0.56470  0.96520  Biso   1.000  H
  C35      1.0000 0.25840  0.55260  0.09080  Biso   1.000  C
  H20      1.0000 0.29380  0.53240  0.06930  Biso   1.000  H
  C36      1.0000 0.98140  0.60170  0.91830  Biso   1.000  C
  C37      1.0000 0.94040  0.55550  0.91870  Biso   1.000  C
  H21      1.0000 0.95310  0.53890  0.97470  Biso   1.000  H
  C38      1.0000 0.87980  0.53430  0.83430  Biso   1.000  C
  H22      1.0000 0.84860  0.50330  0.83270  Biso   1.000  H
  C39      1.0000 0.86440  0.55740  0.75340  Biso   1.000  C
  C40      1.0000 0.90980  0.60270  0.75610  Biso   1.000  C
  H23      1.0000 0.90120  0.61840  0.70060  Biso   1.000  H
  C41      1.0000 0.96700  0.62500  0.83900  Biso   1.000  C
  H24      1.0000 0.99640  0.65660  0.84070  Biso   1.000  H
  C42      1.0000 0.79840  0.53370  0.66260  Biso   1.000  C
  C43      1.0000 0.04070  0.45910  0.48720  Biso   1.000  C
  H25      1.0000 0.05600  0.43300  0.47500  Biso   1.000  H
  C44      1.0000 0.04510  0.54380  0.51340  Biso   1.000  C
  H26      1.0000 0.07900  0.57410  0.52100  Biso   1.000  H
  H27      1.0000 0.38700  0.46900  0.55100  Biso   1.000  H
  Co4      1.0000 0.76981  0.00347  0.97780  Biso   1.000  Co
  Co5      1.0000 0.55314  0.00841  0.82009  Biso   1.000  Co
  Co6      1.0000 0.60895  0.02369  0.05918  Biso   1.000  Co
  N2       1.0000 0.91230  0.00248  0.99850  Biso   1.000  N
  O17      1.0000 0.60850  0.94325  0.78880  Biso   1.000  O
  O18      1.0000 0.75740  0.93873  0.89850  Biso   1.000  O
  O19      1.0000 0.76490  0.75734  0.65130  Biso   1.000  O
  O20      1.0000 0.51390  0.57336  0.66000  Biso   1.000  O
  O21      1.0000 0.53180  0.55013  0.53730  Biso   1.000  O
  O22      1.0000 0.74120  0.04857  0.86060  Biso   1.000  O
  O23      1.0000 0.59610  0.05482  0.74710  Biso   1.000  O
  O24      1.0000 0.82840  0.18748  0.59320  Biso   1.000  O
  O25      1.0000 0.79760  0.42681  0.54440  Biso   1.000  O
  O26      1.0000 0.66480  0.40765  0.55360  Biso   1.000  O
  O27      1.0000 0.57930  0.04616  0.16500  Biso   1.000  O
  O28      1.0000 0.57360  0.01052  0.28440  Biso   1.000  O
  O29      1.0000 0.96270  0.12516  0.49610  Biso   1.000  O
  O30      1.0000 0.18380  0.03981  0.90340  Biso   1.000  O
  O31      1.0000 0.27110  0.00998  0.83840  Biso   1.000  O
  O32      1.0000 0.63030  0.99622  0.95380  Biso   1.000  O
  C45      1.0000 0.69080  0.92578  0.82380  Biso   1.000  C
  C46      1.0000 0.71080  0.88370  0.77380  Biso   1.000  C
  C47      1.0000 0.80110  0.86310  0.80620  Biso   1.000  C
  H28      1.0000 0.85170  0.87810  0.85790  Biso   1.000  H
  C48      1.0000 0.81890  0.82200  0.76540  Biso   1.000  C
  H29      1.0000 0.88080  0.80840  0.78920  Biso   1.000  H
  C49      1.0000 0.74640  0.80040  0.68980  Biso   1.000  C
  C50      1.0000 0.65760  0.81980  0.65330  Biso   1.000  C
  H30      1.0000 0.60880  0.80500  0.59990  Biso   1.000  H
  C51      1.0000 0.63800  0.86260  0.69600  Biso   1.000  C
  H31      1.0000 0.57620  0.87640  0.67150  Biso   1.000  H
  C52      1.0000 0.71000  0.71470  0.64180  Biso   1.000  C
  C53      1.0000 0.66100  0.70650  0.69020  Biso   1.000  C
  H32      1.0000 0.66240  0.73100  0.73340  Biso   1.000  H
  C54      1.0000 0.60940  0.66330  0.67720  Biso   1.000  C
  H33      1.0000 0.57710  0.65810  0.71320  Biso   1.000  H
  C55      1.0000 0.60230  0.62670  0.61430  Biso   1.000  C
  C56      1.0000 0.65660  0.63480  0.56830  Biso   1.000  C
  H34      1.0000 0.65690  0.60990  0.52650  Biso   1.000  H
  C57      1.0000 0.71000  0.67800  0.58180  Biso   1.000  C
  H35      1.0000 0.74680  0.68250  0.54990  Biso   1.000  H
  C58      1.0000 0.54430  0.58020  0.60360  Biso   1.000  C
  C59      1.0000 0.68420  0.06395  0.78350  Biso   1.000  C
  C60      1.0000 0.71910  0.09591  0.73040  Biso   1.000  C
  C61      1.0000 0.80710  0.12020  0.77710  Biso   1.000  C
  H36      1.0000 0.84320  0.11550  0.84140  Biso   1.000  H
  C62      1.0000 0.84110  0.15050  0.73070  Biso   1.000  C
  H37      1.0000 0.89950  0.16760  0.76330  Biso   1.000  H
  C63      1.0000 0.79150  0.15620  0.63810  Biso   1.000  C
  C64      1.0000 0.70550  0.13210  0.58930  Biso   1.000  C
  H38      1.0000 0.67100  0.13620  0.52470  Biso   1.000  H
  C65      1.0000 0.67110  0.10210  0.63660  Biso   1.000  C
  H39      1.0000 0.61260  0.08520  0.60350  Biso   1.000  H
  C66      1.0000 0.80970  0.23870  0.59020  Biso   1.000  C
  C67      1.0000 0.86590  0.27070  0.57020  Biso   1.000  C
  H40      1.0000 0.91830  0.25780  0.56360  Biso   1.000  H
  C68      1.0000 0.84540  0.32230  0.55970  Biso   1.000  C
  H41      1.0000 0.88380  0.34450  0.54540  Biso   1.000  H
  C69      1.0000 0.77030  0.34160  0.56980  Biso   1.000  C
  C70      1.0000 0.71550  0.30870  0.59050  Biso   1.000  C
  H42      1.0000 0.66270  0.32150  0.59630  Biso   1.000  H
  C71      1.0000 0.73540  0.25760  0.60300  Biso   1.000  C
  H43      1.0000 0.69860  0.23580  0.62030  Biso   1.000  H
  C72      1.0000 0.74200  0.39730  0.55460  Biso   1.000  C
  C73      1.0000 0.61440  0.03817  0.25070  Biso   1.000  C
  C74      1.0000 0.70650  0.06237  0.31640  Biso   1.000  C
  C75      1.0000 0.75540  0.09239  0.28550  Biso   1.000  C
  H44      1.0000 0.73020  0.09950  0.22180  Biso   1.000  H
  C76      1.0000 0.84190  0.11290  0.34630  Biso   1.000  C
  H45      1.0000 0.87650  0.13360  0.32460  Biso   1.000  H
  C77      1.0000 0.87690  0.10247  0.43970  Biso   1.000  C
  C78      1.0000 0.82830  0.07220  0.47120  Biso   1.000  C
  H46      1.0000 0.85330  0.06470  0.53480  Biso   1.000  H
  C79      1.0000 0.74160  0.05260  0.40920  Biso   1.000  C
  H47      1.0000 0.70620  0.03240  0.43070  Biso   1.000  H
  C80      1.0000 0.01860  0.10170  0.58170  Biso   1.000  C
  C81      1.0000 0.05960  0.05550  0.58130  Biso   1.000  C
  H48      1.0000 0.04690  0.03890  0.52530  Biso   1.000  H
  C82      1.0000 0.12020  0.03430  0.66570  Biso   1.000  C
  H49      1.0000 0.15140  0.00330  0.66730  Biso   1.000  H
  C83      1.0000 0.13560  0.05740  0.74660  Biso   1.000  C
  C84      1.0000 0.09020  0.10270  0.74390  Biso   1.000  C
  H50      1.0000 0.09880  0.11840  0.79940  Biso   1.000  H
  C85      1.0000 0.03300  0.12500  0.66100  Biso   1.000  C
  H51      1.0000 0.00360  0.15660  0.65930  Biso   1.000  H
  C86      1.0000 0.20160  0.03370  0.83740  Biso   1.000  C
  C87      1.0000 0.95930  0.95910  0.01280  Biso   1.000  C
  H52      1.0000 0.94400  0.93300  0.02500  Biso   1.000  H
  C88      1.0000 0.95490  0.04380  0.98660  Biso   1.000  C
  H53      1.0000 0.92100  0.07410  0.97900  Biso   1.000  H
  H54      1.0000 0.61300  0.96900  0.94900  Biso   1.000  H
  Co7      1.0000 0.76981  0.49653  0.47780  Biso   1.000  Co
  Co8      1.0000 0.55314  0.49159  0.32009  Biso   1.000  Co
  Co9      1.0000 0.60895  0.47631  0.55918  Biso   1.000  Co
  N3       1.0000 0.91230  0.49752  0.49850  Biso   1.000  N
  O33      1.0000 0.60850  0.55675  0.28880  Biso   1.000  O
  O34      1.0000 0.75740  0.56127  0.39850  Biso   1.000  O
  O35      1.0000 0.76490  0.74266  0.15130  Biso   1.000  O
  O36      1.0000 0.51390  0.92664  0.16000  Biso   1.000  O
  O37      1.0000 0.53180  0.94987  0.03730  Biso   1.000  O
  O38      1.0000 0.74120  0.45143  0.36060  Biso   1.000  O
  O39      1.0000 0.59610  0.44518  0.24710  Biso   1.000  O
  O40      1.0000 0.82840  0.31252  0.09320  Biso   1.000  O
  O41      1.0000 0.79760  0.07319  0.04440  Biso   1.000  O
  O42      1.0000 0.66480  0.09235  0.05360  Biso   1.000  O
  O43      1.0000 0.57930  0.45384  0.66500  Biso   1.000  O
  O44      1.0000 0.57360  0.48948  0.78440  Biso   1.000  O
  O45      1.0000 0.96270  0.37484  0.99610  Biso   1.000  O
  O46      1.0000 0.18380  0.46019  0.40340  Biso   1.000  O
  O47      1.0000 0.27110  0.49002  0.33840  Biso   1.000  O
  O48      1.0000 0.63030  0.50378  0.45380  Biso   1.000  O
  C89      1.0000 0.69080  0.57422  0.32380  Biso   1.000  C
  C90      1.0000 0.71080  0.61630  0.27380  Biso   1.000  C
  C91      1.0000 0.80110  0.63690  0.30620  Biso   1.000  C
  H55      1.0000 0.85170  0.62190  0.35790  Biso   1.000  H
  C92      1.0000 0.81890  0.67800  0.26540  Biso   1.000  C
  H56      1.0000 0.88080  0.69160  0.28920  Biso   1.000  H
  C93      1.0000 0.74640  0.69960  0.18980  Biso   1.000  C
  C94      1.0000 0.65760  0.68020  0.15330  Biso   1.000  C
  H57      1.0000 0.60880  0.69500  0.09990  Biso   1.000  H
  C95      1.0000 0.63800  0.63740  0.19600  Biso   1.000  C
  H58      1.0000 0.57620  0.62360  0.17150  Biso   1.000  H
  C96      1.0000 0.71000  0.78530  0.14180  Biso   1.000  C
  C97      1.0000 0.66100  0.79350  0.19020  Biso   1.000  C
  H59      1.0000 0.66240  0.76900  0.23340  Biso   1.000  H
  C98      1.0000 0.60940  0.83670  0.17720  Biso   1.000  C
  H60      1.0000 0.57710  0.84190  0.21320  Biso   1.000  H
  C99      1.0000 0.60230  0.87330  0.11430  Biso   1.000  C
  C100     1.0000 0.65660  0.86520  0.06830  Biso   1.000  C
  H61      1.0000 0.65690  0.89010  0.02650  Biso   1.000  H
  C101     1.0000 0.71000  0.82200  0.08180  Biso   1.000  C
  H62      1.0000 0.74680  0.81750  0.04990  Biso   1.000  H
  C102     1.0000 0.54430  0.91980  0.10360  Biso   1.000  C
  C103     1.0000 0.68420  0.43605  0.28350  Biso   1.000  C
  C104     1.0000 0.71910  0.40409  0.23040  Biso   1.000  C
  C105     1.0000 0.80710  0.37980  0.27710  Biso   1.000  C
  H63      1.0000 0.84320  0.38450  0.34140  Biso   1.000  H
  C106     1.0000 0.84110  0.34950  0.23070  Biso   1.000  C
  H64      1.0000 0.89950  0.33240  0.26330  Biso   1.000  H
  C107     1.0000 0.79150  0.34380  0.13810  Biso   1.000  C
  C108     1.0000 0.70550  0.36790  0.08930  Biso   1.000  C
  H65      1.0000 0.67100  0.36380  0.02470  Biso   1.000  H
  C109     1.0000 0.67110  0.39790  0.13660  Biso   1.000  C
  H66      1.0000 0.61260  0.41480  0.10350  Biso   1.000  H
  C110     1.0000 0.80970  0.26130  0.09020  Biso   1.000  C
  C111     1.0000 0.86590  0.22930  0.07020  Biso   1.000  C
  H67      1.0000 0.91830  0.24220  0.06360  Biso   1.000  H
  C112     1.0000 0.84540  0.17770  0.05970  Biso   1.000  C
  H68      1.0000 0.88380  0.15550  0.04540  Biso   1.000  H
  C113     1.0000 0.77030  0.15840  0.06980  Biso   1.000  C
  C114     1.0000 0.71550  0.19130  0.09050  Biso   1.000  C
  H69      1.0000 0.66270  0.17850  0.09630  Biso   1.000  H
  C115     1.0000 0.73540  0.24240  0.10300  Biso   1.000  C
  H70      1.0000 0.69860  0.26420  0.12030  Biso   1.000  H
  C116     1.0000 0.74200  0.10270  0.05460  Biso   1.000  C
  C117     1.0000 0.61440  0.46183  0.75070  Biso   1.000  C
  C118     1.0000 0.70650  0.43763  0.81640  Biso   1.000  C
  C119     1.0000 0.75540  0.40761  0.78550  Biso   1.000  C
  H71      1.0000 0.73020  0.40050  0.72180  Biso   1.000  H
  C120     1.0000 0.84190  0.38710  0.84630  Biso   1.000  C
  H72      1.0000 0.87650  0.36640  0.82460  Biso   1.000  H
  C121     1.0000 0.87690  0.39753  0.93970  Biso   1.000  C
  C122     1.0000 0.82830  0.42780  0.97120  Biso   1.000  C
  H73      1.0000 0.85330  0.43530  0.03480  Biso   1.000  H
  C123     1.0000 0.74160  0.44740  0.90920  Biso   1.000  C
  H74      1.0000 0.70620  0.46760  0.93070  Biso   1.000  H
  C124     1.0000 0.01860  0.39830  0.08170  Biso   1.000  C
  C125     1.0000 0.05960  0.44450  0.08130  Biso   1.000  C
  H75      1.0000 0.04690  0.46110  0.02530  Biso   1.000  H
  C126     1.0000 0.12020  0.46570  0.16570  Biso   1.000  C
  H76      1.0000 0.15140  0.49670  0.16730  Biso   1.000  H
  C127     1.0000 0.13560  0.44260  0.24660  Biso   1.000  C
  C128     1.0000 0.09020  0.39730  0.24390  Biso   1.000  C
  H77      1.0000 0.09880  0.38160  0.29940  Biso   1.000  H
  C129     1.0000 0.03300  0.37500  0.16100  Biso   1.000  C
  H78      1.0000 0.00360  0.34340  0.15930  Biso   1.000  H
  C130     1.0000 0.20160  0.46630  0.33740  Biso   1.000  C
  C131     1.0000 0.95930  0.54090  0.51280  Biso   1.000  C
  H79      1.0000 0.94400  0.56700  0.52500  Biso   1.000  H
  C132     1.0000 0.95490  0.45620  0.48660  Biso   1.000  C
  H80      1.0000 0.92100  0.42590  0.47900  Biso   1.000  H
  H81      1.0000 0.61300  0.53100  0.44900  Biso   1.000  H
  Co10     1.0000 0.23019  0.99653  0.02220  Biso   1.000  Co
  Co11     1.0000 0.44686  0.99159  0.17991  Biso   1.000  Co
  Co12     1.0000 0.39105  0.97631  0.94082  Biso   1.000  Co
  N4       1.0000 0.08770  0.99752  0.00150  Biso   1.000  N
  O49      1.0000 0.39150  0.05675  0.21120  Biso   1.000  O
  O50      1.0000 0.24260  0.06127  0.10150  Biso   1.000  O
  O51      1.0000 0.23510  0.24266  0.34870  Biso   1.000  O
  O52      1.0000 0.48610  0.42664  0.34000  Biso   1.000  O
  O53      1.0000 0.46820  0.44987  0.46270  Biso   1.000  O
  O54      1.0000 0.25880  0.95143  0.13940  Biso   1.000  O
  O55      1.0000 0.40390  0.94518  0.25290  Biso   1.000  O
  O56      1.0000 0.17160  0.81252  0.40680  Biso   1.000  O
  O57      1.0000 0.20240  0.57319  0.45560  Biso   1.000  O
  O58      1.0000 0.33520  0.59235  0.44640  Biso   1.000  O
  O59      1.0000 0.42070  0.95384  0.83500  Biso   1.000  O
  O60      1.0000 0.42640  0.98948  0.71560  Biso   1.000  O
  O61      1.0000 0.03730  0.87484  0.50390  Biso   1.000  O
  O62      1.0000 0.81620  0.96019  0.09660  Biso   1.000  O
  O63      1.0000 0.72890  0.99002  0.16160  Biso   1.000  O
  O64      1.0000 0.36970  0.00378  0.04620  Biso   1.000  O
  C133     1.0000 0.30920  0.07422  0.17620  Biso   1.000  C
  C134     1.0000 0.28920  0.11630  0.22620  Biso   1.000  C
  C135     1.0000 0.19890  0.13690  0.19380  Biso   1.000  C
  H82      1.0000 0.14830  0.12190  0.14210  Biso   1.000  H
  C136     1.0000 0.18110  0.17800  0.23460  Biso   1.000  C
  H83      1.0000 0.11920  0.19160  0.21080  Biso   1.000  H
  C137     1.0000 0.25360  0.19960  0.31020  Biso   1.000  C
  C138     1.0000 0.34240  0.18020  0.34670  Biso   1.000  C
  H84      1.0000 0.39120  0.19500  0.40010  Biso   1.000  H
  C139     1.0000 0.36200  0.13740  0.30400  Biso   1.000  C
  H85      1.0000 0.42380  0.12360  0.32850  Biso   1.000  H
  C140     1.0000 0.29000  0.28530  0.35820  Biso   1.000  C
  C141     1.0000 0.33900  0.29350  0.30980  Biso   1.000  C
  H86      1.0000 0.33760  0.26900  0.26660  Biso   1.000  H
  C142     1.0000 0.39060  0.33670  0.32280  Biso   1.000  C
  H87      1.0000 0.42290  0.34190  0.28680  Biso   1.000  H
  C143     1.0000 0.39770  0.37330  0.38570  Biso   1.000  C
  C144     1.0000 0.34340  0.36520  0.43170  Biso   1.000  C
  H88      1.0000 0.34310  0.39010  0.47350  Biso   1.000  H
  C145     1.0000 0.29000  0.32200  0.41820  Biso   1.000  C
  H89      1.0000 0.25320  0.31750  0.45010  Biso   1.000  H
  C146     1.0000 0.45570  0.41980  0.39640  Biso   1.000  C
  C147     1.0000 0.31580  0.93605  0.21650  Biso   1.000  C
  C148     1.0000 0.28090  0.90409  0.26960  Biso   1.000  C
  C149     1.0000 0.19290  0.87980  0.22290  Biso   1.000  C
  H90      1.0000 0.15680  0.88450  0.15860  Biso   1.000  H
  C150     1.0000 0.15890  0.84950  0.26930  Biso   1.000  C
  H91      1.0000 0.10050  0.83240  0.23670  Biso   1.000  H
  C151     1.0000 0.20850  0.84380  0.36190  Biso   1.000  C
  C152     1.0000 0.29450  0.86790  0.41070  Biso   1.000  C
  H92      1.0000 0.32900  0.86380  0.47530  Biso   1.000  H
  C153     1.0000 0.32890  0.89790  0.36340  Biso   1.000  C
  H93      1.0000 0.38740  0.91480  0.39650  Biso   1.000  H
  C154     1.0000 0.19030  0.76130  0.40980  Biso   1.000  C
  C155     1.0000 0.13410  0.72930  0.42980  Biso   1.000  C
  H94      1.0000 0.08170  0.74220  0.43640  Biso   1.000  H
  C156     1.0000 0.15460  0.67770  0.44030  Biso   1.000  C
  H95      1.0000 0.11620  0.65550  0.45460  Biso   1.000  H
  C157     1.0000 0.22970  0.65840  0.43020  Biso   1.000  C
  C158     1.0000 0.28450  0.69130  0.40950  Biso   1.000  C
  H96      1.0000 0.33730  0.67850  0.40370  Biso   1.000  H
  C159     1.0000 0.26460  0.74240  0.39700  Biso   1.000  C
  H97      1.0000 0.30140  0.76420  0.37970  Biso   1.000  H
  C160     1.0000 0.25800  0.60270  0.44540  Biso   1.000  C
  C161     1.0000 0.38560  0.96183  0.74930  Biso   1.000  C
  C162     1.0000 0.29350  0.93763  0.68360  Biso   1.000  C
  C163     1.0000 0.24460  0.90761  0.71450  Biso   1.000  C
  H98      1.0000 0.26980  0.90050  0.77820  Biso   1.000  H
  C164     1.0000 0.15810  0.88710  0.65370  Biso   1.000  C
  H99      1.0000 0.12350  0.86640  0.67540  Biso   1.000  H
  C165     1.0000 0.12310  0.89753  0.56030  Biso   1.000  C
  C166     1.0000 0.17170  0.92780  0.52880  Biso   1.000  C
  H100     1.0000 0.14670  0.93530  0.46520  Biso   1.000  H
  C167     1.0000 0.25840  0.94740  0.59080  Biso   1.000  C
  H101     1.0000 0.29380  0.96760  0.56930  Biso   1.000  H
  C168     1.0000 0.98140  0.89830  0.41830  Biso   1.000  C
  C169     1.0000 0.94040  0.94450  0.41870  Biso   1.000  C
  H102     1.0000 0.95310  0.96110  0.47470  Biso   1.000  H
  C170     1.0000 0.87980  0.96570  0.33430  Biso   1.000  C
  H103     1.0000 0.84860  0.99670  0.33270  Biso   1.000  H
  C171     1.0000 0.86440  0.94260  0.25340  Biso   1.000  C
  C172     1.0000 0.90980  0.89730  0.25610  Biso   1.000  C
  H104     1.0000 0.90120  0.88160  0.20060  Biso   1.000  H
  C173     1.0000 0.96700  0.87500  0.33900  Biso   1.000  C
  H105     1.0000 0.99640  0.84340  0.34070  Biso   1.000  H
  C174     1.0000 0.79840  0.96630  0.16260  Biso   1.000  C
  C175     1.0000 0.04070  0.04090  0.98720  Biso   1.000  C
  H106     1.0000 0.05600  0.06700  0.97500  Biso   1.000  H
  C176     1.0000 0.04510  0.95620  0.01340  Biso   1.000  C
  H107     1.0000 0.07900  0.92590  0.02100  Biso   1.000  H
  H108     1.0000 0.38700  0.03100  0.05100  Biso   1.000  H
