data_image0
_cell_length_a       17.2369
_cell_length_b       35.5472
_cell_length_c       9.9845
_cell_angle_alpha    90
_cell_angle_beta     90
_cell_angle_gamma    90

_symmetry_space_group_name_H-M    "P 1"
_symmetry_int_tables_number       1

loop_
  _symmetry_equiv_pos_as_xyz
  'x, y, z'

loop_
  _atom_site_label
  _atom_site_occupancy
  _atom_site_fract_x
  _atom_site_fract_y
  _atom_site_fract_z
  _atom_site_thermal_displace_type
  _atom_site_B_iso_or_equiv
  _atom_site_type_symbol
  N1       1.0000 0.76970  0.75150  0.33630  Biso   1.000  N
  C1       1.0000 0.73630  0.71670  0.32810  Biso   1.000  C
  H1       1.0000 0.76780  0.69550  0.33490  Biso   1.000  H
  C2       1.0000 0.65680  0.71180  0.30990  Biso   1.000  C
  H2       1.0000 0.63610  0.68760  0.31160  Biso   1.000  H
  C3       1.0000 0.60730  0.74250  0.28900  Biso   1.000  C
  C4       1.0000 0.64130  0.77790  0.30650  Biso   1.000  C
  H3       1.0000 0.61060  0.79940  0.30820  Biso   1.000  H
  C5       1.0000 0.72240  0.78080  0.32160  Biso   1.000  C
  H4       1.0000 0.74420  0.80470  0.32130  Biso   1.000  H
  C6       1.0000 0.52510  0.73690  0.26250  Biso   1.000  C
  H5       1.0000 0.50690  0.71230  0.26360  Biso   1.000  H
  N2       1.0000 0.76970  0.25150  0.83630  Biso   1.000  N
  C7       1.0000 0.73630  0.21670  0.82810  Biso   1.000  C
  H6       1.0000 0.76780  0.19550  0.83490  Biso   1.000  H
  C8       1.0000 0.65680  0.21180  0.80990  Biso   1.000  C
  H7       1.0000 0.63610  0.18760  0.81160  Biso   1.000  H
  C9       1.0000 0.60730  0.24250  0.78900  Biso   1.000  C
  C10      1.0000 0.64130  0.27790  0.80650  Biso   1.000  C
  H8       1.0000 0.61060  0.29940  0.80820  Biso   1.000  H
  C11      1.0000 0.72240  0.28080  0.82160  Biso   1.000  C
  H9       1.0000 0.74420  0.30470  0.82130  Biso   1.000  H
  C12      1.0000 0.52510  0.23690  0.76250  Biso   1.000  C
  H10      1.0000 0.50690  0.21230  0.76360  Biso   1.000  H
  N3       1.0000 0.26970  0.75150  0.83630  Biso   1.000  N
  C13      1.0000 0.23630  0.71670  0.82810  Biso   1.000  C
  H11      1.0000 0.26780  0.69550  0.83490  Biso   1.000  H
  C14      1.0000 0.15680  0.71180  0.80990  Biso   1.000  C
  H12      1.0000 0.13610  0.68760  0.81160  Biso   1.000  H
  C15      1.0000 0.10730  0.74250  0.78900  Biso   1.000  C
  C16      1.0000 0.14130  0.77790  0.80650  Biso   1.000  C
  H13      1.0000 0.11060  0.79940  0.80820  Biso   1.000  H
  C17      1.0000 0.22240  0.78080  0.82160  Biso   1.000  C
  H14      1.0000 0.24420  0.80470  0.82130  Biso   1.000  H
  C18      1.0000 0.02510  0.73690  0.76250  Biso   1.000  C
  H15      1.0000 0.00690  0.71230  0.76360  Biso   1.000  H
  N4       1.0000 0.26970  0.25150  0.33630  Biso   1.000  N
  C19      1.0000 0.23630  0.21670  0.32810  Biso   1.000  C
  H16      1.0000 0.26780  0.19550  0.33490  Biso   1.000  H
  C20      1.0000 0.15680  0.21180  0.30990  Biso   1.000  C
  H17      1.0000 0.13610  0.18760  0.31160  Biso   1.000  H
  C21      1.0000 0.10730  0.24250  0.28900  Biso   1.000  C
  C22      1.0000 0.14130  0.27790  0.30650  Biso   1.000  C
  H18      1.0000 0.11060  0.29940  0.30820  Biso   1.000  H
  C23      1.0000 0.22240  0.28080  0.32160  Biso   1.000  C
  H19      1.0000 0.24420  0.30470  0.32130  Biso   1.000  H
  C24      1.0000 0.02510  0.23690  0.26250  Biso   1.000  C
  H20      1.0000 0.00690  0.21230  0.26360  Biso   1.000  H
  N5       1.0000 0.98030  0.99850  0.33630  Biso   1.000  N
  C25      1.0000 0.01370  0.03330  0.32810  Biso   1.000  C
  H21      1.0000 0.98220  0.05450  0.33490  Biso   1.000  H
  C26      1.0000 0.09320  0.03820  0.30990  Biso   1.000  C
  H22      1.0000 0.11390  0.06240  0.31160  Biso   1.000  H
  C27      1.0000 0.14270  0.00750  0.28900  Biso   1.000  C
  C28      1.0000 0.10870  0.97210  0.30650  Biso   1.000  C
  H23      1.0000 0.13940  0.95060  0.30820  Biso   1.000  H
  C29      1.0000 0.02760  0.96920  0.32160  Biso   1.000  C
  H24      1.0000 0.00580  0.94530  0.32130  Biso   1.000  H
  C30      1.0000 0.22490  0.01310  0.26250  Biso   1.000  C
  H25      1.0000 0.24310  0.03770  0.26360  Biso   1.000  H
  N6       1.0000 0.98030  0.49850  0.83630  Biso   1.000  N
  C31      1.0000 0.01370  0.53330  0.82810  Biso   1.000  C
  H26      1.0000 0.98220  0.55450  0.83490  Biso   1.000  H
  C32      1.0000 0.09320  0.53820  0.80990  Biso   1.000  C
  H27      1.0000 0.11390  0.56240  0.81160  Biso   1.000  H
  C33      1.0000 0.14270  0.50750  0.78900  Biso   1.000  C
  C34      1.0000 0.10870  0.47210  0.80650  Biso   1.000  C
  H28      1.0000 0.13940  0.45060  0.80820  Biso   1.000  H
  C35      1.0000 0.02760  0.46920  0.82160  Biso   1.000  C
  H29      1.0000 0.00580  0.44530  0.82130  Biso   1.000  H
  C36      1.0000 0.22490  0.51310  0.76250  Biso   1.000  C
  H30      1.0000 0.24310  0.53770  0.76360  Biso   1.000  H
  N7       1.0000 0.48030  0.99850  0.83630  Biso   1.000  N
  C37      1.0000 0.51370  0.03330  0.82810  Biso   1.000  C
  H31      1.0000 0.48220  0.05450  0.83490  Biso   1.000  H
  C38      1.0000 0.59320  0.03820  0.80990  Biso   1.000  C
  H32      1.0000 0.61390  0.06240  0.81160  Biso   1.000  H
  C39      1.0000 0.64270  0.00750  0.78900  Biso   1.000  C
  C40      1.0000 0.60870  0.97210  0.80650  Biso   1.000  C
  H33      1.0000 0.63940  0.95060  0.80820  Biso   1.000  H
  C41      1.0000 0.52760  0.96920  0.82160  Biso   1.000  C
  H34      1.0000 0.50580  0.94530  0.82130  Biso   1.000  H
  C42      1.0000 0.72490  0.01310  0.76250  Biso   1.000  C
  H35      1.0000 0.74310  0.03770  0.76360  Biso   1.000  H
  N8       1.0000 0.48030  0.49850  0.33630  Biso   1.000  N
  C43      1.0000 0.51370  0.53330  0.32810  Biso   1.000  C
  H36      1.0000 0.48220  0.55450  0.33490  Biso   1.000  H
  C44      1.0000 0.59320  0.53820  0.30990  Biso   1.000  C
  H37      1.0000 0.61390  0.56240  0.31160  Biso   1.000  H
  C45      1.0000 0.64270  0.50750  0.28900  Biso   1.000  C
  C46      1.0000 0.60870  0.47210  0.30650  Biso   1.000  C
  H38      1.0000 0.63940  0.45060  0.30820  Biso   1.000  H
  C47      1.0000 0.52760  0.46920  0.32160  Biso   1.000  C
  H39      1.0000 0.50580  0.44530  0.32130  Biso   1.000  H
  C48      1.0000 0.72490  0.51310  0.26250  Biso   1.000  C
  H40      1.0000 0.74310  0.53770  0.26360  Biso   1.000  H
  N9       1.0000 0.98030  0.75150  0.41370  Biso   1.000  N
  C49      1.0000 0.01370  0.71670  0.42190  Biso   1.000  C
  H41      1.0000 0.98220  0.69550  0.41510  Biso   1.000  H
  C50      1.0000 0.09320  0.71180  0.44010  Biso   1.000  C
  H42      1.0000 0.11390  0.68760  0.43840  Biso   1.000  H
  C51      1.0000 0.14270  0.74250  0.46100  Biso   1.000  C
  C52      1.0000 0.10870  0.77790  0.44350  Biso   1.000  C
  H43      1.0000 0.13940  0.79940  0.44180  Biso   1.000  H
  C53      1.0000 0.02760  0.78080  0.42840  Biso   1.000  C
  H44      1.0000 0.00580  0.80470  0.42870  Biso   1.000  H
  C54      1.0000 0.22490  0.73690  0.48750  Biso   1.000  C
  H45      1.0000 0.24310  0.71230  0.48640  Biso   1.000  H
  N10      1.0000 0.98030  0.25150  0.91370  Biso   1.000  N
  C55      1.0000 0.01370  0.21670  0.92190  Biso   1.000  C
  H46      1.0000 0.98220  0.19550  0.91510  Biso   1.000  H
  C56      1.0000 0.09320  0.21180  0.94010  Biso   1.000  C
  H47      1.0000 0.11390  0.18760  0.93840  Biso   1.000  H
  C57      1.0000 0.14270  0.24250  0.96100  Biso   1.000  C
  C58      1.0000 0.10870  0.27790  0.94350  Biso   1.000  C
  H48      1.0000 0.13940  0.29940  0.94180  Biso   1.000  H
  C59      1.0000 0.02760  0.28080  0.92840  Biso   1.000  C
  H49      1.0000 0.00580  0.30470  0.92870  Biso   1.000  H
  C60      1.0000 0.22490  0.23690  0.98750  Biso   1.000  C
  H50      1.0000 0.24310  0.21230  0.98640  Biso   1.000  H
  N11      1.0000 0.48030  0.75150  0.91370  Biso   1.000  N
  C61      1.0000 0.51370  0.71670  0.92190  Biso   1.000  C
  H51      1.0000 0.48220  0.69550  0.91510  Biso   1.000  H
  C62      1.0000 0.59320  0.71180  0.94010  Biso   1.000  C
  H52      1.0000 0.61390  0.68760  0.93840  Biso   1.000  H
  C63      1.0000 0.64270  0.74250  0.96100  Biso   1.000  C
  C64      1.0000 0.60870  0.77790  0.94350  Biso   1.000  C
  H53      1.0000 0.63940  0.79940  0.94180  Biso   1.000  H
  C65      1.0000 0.52760  0.78080  0.92840  Biso   1.000  C
  H54      1.0000 0.50580  0.80470  0.92870  Biso   1.000  H
  C66      1.0000 0.72490  0.73690  0.98750  Biso   1.000  C
  H55      1.0000 0.74310  0.71230  0.98640  Biso   1.000  H
  N12      1.0000 0.48030  0.25150  0.41370  Biso   1.000  N
  C67      1.0000 0.51370  0.21670  0.42190  Biso   1.000  C
  H56      1.0000 0.48220  0.19550  0.41510  Biso   1.000  H
  C68      1.0000 0.59320  0.21180  0.44010  Biso   1.000  C
  H57      1.0000 0.61390  0.18760  0.43840  Biso   1.000  H
  C69      1.0000 0.64270  0.24250  0.46100  Biso   1.000  C
  C70      1.0000 0.60870  0.27790  0.44350  Biso   1.000  C
  H58      1.0000 0.63940  0.29940  0.44180  Biso   1.000  H
  C71      1.0000 0.52760  0.28080  0.42840  Biso   1.000  C
  H59      1.0000 0.50580  0.30470  0.42870  Biso   1.000  H
  C72      1.0000 0.72490  0.23690  0.48750  Biso   1.000  C
  H60      1.0000 0.74310  0.21230  0.48640  Biso   1.000  H
  N13      1.0000 0.76970  0.99850  0.41370  Biso   1.000  N
  C73      1.0000 0.73630  0.03330  0.42190  Biso   1.000  C
  H61      1.0000 0.76780  0.05450  0.41510  Biso   1.000  H
  C74      1.0000 0.65680  0.03820  0.44010  Biso   1.000  C
  H62      1.0000 0.63610  0.06240  0.43840  Biso   1.000  H
  C75      1.0000 0.60730  0.00750  0.46100  Biso   1.000  C
  C76      1.0000 0.64130  0.97210  0.44350  Biso   1.000  C
  H63      1.0000 0.61060  0.95060  0.44180  Biso   1.000  H
  C77      1.0000 0.72240  0.96920  0.42840  Biso   1.000  C
  H64      1.0000 0.74420  0.94530  0.42870  Biso   1.000  H
  C78      1.0000 0.52510  0.01310  0.48750  Biso   1.000  C
  H65      1.0000 0.50690  0.03770  0.48640  Biso   1.000  H
  N14      1.0000 0.76970  0.49850  0.91370  Biso   1.000  N
  C79      1.0000 0.73630  0.53330  0.92190  Biso   1.000  C
  H66      1.0000 0.76780  0.55450  0.91510  Biso   1.000  H
  C80      1.0000 0.65680  0.53820  0.94010  Biso   1.000  C
  H67      1.0000 0.63610  0.56240  0.93840  Biso   1.000  H
  C81      1.0000 0.60730  0.50750  0.96100  Biso   1.000  C
  C82      1.0000 0.64130  0.47210  0.94350  Biso   1.000  C
  H68      1.0000 0.61060  0.45060  0.94180  Biso   1.000  H
  C83      1.0000 0.72240  0.46920  0.92840  Biso   1.000  C
  H69      1.0000 0.74420  0.44530  0.92870  Biso   1.000  H
  C84      1.0000 0.52510  0.51310  0.98750  Biso   1.000  C
  H70      1.0000 0.50690  0.53770  0.98640  Biso   1.000  H
  N15      1.0000 0.26970  0.99850  0.91370  Biso   1.000  N
  C85      1.0000 0.23630  0.03330  0.92190  Biso   1.000  C
  H71      1.0000 0.26780  0.05450  0.91510  Biso   1.000  H
  C86      1.0000 0.15680  0.03820  0.94010  Biso   1.000  C
  H72      1.0000 0.13610  0.06240  0.93840  Biso   1.000  H
  C87      1.0000 0.10730  0.00750  0.96100  Biso   1.000  C
  C88      1.0000 0.14130  0.97210  0.94350  Biso   1.000  C
  H73      1.0000 0.11060  0.95060  0.94180  Biso   1.000  H
  C89      1.0000 0.22240  0.96920  0.92840  Biso   1.000  C
  H74      1.0000 0.24420  0.94530  0.92870  Biso   1.000  H
  C90      1.0000 0.02510  0.01310  0.98750  Biso   1.000  C
  H75      1.0000 0.00690  0.03770  0.98640  Biso   1.000  H
  N16      1.0000 0.26970  0.49850  0.41370  Biso   1.000  N
  C91      1.0000 0.23630  0.53330  0.42190  Biso   1.000  C
  H76      1.0000 0.26780  0.55450  0.41510  Biso   1.000  H
  C92      1.0000 0.15680  0.53820  0.44010  Biso   1.000  C
  H77      1.0000 0.13610  0.56240  0.43840  Biso   1.000  H
  C93      1.0000 0.10730  0.50750  0.46100  Biso   1.000  C
  C94      1.0000 0.14130  0.47210  0.44350  Biso   1.000  C
  H78      1.0000 0.11060  0.45060  0.44180  Biso   1.000  H
  C95      1.0000 0.22240  0.46920  0.42840  Biso   1.000  C
  H79      1.0000 0.24420  0.44530  0.42870  Biso   1.000  H
  C96      1.0000 0.02510  0.51310  0.48750  Biso   1.000  C
  H80      1.0000 0.00690  0.53770  0.48640  Biso   1.000  H
  N17      1.0000 0.23030  0.24850  0.66370  Biso   1.000  N
  C97      1.0000 0.26370  0.28330  0.67190  Biso   1.000  C
  H81      1.0000 0.23220  0.30450  0.66510  Biso   1.000  H
  C98      1.0000 0.34320  0.28820  0.69010  Biso   1.000  C
  H82      1.0000 0.36390  0.31240  0.68840  Biso   1.000  H
  C99      1.0000 0.39270  0.25750  0.71100  Biso   1.000  C
  C100     1.0000 0.35870  0.22210  0.69350  Biso   1.000  C
  H83      1.0000 0.38940  0.20060  0.69180  Biso   1.000  H
  C101     1.0000 0.27760  0.21920  0.67840  Biso   1.000  C
  H84      1.0000 0.25580  0.19530  0.67870  Biso   1.000  H
  C102     1.0000 0.47490  0.26310  0.73750  Biso   1.000  C
  H85      1.0000 0.49310  0.28770  0.73640  Biso   1.000  H
  N18      1.0000 0.23030  0.74850  0.16370  Biso   1.000  N
  C103     1.0000 0.26370  0.78330  0.17190  Biso   1.000  C
  H86      1.0000 0.23220  0.80450  0.16510  Biso   1.000  H
  C104     1.0000 0.34320  0.78820  0.19010  Biso   1.000  C
  H87      1.0000 0.36390  0.81240  0.18840  Biso   1.000  H
  C105     1.0000 0.39270  0.75750  0.21100  Biso   1.000  C
  C106     1.0000 0.35870  0.72210  0.19350  Biso   1.000  C
  H88      1.0000 0.38940  0.70060  0.19180  Biso   1.000  H
  C107     1.0000 0.27760  0.71920  0.17840  Biso   1.000  C
  H89      1.0000 0.25580  0.69530  0.17870  Biso   1.000  H
  C108     1.0000 0.47490  0.76310  0.23750  Biso   1.000  C
  H90      1.0000 0.49310  0.78770  0.23640  Biso   1.000  H
  N19      1.0000 0.73030  0.24850  0.16370  Biso   1.000  N
  C109     1.0000 0.76370  0.28330  0.17190  Biso   1.000  C
  H91      1.0000 0.73220  0.30450  0.16510  Biso   1.000  H
  C110     1.0000 0.84320  0.28820  0.19010  Biso   1.000  C
  H92      1.0000 0.86390  0.31240  0.18840  Biso   1.000  H
  C111     1.0000 0.89270  0.25750  0.21100  Biso   1.000  C
  C112     1.0000 0.85870  0.22210  0.19350  Biso   1.000  C
  H93      1.0000 0.88940  0.20060  0.19180  Biso   1.000  H
  C113     1.0000 0.77760  0.21920  0.17840  Biso   1.000  C
  H94      1.0000 0.75580  0.19530  0.17870  Biso   1.000  H
  C114     1.0000 0.97490  0.26310  0.23750  Biso   1.000  C
  H95      1.0000 0.99310  0.28770  0.23640  Biso   1.000  H
  N20      1.0000 0.73030  0.74850  0.66370  Biso   1.000  N
  C115     1.0000 0.76370  0.78330  0.67190  Biso   1.000  C
  H96      1.0000 0.73220  0.80450  0.66510  Biso   1.000  H
  C116     1.0000 0.84320  0.78820  0.69010  Biso   1.000  C
  H97      1.0000 0.86390  0.81240  0.68840  Biso   1.000  H
  C117     1.0000 0.89270  0.75750  0.71100  Biso   1.000  C
  C118     1.0000 0.85870  0.72210  0.69350  Biso   1.000  C
  H98      1.0000 0.88940  0.70060  0.69180  Biso   1.000  H
  C119     1.0000 0.77760  0.71920  0.67840  Biso   1.000  C
  H99      1.0000 0.75580  0.69530  0.67870  Biso   1.000  H
  C120     1.0000 0.97490  0.76310  0.73750  Biso   1.000  C
  H100     1.0000 0.99310  0.78770  0.73640  Biso   1.000  H
  N21      1.0000 0.01970  0.00150  0.66370  Biso   1.000  N
  C121     1.0000 0.98630  0.96670  0.67190  Biso   1.000  C
  H101     1.0000 0.01780  0.94550  0.66510  Biso   1.000  H
  C122     1.0000 0.90680  0.96180  0.69010  Biso   1.000  C
  H102     1.0000 0.88610  0.93760  0.68840  Biso   1.000  H
  C123     1.0000 0.85730  0.99250  0.71100  Biso   1.000  C
  C124     1.0000 0.89130  0.02790  0.69350  Biso   1.000  C
  H103     1.0000 0.86060  0.04940  0.69180  Biso   1.000  H
  C125     1.0000 0.97240  0.03080  0.67840  Biso   1.000  C
  H104     1.0000 0.99420  0.05470  0.67870  Biso   1.000  H
  C126     1.0000 0.77510  0.98690  0.73750  Biso   1.000  C
  H105     1.0000 0.75690  0.96230  0.73640  Biso   1.000  H
  N22      1.0000 0.01970  0.50150  0.16370  Biso   1.000  N
  C127     1.0000 0.98630  0.46670  0.17190  Biso   1.000  C
  H106     1.0000 0.01780  0.44550  0.16510  Biso   1.000  H
  C128     1.0000 0.90680  0.46180  0.19010  Biso   1.000  C
  H107     1.0000 0.88610  0.43760  0.18840  Biso   1.000  H
  C129     1.0000 0.85730  0.49250  0.21100  Biso   1.000  C
  C130     1.0000 0.89130  0.52790  0.19350  Biso   1.000  C
  H108     1.0000 0.86060  0.54940  0.19180  Biso   1.000  H
  C131     1.0000 0.97240  0.53080  0.17840  Biso   1.000  C
  H109     1.0000 0.99420  0.55470  0.17870  Biso   1.000  H
  C132     1.0000 0.77510  0.48690  0.23750  Biso   1.000  C
  H110     1.0000 0.75690  0.46230  0.23640  Biso   1.000  H
  N23      1.0000 0.51970  0.00150  0.16370  Biso   1.000  N
  C133     1.0000 0.48630  0.96670  0.17190  Biso   1.000  C
  H111     1.0000 0.51780  0.94550  0.16510  Biso   1.000  H
  C134     1.0000 0.40680  0.96180  0.19010  Biso   1.000  C
  H112     1.0000 0.38610  0.93760  0.18840  Biso   1.000  H
  C135     1.0000 0.35730  0.99250  0.21100  Biso   1.000  C
  C136     1.0000 0.39130  0.02790  0.19350  Biso   1.000  C
  H113     1.0000 0.36060  0.04940  0.19180  Biso   1.000  H
  C137     1.0000 0.47240  0.03080  0.17840  Biso   1.000  C
  H114     1.0000 0.49420  0.05470  0.17870  Biso   1.000  H
  C138     1.0000 0.27510  0.98690  0.23750  Biso   1.000  C
  H115     1.0000 0.25690  0.96230  0.23640  Biso   1.000  H
  N24      1.0000 0.51970  0.50150  0.66370  Biso   1.000  N
  C139     1.0000 0.48630  0.46670  0.67190  Biso   1.000  C
  H116     1.0000 0.51780  0.44550  0.66510  Biso   1.000  H
  C140     1.0000 0.40680  0.46180  0.69010  Biso   1.000  C
  H117     1.0000 0.38610  0.43760  0.68840  Biso   1.000  H
  C141     1.0000 0.35730  0.49250  0.71100  Biso   1.000  C
  C142     1.0000 0.39130  0.52790  0.69350  Biso   1.000  C
  H118     1.0000 0.36060  0.54940  0.69180  Biso   1.000  H
  C143     1.0000 0.47240  0.53080  0.67840  Biso   1.000  C
  H119     1.0000 0.49420  0.55470  0.67870  Biso   1.000  H
  C144     1.0000 0.27510  0.48690  0.73750  Biso   1.000  C
  H120     1.0000 0.25690  0.46230  0.73640  Biso   1.000  H
  N25      1.0000 0.01970  0.24850  0.58630  Biso   1.000  N
  C145     1.0000 0.98630  0.28330  0.57810  Biso   1.000  C
  H121     1.0000 0.01780  0.30450  0.58490  Biso   1.000  H
  C146     1.0000 0.90680  0.28820  0.55990  Biso   1.000  C
  H122     1.0000 0.88610  0.31240  0.56160  Biso   1.000  H
  C147     1.0000 0.85730  0.25750  0.53900  Biso   1.000  C
  C148     1.0000 0.89130  0.22210  0.55650  Biso   1.000  C
  H123     1.0000 0.86060  0.20060  0.55820  Biso   1.000  H
  C149     1.0000 0.97240  0.21920  0.57160  Biso   1.000  C
  H124     1.0000 0.99420  0.19530  0.57130  Biso   1.000  H
  C150     1.0000 0.77510  0.26310  0.51250  Biso   1.000  C
  H125     1.0000 0.75690  0.28770  0.51360  Biso   1.000  H
  N26      1.0000 0.01970  0.74850  0.08630  Biso   1.000  N
  C151     1.0000 0.98630  0.78330  0.07810  Biso   1.000  C
  H126     1.0000 0.01780  0.80450  0.08490  Biso   1.000  H
  C152     1.0000 0.90680  0.78820  0.05990  Biso   1.000  C
  H127     1.0000 0.88610  0.81240  0.06160  Biso   1.000  H
  C153     1.0000 0.85730  0.75750  0.03900  Biso   1.000  C
  C154     1.0000 0.89130  0.72210  0.05650  Biso   1.000  C
  H128     1.0000 0.86060  0.70060  0.05820  Biso   1.000  H
  C155     1.0000 0.97240  0.71920  0.07160  Biso   1.000  C
  H129     1.0000 0.99420  0.69530  0.07130  Biso   1.000  H
  C156     1.0000 0.77510  0.76310  0.01250  Biso   1.000  C
  H130     1.0000 0.75690  0.78770  0.01360  Biso   1.000  H
  N27      1.0000 0.51970  0.24850  0.08630  Biso   1.000  N
  C157     1.0000 0.48630  0.28330  0.07810  Biso   1.000  C
  H131     1.0000 0.51780  0.30450  0.08490  Biso   1.000  H
  C158     1.0000 0.40680  0.28820  0.05990  Biso   1.000  C
  H132     1.0000 0.38610  0.31240  0.06160  Biso   1.000  H
  C159     1.0000 0.35730  0.25750  0.03900  Biso   1.000  C
  C160     1.0000 0.39130  0.22210  0.05650  Biso   1.000  C
  H133     1.0000 0.36060  0.20060  0.05820  Biso   1.000  H
  C161     1.0000 0.47240  0.21920  0.07160  Biso   1.000  C
  H134     1.0000 0.49420  0.19530  0.07130  Biso   1.000  H
  C162     1.0000 0.27510  0.26310  0.01250  Biso   1.000  C
  H135     1.0000 0.25690  0.28770  0.01360  Biso   1.000  H
  N28      1.0000 0.51970  0.74850  0.58630  Biso   1.000  N
  C163     1.0000 0.48630  0.78330  0.57810  Biso   1.000  C
  H136     1.0000 0.51780  0.80450  0.58490  Biso   1.000  H
  C164     1.0000 0.40680  0.78820  0.55990  Biso   1.000  C
  H137     1.0000 0.38610  0.81240  0.56160  Biso   1.000  H
  C165     1.0000 0.35730  0.75750  0.53900  Biso   1.000  C
  C166     1.0000 0.39130  0.72210  0.55650  Biso   1.000  C
  H138     1.0000 0.36060  0.70060  0.55820  Biso   1.000  H
  C167     1.0000 0.47240  0.71920  0.57160  Biso   1.000  C
  H139     1.0000 0.49420  0.69530  0.57130  Biso   1.000  H
  C168     1.0000 0.27510  0.76310  0.51250  Biso   1.000  C
  H140     1.0000 0.25690  0.78770  0.51360  Biso   1.000  H
  N29      1.0000 0.23030  0.00150  0.58630  Biso   1.000  N
  C169     1.0000 0.26370  0.96670  0.57810  Biso   1.000  C
  H141     1.0000 0.23220  0.94550  0.58490  Biso   1.000  H
  C170     1.0000 0.34320  0.96180  0.55990  Biso   1.000  C
  H142     1.0000 0.36390  0.93760  0.56160  Biso   1.000  H
  C171     1.0000 0.39270  0.99250  0.53900  Biso   1.000  C
  C172     1.0000 0.35870  0.02790  0.55650  Biso   1.000  C
  H143     1.0000 0.38940  0.04940  0.55820  Biso   1.000  H
  C173     1.0000 0.27760  0.03080  0.57160  Biso   1.000  C
  H144     1.0000 0.25580  0.05470  0.57130  Biso   1.000  H
  C174     1.0000 0.47490  0.98690  0.51250  Biso   1.000  C
  H145     1.0000 0.49310  0.96230  0.51360  Biso   1.000  H
  N30      1.0000 0.23030  0.50150  0.08630  Biso   1.000  N
  C175     1.0000 0.26370  0.46670  0.07810  Biso   1.000  C
  H146     1.0000 0.23220  0.44550  0.08490  Biso   1.000  H
  C176     1.0000 0.34320  0.46180  0.05990  Biso   1.000  C
  H147     1.0000 0.36390  0.43760  0.06160  Biso   1.000  H
  C177     1.0000 0.39270  0.49250  0.03900  Biso   1.000  C
  C178     1.0000 0.35870  0.52790  0.05650  Biso   1.000  C
  H148     1.0000 0.38940  0.54940  0.05820  Biso   1.000  H
  C179     1.0000 0.27760  0.53080  0.07160  Biso   1.000  C
  H149     1.0000 0.25580  0.55470  0.07130  Biso   1.000  H
  C180     1.0000 0.47490  0.48690  0.01250  Biso   1.000  C
  H150     1.0000 0.49310  0.46230  0.01360  Biso   1.000  H
  N31      1.0000 0.73030  0.00150  0.08630  Biso   1.000  N
  C181     1.0000 0.76370  0.96670  0.07810  Biso   1.000  C
  H151     1.0000 0.73220  0.94550  0.08490  Biso   1.000  H
  C182     1.0000 0.84320  0.96180  0.05990  Biso   1.000  C
  H152     1.0000 0.86390  0.93760  0.06160  Biso   1.000  H
  C183     1.0000 0.89270  0.99250  0.03900  Biso   1.000  C
  C184     1.0000 0.85870  0.02790  0.05650  Biso   1.000  C
  H153     1.0000 0.88940  0.04940  0.05820  Biso   1.000  H
  C185     1.0000 0.77760  0.03080  0.07160  Biso   1.000  C
  H154     1.0000 0.75580  0.05470  0.07130  Biso   1.000  H
  C186     1.0000 0.97490  0.98690  0.01250  Biso   1.000  C
  H155     1.0000 0.99310  0.96230  0.01360  Biso   1.000  H
  N32      1.0000 0.73030  0.50150  0.58630  Biso   1.000  N
  C187     1.0000 0.76370  0.46670  0.57810  Biso   1.000  C
  H156     1.0000 0.73220  0.44550  0.58490  Biso   1.000  H
  C188     1.0000 0.84320  0.46180  0.55990  Biso   1.000  C
  H157     1.0000 0.86390  0.43760  0.56160  Biso   1.000  H
  C189     1.0000 0.89270  0.49250  0.53900  Biso   1.000  C
  C190     1.0000 0.85870  0.52790  0.55650  Biso   1.000  C
  H158     1.0000 0.88940  0.54940  0.55820  Biso   1.000  H
  C191     1.0000 0.77760  0.53080  0.57160  Biso   1.000  C
  H159     1.0000 0.75580  0.55470  0.57130  Biso   1.000  H
  C192     1.0000 0.97490  0.48690  0.51250  Biso   1.000  C
  H160     1.0000 0.99310  0.46230  0.51360  Biso   1.000  H
  Nb1      1.0000 0.87500  0.87500  0.37500  Biso   1.000  Nb
  Nb2      1.0000 0.87500  0.37500  0.87500  Biso   1.000  Nb
  Nb3      1.0000 0.37500  0.87500  0.87500  Biso   1.000  Nb
  Nb4      1.0000 0.37500  0.37500  0.37500  Biso   1.000  Nb
  Nb5      1.0000 0.12500  0.12500  0.62500  Biso   1.000  Nb
  Nb6      1.0000 0.12500  0.62500  0.12500  Biso   1.000  Nb
  Nb7      1.0000 0.62500  0.12500  0.12500  Biso   1.000  Nb
  Nb8      1.0000 0.62500  0.62500  0.62500  Biso   1.000  Nb
  Cu1      1.0000 0.87500  0.75794  0.37500  Biso   1.000  Cu
  F1       1.0000 0.87500  0.82200  0.37500  Biso   1.000  F
  Cu2      1.0000 0.87500  0.25794  0.87500  Biso   1.000  Cu
  F2       1.0000 0.87500  0.32200  0.87500  Biso   1.000  F
  Cu3      1.0000 0.37500  0.75794  0.87500  Biso   1.000  Cu
  F3       1.0000 0.37500  0.82200  0.87500  Biso   1.000  F
  Cu4      1.0000 0.37500  0.25794  0.37500  Biso   1.000  Cu
  F4       1.0000 0.37500  0.32200  0.37500  Biso   1.000  F
  Cu5      1.0000 0.87500  0.99206  0.37500  Biso   1.000  Cu
  F5       1.0000 0.87500  0.92800  0.37500  Biso   1.000  F
  Cu6      1.0000 0.87500  0.49206  0.87500  Biso   1.000  Cu
  F6       1.0000 0.87500  0.42800  0.87500  Biso   1.000  F
  Cu7      1.0000 0.37500  0.99206  0.87500  Biso   1.000  Cu
  F7       1.0000 0.37500  0.92800  0.87500  Biso   1.000  F
  Cu8      1.0000 0.37500  0.49206  0.37500  Biso   1.000  Cu
  F8       1.0000 0.37500  0.42800  0.37500  Biso   1.000  F
  Cu9      1.0000 0.12500  0.24206  0.62500  Biso   1.000  Cu
  F9       1.0000 0.12500  0.17800  0.62500  Biso   1.000  F
  Cu10     1.0000 0.12500  0.74206  0.12500  Biso   1.000  Cu
  F10      1.0000 0.12500  0.67800  0.12500  Biso   1.000  F
  Cu11     1.0000 0.62500  0.24206  0.12500  Biso   1.000  Cu
  F11      1.0000 0.62500  0.17800  0.12500  Biso   1.000  F
  Cu12     1.0000 0.62500  0.74206  0.62500  Biso   1.000  Cu
  F12      1.0000 0.62500  0.67800  0.62500  Biso   1.000  F
  Cu13     1.0000 0.12500  0.00794  0.62500  Biso   1.000  Cu
  F13      1.0000 0.12500  0.07200  0.62500  Biso   1.000  F
  Cu14     1.0000 0.12500  0.50794  0.12500  Biso   1.000  Cu
  F14      1.0000 0.12500  0.57200  0.12500  Biso   1.000  F
  Cu15     1.0000 0.62500  0.00794  0.12500  Biso   1.000  Cu
  F15      1.0000 0.62500  0.07200  0.12500  Biso   1.000  F
  Cu16     1.0000 0.62500  0.50794  0.62500  Biso   1.000  Cu
  F16      1.0000 0.62500  0.57200  0.62500  Biso   1.000  F
  F17      1.0000 0.87500  0.87500  0.56940  Biso   1.000  F
  F18      1.0000 0.87500  0.37500  0.06940  Biso   1.000  F
  F19      1.0000 0.37500  0.87500  0.06940  Biso   1.000  F
  F20      1.0000 0.37500  0.37500  0.56940  Biso   1.000  F
  F21      1.0000 0.87500  0.87500  0.18060  Biso   1.000  F
  F22      1.0000 0.87500  0.37500  0.68060  Biso   1.000  F
  F23      1.0000 0.37500  0.87500  0.68060  Biso   1.000  F
  F24      1.0000 0.37500  0.37500  0.18060  Biso   1.000  F
  F25      1.0000 0.12500  0.12500  0.43060  Biso   1.000  F
  F26      1.0000 0.12500  0.62500  0.93060  Biso   1.000  F
  F27      1.0000 0.62500  0.12500  0.93060  Biso   1.000  F
  F28      1.0000 0.62500  0.62500  0.43060  Biso   1.000  F
  F29      1.0000 0.12500  0.12500  0.81940  Biso   1.000  F
  F30      1.0000 0.12500  0.62500  0.31940  Biso   1.000  F
  F31      1.0000 0.62500  0.12500  0.31940  Biso   1.000  F
  F32      1.0000 0.62500  0.62500  0.81940  Biso   1.000  F
  F33      1.0000 0.98920  0.87500  0.37500  Biso   1.000  F
  F34      1.0000 0.98920  0.37500  0.87500  Biso   1.000  F
  F35      1.0000 0.48920  0.87500  0.87500  Biso   1.000  F
  F36      1.0000 0.48920  0.37500  0.37500  Biso   1.000  F
  F37      1.0000 0.76080  0.87500  0.37500  Biso   1.000  F
  F38      1.0000 0.76080  0.37500  0.87500  Biso   1.000  F
  F39      1.0000 0.26080  0.87500  0.87500  Biso   1.000  F
  F40      1.0000 0.26080  0.37500  0.37500  Biso   1.000  F
  F41      1.0000 0.01080  0.12500  0.62500  Biso   1.000  F
  F42      1.0000 0.01080  0.62500  0.12500  Biso   1.000  F
  F43      1.0000 0.51080  0.12500  0.12500  Biso   1.000  F
  F44      1.0000 0.51080  0.62500  0.62500  Biso   1.000  F
  F45      1.0000 0.23920  0.12500  0.62500  Biso   1.000  F
  F46      1.0000 0.23920  0.62500  0.12500  Biso   1.000  F
  F47      1.0000 0.73920  0.12500  0.12500  Biso   1.000  F
  F48      1.0000 0.73920  0.62500  0.62500  Biso   1.000  F
