data_image0
_cell_length_a       9.263
_cell_length_b       11.0891
_cell_length_c       21.1717
_cell_angle_alpha    90
_cell_angle_beta     100.104
_cell_angle_gamma    90

_symmetry_space_group_name_H-M    "P 1"
_symmetry_int_tables_number       1

loop_
  _symmetry_equiv_pos_as_xyz
  'x, y, z'

loop_
  _atom_site_label
  _atom_site_occupancy
  _atom_site_fract_x
  _atom_site_fract_y
  _atom_site_fract_z
  _atom_site_thermal_displace_type
  _atom_site_B_iso_or_equiv
  _atom_site_type_symbol
  Cu1      1.0000 0.83814  0.37908  0.64904  Biso   1.000  Cu
  F1       1.0000 0.09100  0.60440  0.34151  Biso   1.000  F
  F2       1.0000 0.20270  0.67040  0.45931  Biso   1.000  F
  F3       1.0000 0.61390  0.42080  0.45463  Biso   1.000  F
  F4       1.0000 0.50050  0.35240  0.33706  Biso   1.000  F
  N1       1.0000 0.00000  0.52680  0.19842  Biso   1.000  N
  N2       1.0000 0.42120  0.78520  0.58022  Biso   1.000  N
  N3       1.0000 0.66150  0.46300  0.60593  Biso   1.000  N
  N4       1.0000 0.30220  0.25430  0.20755  Biso   1.000  N
  C1       1.0000 0.48380  0.46780  0.42762  Biso   1.000  C
  C2       1.0000 0.28890  0.47210  0.33362  Biso   1.000  C
  C3       1.0000 0.41590  0.55000  0.46275  Biso   1.000  C
  C4       1.0000 0.47560  0.58550  0.52844  Biso   1.000  C
  C5       1.0000 0.57930  0.51670  0.56906  Biso   1.000  C
  C6       1.0000 0.42290  0.43150  0.36626  Biso   1.000  C
  C7       1.0000 0.09990  0.48770  0.23203  Biso   1.000  C
  C8       1.0000 0.22160  0.55740  0.36823  Biso   1.000  C
  C9       1.0000 0.28150  0.59290  0.42943  Biso   1.000  C
  C10      1.0000 0.44160  0.69650  0.55469  Biso   1.000  C
  C11      1.0000 0.22450  0.43410  0.26887  Biso   1.000  C
  C12      1.0000 0.27430  0.33420  0.23767  Biso   1.000  C
  Cu2      1.0000 0.33814  0.87908  0.64904  Biso   1.000  Cu
  F5       1.0000 0.59100  0.10440  0.34151  Biso   1.000  F
  F6       1.0000 0.70270  0.17040  0.45931  Biso   1.000  F
  F7       1.0000 0.11390  0.92080  0.45463  Biso   1.000  F
  F8       1.0000 0.00050  0.85240  0.33706  Biso   1.000  F
  N5       1.0000 0.50000  0.02680  0.19842  Biso   1.000  N
  N6       1.0000 0.92120  0.28520  0.58022  Biso   1.000  N
  N7       1.0000 0.16150  0.96300  0.60593  Biso   1.000  N
  N8       1.0000 0.80220  0.75430  0.20755  Biso   1.000  N
  C13      1.0000 0.98380  0.96780  0.42762  Biso   1.000  C
  C14      1.0000 0.78890  0.97210  0.33362  Biso   1.000  C
  C15      1.0000 0.91590  0.05000  0.46275  Biso   1.000  C
  C16      1.0000 0.97560  0.08550  0.52844  Biso   1.000  C
  C17      1.0000 0.07930  0.01670  0.56906  Biso   1.000  C
  C18      1.0000 0.92290  0.93150  0.36626  Biso   1.000  C
  C19      1.0000 0.59990  0.98770  0.23203  Biso   1.000  C
  C20      1.0000 0.72160  0.05740  0.36823  Biso   1.000  C
  C21      1.0000 0.78150  0.09290  0.42943  Biso   1.000  C
  C22      1.0000 0.94160  0.19650  0.55469  Biso   1.000  C
  C23      1.0000 0.72450  0.93410  0.26887  Biso   1.000  C
  C24      1.0000 0.77430  0.83420  0.23767  Biso   1.000  C
  Cu3      1.0000 0.83814  0.62092  0.14904  Biso   1.000  Cu
  F9       1.0000 0.09100  0.39560  0.84151  Biso   1.000  F
  F10      1.0000 0.20270  0.32960  0.95931  Biso   1.000  F
  F11      1.0000 0.61390  0.57920  0.95463  Biso   1.000  F
  F12      1.0000 0.50050  0.64760  0.83706  Biso   1.000  F
  N9       1.0000 0.00000  0.47320  0.69842  Biso   1.000  N
  N10      1.0000 0.42120  0.21480  0.08022  Biso   1.000  N
  N11      1.0000 0.66150  0.53700  0.10593  Biso   1.000  N
  N12      1.0000 0.30220  0.74570  0.70755  Biso   1.000  N
  C25      1.0000 0.48380  0.53220  0.92762  Biso   1.000  C
  C26      1.0000 0.28890  0.52790  0.83362  Biso   1.000  C
  C27      1.0000 0.41590  0.45000  0.96275  Biso   1.000  C
  C28      1.0000 0.47560  0.41450  0.02844  Biso   1.000  C
  C29      1.0000 0.57930  0.48330  0.06906  Biso   1.000  C
  C30      1.0000 0.42290  0.56850  0.86626  Biso   1.000  C
  C31      1.0000 0.09990  0.51230  0.73203  Biso   1.000  C
  C32      1.0000 0.22160  0.44260  0.86823  Biso   1.000  C
  C33      1.0000 0.28150  0.40710  0.92943  Biso   1.000  C
  C34      1.0000 0.44160  0.30350  0.05469  Biso   1.000  C
  C35      1.0000 0.22450  0.56590  0.76887  Biso   1.000  C
  C36      1.0000 0.27430  0.66580  0.73767  Biso   1.000  C
  Cu4      1.0000 0.33814  0.12092  0.14904  Biso   1.000  Cu
  F13      1.0000 0.59100  0.89560  0.84151  Biso   1.000  F
  F14      1.0000 0.70270  0.82960  0.95931  Biso   1.000  F
  F15      1.0000 0.11390  0.07920  0.95463  Biso   1.000  F
  F16      1.0000 0.00050  0.14760  0.83706  Biso   1.000  F
  N13      1.0000 0.50000  0.97320  0.69842  Biso   1.000  N
  N14      1.0000 0.92120  0.71480  0.08022  Biso   1.000  N
  N15      1.0000 0.16150  0.03700  0.10593  Biso   1.000  N
  N16      1.0000 0.80220  0.24570  0.70755  Biso   1.000  N
  C37      1.0000 0.98380  0.03220  0.92762  Biso   1.000  C
  C38      1.0000 0.78890  0.02790  0.83362  Biso   1.000  C
  C39      1.0000 0.91590  0.95000  0.96275  Biso   1.000  C
  C40      1.0000 0.97560  0.91450  0.02844  Biso   1.000  C
  C41      1.0000 0.07930  0.98330  0.06906  Biso   1.000  C
  C42      1.0000 0.92290  0.06850  0.86626  Biso   1.000  C
  C43      1.0000 0.59990  0.01230  0.73203  Biso   1.000  C
  C44      1.0000 0.72160  0.94260  0.86823  Biso   1.000  C
  C45      1.0000 0.78150  0.90710  0.92943  Biso   1.000  C
  C46      1.0000 0.94160  0.80350  0.05469  Biso   1.000  C
  C47      1.0000 0.72450  0.06590  0.76887  Biso   1.000  C
  C48      1.0000 0.77430  0.16580  0.73767  Biso   1.000  C
