data_image0
_cell_length_a       6.2047
_cell_length_b       17.746
_cell_length_c       20.423
_cell_angle_alpha    90
_cell_angle_beta     98.4523
_cell_angle_gamma    90

_symmetry_space_group_name_H-M    P 1
_symmetry_int_tables_number       1

loop_
  _symmetry_equiv_pos_as_xyz
  'x, y, z'

loop_
  _atom_site_label
  _atom_site_occupancy
  _atom_site_fract_x
  _atom_site_fract_y
  _atom_site_fract_z
  _atom_site_thermal_displace_type
  _atom_site_B_iso_or_equiv
  _atom_site_type_symbol
  Zn1      1.0000 0.21191  0.51380  0.28062  Biso   1.000  Zn
  Zn2      1.0000 0.28809  0.01380  0.21938  Biso   1.000  Zn
  Zn3      1.0000 0.78809  0.48620  0.71938  Biso   1.000  Zn
  Zn4      1.0000 0.71191  0.98620  0.78062  Biso   1.000  Zn
  H1       1.0000 0.64340  0.71400  0.26550  Biso   1.000  H
  H2       1.0000 0.44350  0.75880  0.28480  Biso   1.000  H
  H3       1.0000 0.66110  0.68360  0.15260  Biso   1.000  H
  H4       1.0000 0.54550  0.69920  0.04260  Biso   1.000  H
  H5       1.0000 0.20660  0.74940  0.00720  Biso   1.000  H
  H6       1.0000 0.99380  0.79090  0.08380  Biso   1.000  H
  H7       1.0000 0.90380  0.79270  0.19320  Biso   1.000  H
  H8       1.0000 0.05870  0.75420  0.25110  Biso   1.000  H
  H9       1.0000 0.75160  0.47320  0.22370  Biso   1.000  H
  H10      1.0000 0.52730  0.47030  0.12590  Biso   1.000  H
  H11      1.0000 0.97900  0.57750  0.04260  Biso   1.000  H
  H12      1.0000 0.19910  0.57700  0.14180  Biso   1.000  H
  H13      1.0000 0.63490  0.54960  0.97420  Biso   1.000  H
  H14      1.0000 0.89270  0.60640  0.34410  Biso   1.000  H
  H15      1.0000 0.65620  0.59560  0.41880  Biso   1.000  H
  H16      1.0000 0.85500  0.38320  0.45230  Biso   1.000  H
  H17      1.0000 0.08420  0.39900  0.37620  Biso   1.000  H
  H18      1.0000 0.57880  0.42940  0.51370  Biso   1.000  H
  H19      1.0000 0.85660  0.21400  0.23450  Biso   1.000  H
  H20      1.0000 0.05650  0.25880  0.21520  Biso   1.000  H
  H21      1.0000 0.83890  0.18360  0.34740  Biso   1.000  H
  H22      1.0000 0.95450  0.19920  0.45740  Biso   1.000  H
  H23      1.0000 0.29340  0.24940  0.49280  Biso   1.000  H
  H24      1.0000 0.50620  0.29090  0.41620  Biso   1.000  H
  H25      1.0000 0.59620  0.29270  0.30680  Biso   1.000  H
  H26      1.0000 0.44130  0.25420  0.24890  Biso   1.000  H
  H27      1.0000 0.74840  0.97320  0.27630  Biso   1.000  H
  H28      1.0000 0.97270  0.97030  0.37410  Biso   1.000  H
  H29      1.0000 0.52100  0.07750  0.45740  Biso   1.000  H
  H30      1.0000 0.30090  0.07700  0.35820  Biso   1.000  H
  H31      1.0000 0.86510  0.04960  0.52580  Biso   1.000  H
  H32      1.0000 0.60730  0.10640  0.15590  Biso   1.000  H
  H33      1.0000 0.84380  0.09560  0.08120  Biso   1.000  H
  H34      1.0000 0.64500  0.88320  0.04770  Biso   1.000  H
  H35      1.0000 0.41580  0.89900  0.12380  Biso   1.000  H
  H36      1.0000 0.92120  0.92940  0.98630  Biso   1.000  H
  H37      1.0000 0.35660  0.28600  0.73450  Biso   1.000  H
  H38      1.0000 0.55650  0.24120  0.71520  Biso   1.000  H
  H39      1.0000 0.33890  0.31640  0.84740  Biso   1.000  H
  H40      1.0000 0.45450  0.30080  0.95740  Biso   1.000  H
  H41      1.0000 0.79340  0.25060  0.99280  Biso   1.000  H
  H42      1.0000 0.00620  0.20910  0.91620  Biso   1.000  H
  H43      1.0000 0.09620  0.20730  0.80680  Biso   1.000  H
  H44      1.0000 0.94130  0.24580  0.74890  Biso   1.000  H
  H45      1.0000 0.24840  0.52680  0.77630  Biso   1.000  H
  H46      1.0000 0.47270  0.52970  0.87410  Biso   1.000  H
  H47      1.0000 0.02100  0.42250  0.95740  Biso   1.000  H
  H48      1.0000 0.80090  0.42300  0.85820  Biso   1.000  H
  H49      1.0000 0.36510  0.45040  0.02580  Biso   1.000  H
  H50      1.0000 0.10730  0.39360  0.65590  Biso   1.000  H
  H51      1.0000 0.34380  0.40440  0.58120  Biso   1.000  H
  H52      1.0000 0.14500  0.61680  0.54770  Biso   1.000  H
  H53      1.0000 0.91580  0.60100  0.62380  Biso   1.000  H
  H54      1.0000 0.42120  0.57060  0.48630  Biso   1.000  H
  H55      1.0000 0.14340  0.78600  0.76550  Biso   1.000  H
  H56      1.0000 0.94350  0.74120  0.78480  Biso   1.000  H
  H57      1.0000 0.16110  0.81640  0.65260  Biso   1.000  H
  H58      1.0000 0.04550  0.80080  0.54260  Biso   1.000  H
  H59      1.0000 0.70660  0.75060  0.50720  Biso   1.000  H
  H60      1.0000 0.49380  0.70910  0.58380  Biso   1.000  H
  H61      1.0000 0.40380  0.70730  0.69320  Biso   1.000  H
  H62      1.0000 0.55870  0.74580  0.75110  Biso   1.000  H
  H63      1.0000 0.25160  0.02680  0.72370  Biso   1.000  H
  H64      1.0000 0.02730  0.02970  0.62590  Biso   1.000  H
  H65      1.0000 0.47900  0.92250  0.54260  Biso   1.000  H
  H66      1.0000 0.69910  0.92300  0.64180  Biso   1.000  H
  H67      1.0000 0.13490  0.95040  0.47420  Biso   1.000  H
  H68      1.0000 0.39270  0.89360  0.84410  Biso   1.000  H
  H69      1.0000 0.15620  0.90440  0.91880  Biso   1.000  H
  H70      1.0000 0.35500  0.11680  0.95230  Biso   1.000  H
  H71      1.0000 0.58420  0.10100  0.87620  Biso   1.000  H
  H72      1.0000 0.07880  0.07060  0.01370  Biso   1.000  H
  C1       1.0000 0.39140  0.64530  0.28050  Biso   1.000  C
  C2       1.0000 0.48570  0.71710  0.25880  Biso   1.000  C
  C3       1.0000 0.40170  0.73000  0.18570  Biso   1.000  C
  C4       1.0000 0.52660  0.70590  0.13880  Biso   1.000  C
  C5       1.0000 0.45720  0.71430  0.07330  Biso   1.000  C
  C6       1.0000 0.25690  0.74490  0.05220  Biso   1.000  C
  C7       1.0000 0.12880  0.76930  0.09850  Biso   1.000  C
  C8       1.0000 0.19710  0.76220  0.16620  Biso   1.000  C
  C9       1.0000 0.05320  0.79010  0.21510  Biso   1.000  C
  C10      1.0000 0.12060  0.86710  0.24350  Biso   1.000  C
  C11      1.0000 0.80070  0.49370  0.18670  Biso   1.000  C
  C12      1.0000 0.66440  0.49220  0.12800  Biso   1.000  C
  C13      1.0000 0.72660  0.52240  0.07200  Biso   1.000  C
  C14      1.0000 0.93070  0.55510  0.07890  Biso   1.000  C
  C15      1.0000 0.06240  0.55480  0.13880  Biso   1.000  C
  C16      1.0000 0.59120  0.52030  0.00760  Biso   1.000  C
  C17      1.0000 0.88450  0.56070  0.36590  Biso   1.000  C
  C18      1.0000 0.74190  0.55460  0.41080  Biso   1.000  C
  C19      1.0000 0.72450  0.48700  0.44460  Biso   1.000  C
  C20      1.0000 0.85840  0.42920  0.43060  Biso   1.000  C
  C21      1.0000 0.99660  0.43930  0.38490  Biso   1.000  C
  C22      1.0000 0.57240  0.47570  0.49220  Biso   1.000  C
  C23      1.0000 0.10860  0.14530  0.21950  Biso   1.000  C
  C24      1.0000 0.01430  0.21710  0.24120  Biso   1.000  C
  C25      1.0000 0.09830  0.23000  0.31430  Biso   1.000  C
  C26      1.0000 0.97340  0.20590  0.36120  Biso   1.000  C
  C27      1.0000 0.04280  0.21430  0.42670  Biso   1.000  C
  C28      1.0000 0.24310  0.24490  0.44780  Biso   1.000  C
  C29      1.0000 0.37120  0.26930  0.40150  Biso   1.000  C
  C30      1.0000 0.30290  0.26220  0.33380  Biso   1.000  C
  C31      1.0000 0.44680  0.29010  0.28490  Biso   1.000  C
  C32      1.0000 0.37940  0.36710  0.25650  Biso   1.000  C
  C33      1.0000 0.69930  0.99370  0.31330  Biso   1.000  C
  C34      1.0000 0.83560  0.99220  0.37200  Biso   1.000  C
  C35      1.0000 0.77340  0.02240  0.42800  Biso   1.000  C
  C36      1.0000 0.56930  0.05510  0.42110  Biso   1.000  C
  C37      1.0000 0.43760  0.05480  0.36120  Biso   1.000  C
  C38      1.0000 0.90880  0.02030  0.49240  Biso   1.000  C
  C39      1.0000 0.61550  0.06070  0.13410  Biso   1.000  C
  C40      1.0000 0.75810  0.05460  0.08920  Biso   1.000  C
  C41      1.0000 0.77550  0.98700  0.05540  Biso   1.000  C
  C42      1.0000 0.64160  0.92920  0.06940  Biso   1.000  C
  C43      1.0000 0.50340  0.93930  0.11510  Biso   1.000  C
  C44      1.0000 0.92760  0.97570  0.00780  Biso   1.000  C
  C45      1.0000 0.60860  0.35470  0.71950  Biso   1.000  C
  C46      1.0000 0.51430  0.28290  0.74120  Biso   1.000  C
  C47      1.0000 0.59830  0.27000  0.81430  Biso   1.000  C
  C48      1.0000 0.47340  0.29410  0.86120  Biso   1.000  C
  C49      1.0000 0.54280  0.28570  0.92670  Biso   1.000  C
  C50      1.0000 0.74310  0.25510  0.94780  Biso   1.000  C
  C51      1.0000 0.87120  0.23070  0.90150  Biso   1.000  C
  C52      1.0000 0.80290  0.23780  0.83380  Biso   1.000  C
  C53      1.0000 0.94680  0.20990  0.78490  Biso   1.000  C
  C54      1.0000 0.87940  0.13290  0.75650  Biso   1.000  C
  C55      1.0000 0.19930  0.50630  0.81330  Biso   1.000  C
  C56      1.0000 0.33560  0.50780  0.87200  Biso   1.000  C
  C57      1.0000 0.27340  0.47760  0.92800  Biso   1.000  C
  C58      1.0000 0.06930  0.44490  0.92110  Biso   1.000  C
  C59      1.0000 0.93760  0.44520  0.86120  Biso   1.000  C
  C60      1.0000 0.40880  0.47970  0.99240  Biso   1.000  C
  C61      1.0000 0.11550  0.43930  0.63410  Biso   1.000  C
  C62      1.0000 0.25810  0.44540  0.58920  Biso   1.000  C
  C63      1.0000 0.27550  0.51300  0.55540  Biso   1.000  C
  C64      1.0000 0.14160  0.57080  0.56940  Biso   1.000  C
  C65      1.0000 0.00340  0.56070  0.61510  Biso   1.000  C
  C66      1.0000 0.42760  0.52430  0.50780  Biso   1.000  C
  C67      1.0000 0.89140  0.85470  0.78050  Biso   1.000  C
  C68      1.0000 0.98570  0.78290  0.75880  Biso   1.000  C
  C69      1.0000 0.90170  0.77000  0.68570  Biso   1.000  C
  C70      1.0000 0.02660  0.79410  0.63880  Biso   1.000  C
  C71      1.0000 0.95720  0.78570  0.57330  Biso   1.000  C
  C72      1.0000 0.75690  0.75510  0.55220  Biso   1.000  C
  C73      1.0000 0.62880  0.73070  0.59850  Biso   1.000  C
  C74      1.0000 0.69710  0.73780  0.66620  Biso   1.000  C
  C75      1.0000 0.55320  0.70990  0.71510  Biso   1.000  C
  C76      1.0000 0.62060  0.63290  0.74350  Biso   1.000  C
  C77      1.0000 0.30070  0.00630  0.68670  Biso   1.000  C
  C78      1.0000 0.16440  0.00780  0.62800  Biso   1.000  C
  C79      1.0000 0.22660  0.97760  0.57200  Biso   1.000  C
  C80      1.0000 0.43070  0.94490  0.57890  Biso   1.000  C
  C81      1.0000 0.56240  0.94520  0.63880  Biso   1.000  C
  C82      1.0000 0.09120  0.97970  0.50760  Biso   1.000  C
  C83      1.0000 0.38450  0.93930  0.86590  Biso   1.000  C
  C84      1.0000 0.24190  0.94540  0.91080  Biso   1.000  C
  C85      1.0000 0.22450  0.01300  0.94460  Biso   1.000  C
  C86      1.0000 0.35840  0.07080  0.93060  Biso   1.000  C
  C87      1.0000 0.49660  0.06070  0.88490  Biso   1.000  C
  C88      1.0000 0.07240  0.02430  0.99220  Biso   1.000  C
  N1       1.0000 0.00220  0.52330  0.19400  Biso   1.000  N
  N2       1.0000 0.01275  0.50410  0.35185  Biso   1.000  N
  N3       1.0000 0.49780  0.02330  0.30600  Biso   1.000  N
  N4       1.0000 0.48725  0.00410  0.14815  Biso   1.000  N
  N5       1.0000 0.99780  0.47670  0.80600  Biso   1.000  N
  N6       1.0000 0.98725  0.49590  0.64815  Biso   1.000  N
  N7       1.0000 0.50220  0.97670  0.69400  Biso   1.000  N
  N8       1.0000 0.51275  0.99590  0.85185  Biso   1.000  N
  O1       1.0000 0.25690  0.64630  0.31900  Biso   1.000  O
  O2       1.0000 0.44096  0.58450  0.25716  Biso   1.000  O
  O3       1.0000 0.13425  0.87990  0.30285  Biso   1.000  O
  O4       1.0000 0.15241  0.91594  0.20091  Biso   1.000  O
  O5       1.0000 0.24310  0.14630  0.18100  Biso   1.000  O
  O6       1.0000 0.05904  0.08450  0.24284  Biso   1.000  O
  O7       1.0000 0.36575  0.37990  0.19715  Biso   1.000  O
  O8       1.0000 0.34759  0.41594  0.29909  Biso   1.000  O
  O9       1.0000 0.74310  0.35370  0.68100  Biso   1.000  O
  O10      1.0000 0.55904  0.41550  0.74284  Biso   1.000  O
  O11      1.0000 0.86575  0.12010  0.69715  Biso   1.000  O
  O12      1.0000 0.84759  0.08406  0.79909  Biso   1.000  O
  O13      1.0000 0.75690  0.85370  0.81900  Biso   1.000  O
  O14      1.0000 0.94096  0.91550  0.75716  Biso   1.000  O
  O15      1.0000 0.63425  0.62010  0.80285  Biso   1.000  O
  O16      1.0000 0.65241  0.58406  0.70091  Biso   1.000  O
