data_image0
_cell_length_a       8.3207
_cell_length_b       13.112
_cell_length_c       13.4253
_cell_angle_alpha    71.716
_cell_angle_beta     79.758
_cell_angle_gamma    88.055

_symmetry_space_group_name_H-M    P 1
_symmetry_int_tables_number       1

loop_
  _symmetry_equiv_pos_as_xyz
  'x, y, z'

loop_
  _atom_site_label
  _atom_site_occupancy
  _atom_site_fract_x
  _atom_site_fract_y
  _atom_site_fract_z
  _atom_site_thermal_displace_type
  _atom_site_B_iso_or_equiv
  _atom_site_type_symbol
  Zn1      1.0000 0.77437  0.63699  0.36084  Biso   1.000  Zn
  Zn2      1.0000 0.22563  0.36301  0.63916  Biso   1.000  Zn
  Zn3      1.0000 0.00000  0.00000  0.00000  Biso   1.000  Zn
  H1       1.0000 0.22200  0.01000  0.81900  Biso   1.000  H
  H2       1.0000 0.10100  0.08010  0.79200  Biso   1.000  H
  H3       1.0000 0.13800  0.18910  0.95980  Biso   1.000  H
  H4       1.0000 0.15700  0.11890  0.05560  Biso   1.000  H
  H5       1.0000 0.83410  0.51800  0.21220  Biso   1.000  H
  H6       1.0000 0.88400  0.34670  0.20290  Biso   1.000  H
  H7       1.0000 0.73120  0.23090  0.52130  Biso   1.000  H
  H8       1.0000 0.67850  0.40480  0.52190  Biso   1.000  H
  H9       1.0000 0.94190  0.16320  0.29350  Biso   1.000  H
  H10      1.0000 0.75250  0.13120  0.33420  Biso   1.000  H
  H11      1.0000 0.80760  0.95120  0.41570  Biso   1.000  H
  H12      1.0000 0.99710  0.98050  0.36810  Biso   1.000  H
  H13      1.0000 0.13110  0.11700  0.41040  Biso   1.000  H
  H14      1.0000 0.03180  0.17980  0.48590  Biso   1.000  H
  H15      1.0000 0.59400  0.77240  0.48230  Biso   1.000  H
  H16      1.0000 0.54770  0.78960  0.65140  Biso   1.000  H
  H17      1.0000 0.83110  0.53250  0.74550  Biso   1.000  H
  H18      1.0000 0.87180  0.52260  0.57430  Biso   1.000  H
  H19      1.0000 0.56030  0.72170  0.83420  Biso   1.000  H
  H20      1.0000 0.75020  0.70480  0.84010  Biso   1.000  H
  H21      1.0000 0.37530  0.56660  0.89510  Biso   1.000  H
  H22      1.0000 0.49180  0.50380  0.82640  Biso   1.000  H
  H23      1.0000 0.67210  0.62050  0.02820  Biso   1.000  H
  H24      1.0000 0.48370  0.63670  0.01660  Biso   1.000  H
  H25      1.0000 0.57520  0.90130  0.11680  Biso   1.000  H
  H26      1.0000 0.51460  0.80720  0.07940  Biso   1.000  H
  H27      1.0000 0.35280  0.85380  0.26710  Biso   1.000  H
  H28      1.0000 0.31220  0.67570  0.26850  Biso   1.000  H
  H29      1.0000 0.24750  0.71950  0.15810  Biso   1.000  H
  H30      1.0000 0.77800  0.99000  0.18100  Biso   1.000  H
  H31      1.0000 0.89900  0.91990  0.20800  Biso   1.000  H
  H32      1.0000 0.86200  0.81090  0.04020  Biso   1.000  H
  H33      1.0000 0.84300  0.88110  0.94440  Biso   1.000  H
  H34      1.0000 0.16590  0.48200  0.78780  Biso   1.000  H
  H35      1.0000 0.11600  0.65330  0.79710  Biso   1.000  H
  H36      1.0000 0.26880  0.76910  0.47870  Biso   1.000  H
  H37      1.0000 0.32150  0.59520  0.47810  Biso   1.000  H
  H38      1.0000 0.05810  0.83680  0.70650  Biso   1.000  H
  H39      1.0000 0.24750  0.86880  0.66580  Biso   1.000  H
  H40      1.0000 0.19240  0.04880  0.58430  Biso   1.000  H
  H41      1.0000 0.00290  0.01950  0.63190  Biso   1.000  H
  H42      1.0000 0.86890  0.88300  0.58960  Biso   1.000  H
  H43      1.0000 0.96820  0.82020  0.51410  Biso   1.000  H
  H44      1.0000 0.40600  0.22760  0.51770  Biso   1.000  H
  H45      1.0000 0.45230  0.21040  0.34860  Biso   1.000  H
  H46      1.0000 0.16890  0.46750  0.25450  Biso   1.000  H
  H47      1.0000 0.12820  0.47740  0.42570  Biso   1.000  H
  H48      1.0000 0.43970  0.27830  0.16580  Biso   1.000  H
  H49      1.0000 0.24980  0.29520  0.15990  Biso   1.000  H
  H50      1.0000 0.62470  0.43340  0.10490  Biso   1.000  H
  H51      1.0000 0.50820  0.49620  0.17360  Biso   1.000  H
  H52      1.0000 0.32790  0.37950  0.97180  Biso   1.000  H
  H53      1.0000 0.51630  0.36330  0.98340  Biso   1.000  H
  H54      1.0000 0.42480  0.09870  0.88320  Biso   1.000  H
  H55      1.0000 0.48540  0.19280  0.92060  Biso   1.000  H
  H56      1.0000 0.64720  0.14620  0.73290  Biso   1.000  H
  H57      1.0000 0.68780  0.32430  0.73150  Biso   1.000  H
  H58      1.0000 0.75250  0.28050  0.84190  Biso   1.000  H
  C1       1.0000 0.81210  0.45880  0.27579  Biso   1.000  C
  C2       1.0000 0.84340  0.35685  0.26979  Biso   1.000  C
  C3       1.0000 0.81550  0.26882  0.36162  Biso   1.000  C
  C4       1.0000 0.75290  0.28871  0.45652  Biso   1.000  C
  C5       1.0000 0.72250  0.39275  0.45629  Biso   1.000  C
  C6       1.0000 0.84950  0.15783  0.35274  Biso   1.000  C
  C7       1.0000 0.91050  0.97395  0.43086  Biso   1.000  C
  C8       1.0000 0.04330  0.10945  0.47279  Biso   1.000  C
  C9       1.0000 0.64210  0.72301  0.53666  Biso   1.000  C
  C10      1.0000 0.61410  0.73367  0.63732  Biso   1.000  C
  C11      1.0000 0.68320  0.66249  0.71792  Biso   1.000  C
  C12      1.0000 0.78090  0.58258  0.69267  Biso   1.000  C
  C13      1.0000 0.80410  0.57699  0.59072  Biso   1.000  C
  C14      1.0000 0.65200  0.67261  0.82839  Biso   1.000  C
  C15      1.0000 0.46860  0.51757  0.89598  Biso   1.000  C
  C16      1.0000 0.57570  0.58687  0.01597  Biso   1.000  C
  C17      1.0000 0.62530  0.75083  0.21104  Biso   1.000  C
  C18      1.0000 0.52080  0.82951  0.14258  Biso   1.000  C
  C19      1.0000 0.34680  0.83904  0.19916  Biso   1.000  C
  C20      1.0000 0.25130  0.73434  0.22559  Biso   1.000  C
  C21      1.0000 0.07840  0.73047  0.28536  Biso   1.000  C
  C22      1.0000 0.26790  0.93470  0.12708  Biso   1.000  C
  C23      1.0000 0.18790  0.54120  0.72421  Biso   1.000  C
  C24      1.0000 0.15660  0.64315  0.73021  Biso   1.000  C
  C25      1.0000 0.18450  0.73118  0.63838  Biso   1.000  C
  C26      1.0000 0.24710  0.71129  0.54348  Biso   1.000  C
  C27      1.0000 0.27750  0.60725  0.54371  Biso   1.000  C
  C28      1.0000 0.15050  0.84217  0.64726  Biso   1.000  C
  C29      1.0000 0.08950  0.02605  0.56914  Biso   1.000  C
  C30      1.0000 0.95670  0.89055  0.52721  Biso   1.000  C
  C31      1.0000 0.35790  0.27699  0.46334  Biso   1.000  C
  C32      1.0000 0.38590  0.26633  0.36268  Biso   1.000  C
  C33      1.0000 0.31680  0.33751  0.28208  Biso   1.000  C
  C34      1.0000 0.21910  0.41742  0.30733  Biso   1.000  C
  C35      1.0000 0.19590  0.42301  0.40928  Biso   1.000  C
  C36      1.0000 0.34800  0.32739  0.17161  Biso   1.000  C
  C37      1.0000 0.53140  0.48243  0.10402  Biso   1.000  C
  C38      1.0000 0.42430  0.41313  0.98403  Biso   1.000  C
  C39      1.0000 0.37470  0.24917  0.78896  Biso   1.000  C
  C40      1.0000 0.47920  0.17049  0.85742  Biso   1.000  C
  C41      1.0000 0.65320  0.16096  0.80084  Biso   1.000  C
  C42      1.0000 0.74870  0.26566  0.77441  Biso   1.000  C
  C43      1.0000 0.92160  0.26953  0.71464  Biso   1.000  C
  C44      1.0000 0.73210  0.06530  0.87292  Biso   1.000  C
  N1       1.0000 0.75210  0.47815  0.36745  Biso   1.000  N
  N2       1.0000 0.88870  0.07907  0.44947  Biso   1.000  N
  N3       1.0000 0.73510  0.64515  0.51293  Biso   1.000  N
  N4       1.0000 0.61270  0.56867  0.91158  Biso   1.000  N
  N5       1.0000 0.24790  0.52185  0.63255  Biso   1.000  N
  N6       1.0000 0.11130  0.92093  0.55053  Biso   1.000  N
  N7       1.0000 0.26490  0.35485  0.48707  Biso   1.000  N
  N8       1.0000 0.38730  0.43133  0.08842  Biso   1.000  N
  O1       1.0000 0.74636  0.71227  0.16768  Biso   1.000  O
  O2       1.0000 0.58935  0.72749  0.31208  Biso   1.000  O
  O3       1.0000 0.01024  0.63705  0.31773  Biso   1.000  O
  O4       1.0000 0.00937  0.81085  0.30077  Biso   1.000  O
  O5       1.0000 0.18361  0.91482  0.06593  Biso   1.000  O
  O6       1.0000 0.29648  0.02672  0.13089  Biso   1.000  O
  O7       1.0000 0.13310  0.03140  0.84303  Biso   1.000  O
  O8       1.0000 0.08812  0.14506  0.01609  Biso   1.000  O
  O9       1.0000 0.25364  0.28773  0.83232  Biso   1.000  O
  O10      1.0000 0.41065  0.27251  0.68792  Biso   1.000  O
  O11      1.0000 0.98976  0.36295  0.68227  Biso   1.000  O
  O12      1.0000 0.99063  0.18915  0.69923  Biso   1.000  O
  O13      1.0000 0.81639  0.08518  0.93407  Biso   1.000  O
  O14      1.0000 0.70352  0.97328  0.86911  Biso   1.000  O
  O15      1.0000 0.86690  0.96860  0.15697  Biso   1.000  O
  O16      1.0000 0.91188  0.85494  0.98391  Biso   1.000  O
