data_image0
_cell_length_a       7.662
_cell_length_b       9.9056
_cell_length_c       36.857
_cell_angle_alpha    96.245
_cell_angle_beta     90
_cell_angle_gamma    90

_symmetry_space_group_name_H-M    P 1
_symmetry_int_tables_number       1

loop_
  _symmetry_equiv_pos_as_xyz
  'x, y, z'

loop_
  _atom_site_label
  _atom_site_occupancy
  _atom_site_fract_x
  _atom_site_fract_y
  _atom_site_fract_z
  _atom_site_thermal_displace_type
  _atom_site_B_iso_or_equiv
  _atom_site_type_symbol
  Zn1      1.0000 0.45754  0.16822  0.02738  Biso   1.000  Zn
  Zn2      1.0000 0.66216  0.72786  0.33186  Biso   1.000  Zn
  Zn3      1.0000 0.95754  0.83178  0.47262  Biso   1.000  Zn
  Zn4      1.0000 0.16216  0.27214  0.16814  Biso   1.000  Zn
  Zn5      1.0000 0.54246  0.83178  0.97262  Biso   1.000  Zn
  Zn6      1.0000 0.33784  0.27214  0.66814  Biso   1.000  Zn
  Zn7      1.0000 0.04246  0.16822  0.52738  Biso   1.000  Zn
  Zn8      1.0000 0.83784  0.72786  0.83186  Biso   1.000  Zn
  H1       1.0000 0.79720  0.72570  0.09220  Biso   1.000  H
  H2       1.0000 0.70120  0.87790  0.19600  Biso   1.000  H
  H3       1.0000 0.58140  0.48900  0.16200  Biso   1.000  H
  H4       1.0000 0.91250  0.50950  0.06590  Biso   1.000  H
  H5       1.0000 0.81980  0.30830  0.02610  Biso   1.000  H
  H6       1.0000 0.46190  0.37810  0.10230  Biso   1.000  H
  H7       1.0000 0.36380  0.53400  0.21570  Biso   1.000  H
  H8       1.0000 0.36920  0.55390  0.28230  Biso   1.000  H
  H9       1.0000 0.75040  0.77430  0.25180  Biso   1.000  H
  H10      1.0000 0.78760  0.96880  0.08220  Biso   1.000  H
  H11      1.0000 0.96690  0.17260  0.09200  Biso   1.000  H
  H12      1.0000 0.95300  0.01030  0.18430  Biso   1.000  H
  H13      1.0000 0.72140  0.50490  0.42740  Biso   1.000  H
  H14      1.0000 0.80340  0.35490  0.46700  Biso   1.000  H
  H15      1.0000 0.81490  0.05670  0.38460  Biso   1.000  H
  H16      1.0000 0.72110  0.20490  0.34500  Biso   1.000  H
  H17      1.0000 0.29720  0.27430  0.40780  Biso   1.000  H
  H18      1.0000 0.20120  0.12210  0.30400  Biso   1.000  H
  H19      1.0000 0.08140  0.51100  0.33800  Biso   1.000  H
  H20      1.0000 0.41250  0.49050  0.43410  Biso   1.000  H
  H21      1.0000 0.31980  0.69170  0.47390  Biso   1.000  H
  H22      1.0000 0.96190  0.62190  0.39770  Biso   1.000  H
  H23      1.0000 0.86380  0.46600  0.28430  Biso   1.000  H
  H24      1.0000 0.86920  0.44610  0.21770  Biso   1.000  H
  H25      1.0000 0.25040  0.22570  0.24820  Biso   1.000  H
  H26      1.0000 0.28760  0.03120  0.41780  Biso   1.000  H
  H27      1.0000 0.46690  0.82740  0.40800  Biso   1.000  H
  H28      1.0000 0.45300  0.98970  0.31570  Biso   1.000  H
  H29      1.0000 0.22140  0.49510  0.07260  Biso   1.000  H
  H30      1.0000 0.30340  0.64510  0.03300  Biso   1.000  H
  H31      1.0000 0.31490  0.94330  0.11540  Biso   1.000  H
  H32      1.0000 0.22110  0.79510  0.15500  Biso   1.000  H
  H33      1.0000 0.20280  0.27430  0.90780  Biso   1.000  H
  H34      1.0000 0.29880  0.12210  0.80400  Biso   1.000  H
  H35      1.0000 0.41860  0.51100  0.83800  Biso   1.000  H
  H36      1.0000 0.08750  0.49050  0.93410  Biso   1.000  H
  H37      1.0000 0.18020  0.69170  0.97390  Biso   1.000  H
  H38      1.0000 0.53810  0.62190  0.89770  Biso   1.000  H
  H39      1.0000 0.63620  0.46600  0.78430  Biso   1.000  H
  H40      1.0000 0.63080  0.44610  0.71770  Biso   1.000  H
  H41      1.0000 0.24960  0.22570  0.74820  Biso   1.000  H
  H42      1.0000 0.21240  0.03120  0.91780  Biso   1.000  H
  H43      1.0000 0.03310  0.82740  0.90800  Biso   1.000  H
  H44      1.0000 0.04700  0.98970  0.81570  Biso   1.000  H
  H45      1.0000 0.27860  0.49510  0.57260  Biso   1.000  H
  H46      1.0000 0.19660  0.64510  0.53300  Biso   1.000  H
  H47      1.0000 0.18510  0.94330  0.61540  Biso   1.000  H
  H48      1.0000 0.27890  0.79510  0.65500  Biso   1.000  H
  H49      1.0000 0.70280  0.72570  0.59220  Biso   1.000  H
  H50      1.0000 0.79880  0.87790  0.69600  Biso   1.000  H
  H51      1.0000 0.91860  0.48900  0.66200  Biso   1.000  H
  H52      1.0000 0.58750  0.50950  0.56590  Biso   1.000  H
  H53      1.0000 0.68020  0.30830  0.52610  Biso   1.000  H
  H54      1.0000 0.03810  0.37810  0.60230  Biso   1.000  H
  H55      1.0000 0.13620  0.53400  0.71570  Biso   1.000  H
  H56      1.0000 0.13080  0.55390  0.78230  Biso   1.000  H
  H57      1.0000 0.74960  0.77430  0.75180  Biso   1.000  H
  H58      1.0000 0.71240  0.96880  0.58220  Biso   1.000  H
  H59      1.0000 0.53310  0.17260  0.59200  Biso   1.000  H
  H60      1.0000 0.54700  0.01030  0.68430  Biso   1.000  H
  H61      1.0000 0.77860  0.50490  0.92740  Biso   1.000  H
  H62      1.0000 0.69660  0.35490  0.96700  Biso   1.000  H
  H63      1.0000 0.68510  0.05670  0.88460  Biso   1.000  H
  H64      1.0000 0.77890  0.20490  0.84500  Biso   1.000  H
  C1       1.0000 0.68590  0.59130  0.12335  Biso   1.000  C
  C2       1.0000 0.75580  0.71450  0.11542  Biso   1.000  C
  C3       1.0000 0.76130  0.81920  0.14323  Biso   1.000  C
  C4       1.0000 0.69820  0.80550  0.17769  Biso   1.000  C
  C5       1.0000 0.63070  0.68130  0.18422  Biso   1.000  C
  C6       1.0000 0.62530  0.57270  0.15719  Biso   1.000  C
  C7       1.0000 0.81200  0.45860  0.06832  Biso   1.000  C
  C8       1.0000 0.75910  0.34770  0.04644  Biso   1.000  C
  C9       1.0000 0.56180  0.38510  0.08829  Biso   1.000  C
  C10      1.0000 0.44160  0.58490  0.23099  Biso   1.000  C
  C11      1.0000 0.44600  0.59640  0.26766  Biso   1.000  C
  C12      1.0000 0.65410  0.71700  0.25133  Biso   1.000  C
  C13      1.0000 0.84280  0.00210  0.10380  Biso   1.000  C
  C14      1.0000 0.94130  0.11460  0.10956  Biso   1.000  C
  C15      1.0000 0.93450  0.02620  0.16020  Biso   1.000  C
  C16      1.0000 0.71180  0.37120  0.38175  Biso   1.000  C
  C17      1.0000 0.73790  0.41400  0.41884  Biso   1.000  C
  C18      1.0000 0.78700  0.32480  0.44245  Biso   1.000  C
  C19      1.0000 0.81250  0.18930  0.43006  Biso   1.000  C
  C20      1.0000 0.79220  0.14670  0.39325  Biso   1.000  C
  C21      1.0000 0.73900  0.23560  0.36946  Biso   1.000  C
  C22      1.0000 0.65940  0.46980  0.35575  Biso   1.000  C
  C23      1.0000 0.86950  0.09070  0.45538  Biso   1.000  C
  C24      1.0000 0.18590  0.40870  0.37665  Biso   1.000  C
  C25      1.0000 0.25580  0.28550  0.38458  Biso   1.000  C
  C26      1.0000 0.26130  0.18080  0.35677  Biso   1.000  C
  C27      1.0000 0.19820  0.19450  0.32231  Biso   1.000  C
  C28      1.0000 0.13070  0.31870  0.31578  Biso   1.000  C
  C29      1.0000 0.12530  0.42730  0.34281  Biso   1.000  C
  C30      1.0000 0.31200  0.54140  0.43168  Biso   1.000  C
  C31      1.0000 0.25910  0.65230  0.45356  Biso   1.000  C
  C32      1.0000 0.06180  0.61490  0.41171  Biso   1.000  C
  C33      1.0000 0.94160  0.41510  0.26901  Biso   1.000  C
  C34      1.0000 0.94600  0.40360  0.23234  Biso   1.000  C
  C35      1.0000 0.15410  0.28300  0.24867  Biso   1.000  C
  C36      1.0000 0.34280  0.99790  0.39620  Biso   1.000  C
  C37      1.0000 0.44130  0.88540  0.39044  Biso   1.000  C
  C38      1.0000 0.43450  0.97380  0.33980  Biso   1.000  C
  C39      1.0000 0.21180  0.62880  0.11825  Biso   1.000  C
  C40      1.0000 0.23790  0.58600  0.08116  Biso   1.000  C
  C41      1.0000 0.28700  0.67520  0.05755  Biso   1.000  C
  C42      1.0000 0.31250  0.81070  0.06994  Biso   1.000  C
  C43      1.0000 0.29220  0.85330  0.10675  Biso   1.000  C
  C44      1.0000 0.23900  0.76440  0.13054  Biso   1.000  C
  C45      1.0000 0.15940  0.53020  0.14425  Biso   1.000  C
  C46      1.0000 0.36950  0.90930  0.04462  Biso   1.000  C
  C47      1.0000 0.31410  0.40870  0.87665  Biso   1.000  C
  C48      1.0000 0.24420  0.28550  0.88458  Biso   1.000  C
  C49      1.0000 0.23870  0.18080  0.85677  Biso   1.000  C
  C50      1.0000 0.30180  0.19450  0.82231  Biso   1.000  C
  C51      1.0000 0.36930  0.31870  0.81578  Biso   1.000  C
  C52      1.0000 0.37470  0.42730  0.84281  Biso   1.000  C
  C53      1.0000 0.18800  0.54140  0.93168  Biso   1.000  C
  C54      1.0000 0.24090  0.65230  0.95356  Biso   1.000  C
  C55      1.0000 0.43820  0.61490  0.91171  Biso   1.000  C
  C56      1.0000 0.55840  0.41510  0.76901  Biso   1.000  C
  C57      1.0000 0.55400  0.40360  0.73234  Biso   1.000  C
  C58      1.0000 0.34590  0.28300  0.74867  Biso   1.000  C
  C59      1.0000 0.15720  0.99790  0.89620  Biso   1.000  C
  C60      1.0000 0.05870  0.88540  0.89044  Biso   1.000  C
  C61      1.0000 0.06550  0.97380  0.83980  Biso   1.000  C
  C62      1.0000 0.28820  0.62880  0.61825  Biso   1.000  C
  C63      1.0000 0.26210  0.58600  0.58116  Biso   1.000  C
  C64      1.0000 0.21300  0.67520  0.55755  Biso   1.000  C
  C65      1.0000 0.18750  0.81070  0.56994  Biso   1.000  C
  C66      1.0000 0.20780  0.85330  0.60675  Biso   1.000  C
  C67      1.0000 0.26100  0.76440  0.63054  Biso   1.000  C
  C68      1.0000 0.34060  0.53020  0.64425  Biso   1.000  C
  C69      1.0000 0.13050  0.90930  0.54462  Biso   1.000  C
  C70      1.0000 0.81410  0.59130  0.62335  Biso   1.000  C
  C71      1.0000 0.74420  0.71450  0.61542  Biso   1.000  C
  C72      1.0000 0.73870  0.81920  0.64323  Biso   1.000  C
  C73      1.0000 0.80180  0.80550  0.67769  Biso   1.000  C
  C74      1.0000 0.86930  0.68130  0.68422  Biso   1.000  C
  C75      1.0000 0.87470  0.57270  0.65719  Biso   1.000  C
  C76      1.0000 0.68800  0.45860  0.56832  Biso   1.000  C
  C77      1.0000 0.74090  0.34770  0.54644  Biso   1.000  C
  C78      1.0000 0.93820  0.38510  0.58829  Biso   1.000  C
  C79      1.0000 0.05840  0.58490  0.73099  Biso   1.000  C
  C80      1.0000 0.05400  0.59640  0.76766  Biso   1.000  C
  C81      1.0000 0.84590  0.71700  0.75133  Biso   1.000  C
  C82      1.0000 0.65720  0.00210  0.60380  Biso   1.000  C
  C83      1.0000 0.55870  0.11460  0.60956  Biso   1.000  C
  C84      1.0000 0.56550  0.02620  0.66020  Biso   1.000  C
  C85      1.0000 0.78820  0.37120  0.88175  Biso   1.000  C
  C86      1.0000 0.76210  0.41400  0.91884  Biso   1.000  C
  C87      1.0000 0.71300  0.32480  0.94245  Biso   1.000  C
  C88      1.0000 0.68750  0.18930  0.93006  Biso   1.000  C
  C89      1.0000 0.70780  0.14670  0.89325  Biso   1.000  C
  C90      1.0000 0.76100  0.23560  0.86946  Biso   1.000  C
  C91      1.0000 0.84060  0.46980  0.85575  Biso   1.000  C
  C92      1.0000 0.63050  0.09070  0.95538  Biso   1.000  C
  I1       1.0000 0.19335  0.25890  0.99723  Biso   1.000  I
  I2       1.0000 0.97949  0.81627  0.32507  Biso   1.000  I
  I3       1.0000 0.69335  0.74110  0.50277  Biso   1.000  I
  I4       1.0000 0.47949  0.18373  0.17493  Biso   1.000  I
  I5       1.0000 0.80665  0.74110  0.00277  Biso   1.000  I
  I6       1.0000 0.02051  0.18373  0.67493  Biso   1.000  I
  I7       1.0000 0.30665  0.25890  0.49723  Biso   1.000  I
  I8       1.0000 0.52051  0.81627  0.82507  Biso   1.000  I
  N1       1.0000 0.60340  0.30180  0.05848  Biso   1.000  N
  N2       1.0000 0.68640  0.48050  0.09493  Biso   1.000  N
  N3       1.0000 0.58030  0.67980  0.28020  Biso   1.000  N
  N4       1.0000 0.57510  0.66340  0.22091  Biso   1.000  N
  N5       1.0000 0.99900  0.13170  0.14522  Biso   1.000  N
  N6       1.0000 0.84040  0.94640  0.13643  Biso   1.000  N
  N7       1.0000 0.10340  0.69820  0.44152  Biso   1.000  N
  N8       1.0000 0.18640  0.51950  0.40507  Biso   1.000  N
  N9       1.0000 0.08030  0.32020  0.21980  Biso   1.000  N
  N10      1.0000 0.07510  0.33660  0.27909  Biso   1.000  N
  N11      1.0000 0.49900  0.86830  0.35478  Biso   1.000  N
  N12      1.0000 0.34040  0.05360  0.36357  Biso   1.000  N
  N13      1.0000 0.39660  0.69820  0.94152  Biso   1.000  N
  N14      1.0000 0.31360  0.51950  0.90507  Biso   1.000  N
  N15      1.0000 0.41970  0.32020  0.71980  Biso   1.000  N
  N16      1.0000 0.42490  0.33660  0.77909  Biso   1.000  N
  N17      1.0000 0.00100  0.86830  0.85478  Biso   1.000  N
  N18      1.0000 0.15960  0.05360  0.86357  Biso   1.000  N
  N19      1.0000 0.89660  0.30180  0.55848  Biso   1.000  N
  N20      1.0000 0.81360  0.48050  0.59493  Biso   1.000  N
  N21      1.0000 0.91970  0.67980  0.78020  Biso   1.000  N
  N22      1.0000 0.92490  0.66340  0.72091  Biso   1.000  N
  N23      1.0000 0.50100  0.13170  0.64522  Biso   1.000  N
  N24      1.0000 0.65960  0.94640  0.63643  Biso   1.000  N
  O1       1.0000 0.67740  0.59630  0.36720  Biso   1.000  O
  O2       1.0000 0.61120  0.42910  0.32505  Biso   1.000  O
  O3       1.0000 0.86400  0.12430  0.48908  Biso   1.000  O
  O4       1.0000 0.91730  0.97370  0.44156  Biso   1.000  O
  O5       1.0000 0.17740  0.40370  0.13280  Biso   1.000  O
  O6       1.0000 0.11120  0.57090  0.17495  Biso   1.000  O
  O7       1.0000 0.36400  0.87570  0.01092  Biso   1.000  O
  O8       1.0000 0.41730  0.02630  0.05844  Biso   1.000  O
  O9       1.0000 0.32260  0.40370  0.63280  Biso   1.000  O
  O10      1.0000 0.38880  0.57090  0.67495  Biso   1.000  O
  O11      1.0000 0.13600  0.87570  0.51092  Biso   1.000  O
  O12      1.0000 0.08270  0.02630  0.55844  Biso   1.000  O
  O13      1.0000 0.82260  0.59630  0.86720  Biso   1.000  O
  O14      1.0000 0.88880  0.42910  0.82505  Biso   1.000  O
  O15      1.0000 0.63600  0.12430  0.98908  Biso   1.000  O
  O16      1.0000 0.58270  0.97370  0.94156  Biso   1.000  O
