data_image0
_cell_length_a       8.98498
_cell_length_b       19.114
_cell_length_c       19.9947
_cell_angle_alpha    92.3756
_cell_angle_beta     102.984
_cell_angle_gamma    90

_symmetry_space_group_name_H-M    P 1
_symmetry_int_tables_number       1

loop_
  _symmetry_equiv_pos_as_xyz
  'x, y, z'

loop_
  _atom_site_label
  _atom_site_occupancy
  _atom_site_fract_x
  _atom_site_fract_y
  _atom_site_fract_z
  _atom_site_thermal_displace_type
  _atom_site_B_iso_or_equiv
  _atom_site_type_symbol
  Zn1      1.0000 0.40412  0.40103  0.45300  Biso   1.000  Zn
  Zn2      1.0000 0.95502  0.91122  0.05814  Biso   1.000  Zn
  Zn3      1.0000 0.95112  0.09897  0.54700  Biso   1.000  Zn
  Zn4      1.0000 0.89688  0.58878  0.94186  Biso   1.000  Zn
  Zn5      1.0000 0.59588  0.59897  0.54700  Biso   1.000  Zn
  Zn6      1.0000 0.04498  0.08878  0.94186  Biso   1.000  Zn
  Zn7      1.0000 0.04888  0.90103  0.45300  Biso   1.000  Zn
  Zn8      1.0000 0.10312  0.41122  0.05814  Biso   1.000  Zn
  H1       1.0000 0.76320  0.79810  0.40200  Biso   1.000  H
  H2       1.0000 0.76830  0.68360  0.34260  Biso   1.000  H
  H3       1.0000 0.19110  0.76040  0.39940  Biso   1.000  H
  H4       1.0000 0.17400  0.63610  0.35560  Biso   1.000  H
  H5       1.0000 0.01560  0.59820  0.34340  Biso   1.000  H
  H6       1.0000 0.26950  0.59020  0.25000  Biso   1.000  H
  H7       1.0000 0.13490  0.55270  0.19760  Biso   1.000  H
  H8       1.0000 0.37290  0.52970  0.35940  Biso   1.000  H
  H9       1.0000 0.06310  0.38550  0.35500  Biso   1.000  H
  H10      1.0000 0.97030  0.45810  0.25640  Biso   1.000  H
  H11      1.0000 0.18930  0.68060  0.19480  Biso   1.000  H
  H12      1.0000 0.21300  0.71620  0.26800  Biso   1.000  H
  H13      1.0000 0.91740  0.79330  0.27080  Biso   1.000  H
  H14      1.0000 0.83250  0.88650  0.19160  Biso   1.000  H
  H15      1.0000 0.10780  0.76660  0.11180  Biso   1.000  H
  H16      1.0000 0.82960  0.65020  0.23680  Biso   1.000  H
  H17      1.0000 0.86890  0.57220  0.22240  Biso   1.000  H
  H18      1.0000 0.66330  0.69260  0.12880  Biso   1.000  H
  H19      1.0000 0.65400  0.68160  0.00620  Biso   1.000  H
  H20      1.0000 0.00960  0.57640  0.09980  Biso   1.000  H
  H21      1.0000 0.54650  0.99030  0.11760  Biso   1.000  H
  H22      1.0000 0.00000  0.38970  0.54080  Biso   1.000  H
  H23      1.0000 0.36120  0.70190  0.59800  Biso   1.000  H
  H24      1.0000 0.42570  0.81640  0.65740  Biso   1.000  H
  H25      1.0000 0.79170  0.73960  0.60060  Biso   1.000  H
  H26      1.0000 0.81840  0.86390  0.64440  Biso   1.000  H
  H27      1.0000 0.67220  0.90180  0.65660  Biso   1.000  H
  H28      1.0000 0.01950  0.90980  0.75000  Biso   1.000  H
  H29      1.0000 0.93730  0.94730  0.80240  Biso   1.000  H
  H30      1.0000 0.01350  0.97030  0.64060  Biso   1.000  H
  H31      1.0000 0.70810  0.11450  0.64500  Biso   1.000  H
  H32      1.0000 0.71390  0.04190  0.74360  Biso   1.000  H
  H33      1.0000 0.99450  0.81940  0.80520  Biso   1.000  H
  H34      1.0000 0.94500  0.78380  0.73200  Biso   1.000  H
  H35      1.0000 0.64660  0.70670  0.72920  Biso   1.000  H
  H36      1.0000 0.64090  0.61350  0.80840  Biso   1.000  H
  H37      1.0000 0.99600  0.73340  0.88820  Biso   1.000  H
  H38      1.0000 0.59280  0.84980  0.76320  Biso   1.000  H
  H39      1.0000 0.64650  0.92780  0.77760  Biso   1.000  H
  H40      1.0000 0.53450  0.80740  0.87120  Biso   1.000  H
  H41      1.0000 0.64780  0.81840  0.99380  Biso   1.000  H
  H42      1.0000 0.90980  0.92360  0.90020  Biso   1.000  H
  H43      1.0000 0.42890  0.50970  0.88240  Biso   1.000  H
  H44      1.0000 0.45920  0.11030  0.45920  Biso   1.000  H
  H45      1.0000 0.23680  0.20190  0.59800  Biso   1.000  H
  H46      1.0000 0.23170  0.31640  0.65740  Biso   1.000  H
  H47      1.0000 0.80890  0.23960  0.60060  Biso   1.000  H
  H48      1.0000 0.82600  0.36390  0.64440  Biso   1.000  H
  H49      1.0000 0.98440  0.40180  0.65660  Biso   1.000  H
  H50      1.0000 0.73050  0.40980  0.75000  Biso   1.000  H
  H51      1.0000 0.86510  0.44730  0.80240  Biso   1.000  H
  H52      1.0000 0.62710  0.47030  0.64060  Biso   1.000  H
  H53      1.0000 0.93690  0.61450  0.64500  Biso   1.000  H
  H54      1.0000 0.02970  0.54190  0.74360  Biso   1.000  H
  H55      1.0000 0.81070  0.31940  0.80520  Biso   1.000  H
  H56      1.0000 0.78700  0.28380  0.73200  Biso   1.000  H
  H57      1.0000 0.08260  0.20670  0.72920  Biso   1.000  H
  H58      1.0000 0.16750  0.11350  0.80840  Biso   1.000  H
  H59      1.0000 0.89220  0.23340  0.88820  Biso   1.000  H
  H60      1.0000 0.17040  0.34980  0.76320  Biso   1.000  H
  H61      1.0000 0.13110  0.42780  0.77760  Biso   1.000  H
  H62      1.0000 0.33670  0.30740  0.87120  Biso   1.000  H
  H63      1.0000 0.34600  0.31840  0.99380  Biso   1.000  H
  H64      1.0000 0.99040  0.42360  0.90020  Biso   1.000  H
  H65      1.0000 0.45350  0.00970  0.88240  Biso   1.000  H
  H66      1.0000 0.00000  0.61030  0.45920  Biso   1.000  H
  H67      1.0000 0.63880  0.29810  0.40200  Biso   1.000  H
  H68      1.0000 0.57430  0.18360  0.34260  Biso   1.000  H
  H69      1.0000 0.20830  0.26040  0.39940  Biso   1.000  H
  H70      1.0000 0.18160  0.13610  0.35560  Biso   1.000  H
  H71      1.0000 0.32780  0.09820  0.34340  Biso   1.000  H
  H72      1.0000 0.98050  0.09020  0.25000  Biso   1.000  H
  H73      1.0000 0.06270  0.05270  0.19760  Biso   1.000  H
  H74      1.0000 0.98650  0.02970  0.35940  Biso   1.000  H
  H75      1.0000 0.29190  0.88550  0.35500  Biso   1.000  H
  H76      1.0000 0.28610  0.95810  0.25640  Biso   1.000  H
  H77      1.0000 0.00550  0.18060  0.19480  Biso   1.000  H
  H78      1.0000 0.05500  0.21620  0.26800  Biso   1.000  H
  H79      1.0000 0.35340  0.29330  0.27080  Biso   1.000  H
  H80      1.0000 0.35910  0.38650  0.19160  Biso   1.000  H
  H81      1.0000 0.00400  0.26660  0.11180  Biso   1.000  H
  H82      1.0000 0.40720  0.15020  0.23680  Biso   1.000  H
  H83      1.0000 0.35350  0.07220  0.22240  Biso   1.000  H
  H84      1.0000 0.46550  0.19260  0.12880  Biso   1.000  H
  H85      1.0000 0.35220  0.18160  0.00620  Biso   1.000  H
  H86      1.0000 0.09020  0.07640  0.09980  Biso   1.000  H
  H87      1.0000 0.57110  0.49030  0.11760  Biso   1.000  H
  H88      1.0000 0.54080  0.88970  0.54080  Biso   1.000  H
  C1       1.0000 0.84998  0.77610  0.39356  Biso   1.000  C
  C2       1.0000 0.85144  0.71300  0.36048  Biso   1.000  C
  C3       1.0000 0.08551  0.75610  0.39202  Biso   1.000  C
  C4       1.0000 0.06760  0.63890  0.33180  Biso   1.000  C
  C5       1.0000 0.05970  0.63400  0.25360  Biso   1.000  C
  C6       1.0000 0.16658  0.57190  0.24436  Biso   1.000  C
  C7       1.0000 0.28435  0.50260  0.34610  Biso   1.000  C
  C8       1.0000 0.11445  0.42380  0.34330  Biso   1.000  C
  C9       1.0000 0.06187  0.46390  0.28894  Biso   1.000  C
  C10      1.0000 0.13605  0.69770  0.22930  Biso   1.000  C
  C11      1.0000 0.94483  0.79920  0.22926  Biso   1.000  C
  C12      1.0000 0.89876  0.85060  0.18552  Biso   1.000  C
  C13      1.0000 0.04955  0.78490  0.14130  Biso   1.000  C
  C14      1.0000 0.89465  0.62030  0.21550  Biso   1.000  C
  C15      1.0000 0.73157  0.66810  0.10814  Biso   1.000  C
  C16      1.0000 0.72708  0.66180  0.04056  Biso   1.000  C
  C17      1.0000 0.92262  0.60400  0.09164  Biso   1.000  C
  C18      1.0000 0.26263  0.94910  0.06526  Biso   1.000  C
  C19      1.0000 0.38573  0.97380  0.02986  Biso   1.000  C
  C20      1.0000 0.35540  0.98080  0.95860  Biso   1.000  C
  C21      1.0000 0.52838  0.99390  0.07016  Biso   1.000  C
  C22      1.0000 0.20867  0.95920  0.90994  Biso   1.000  C
  C23      1.0000 0.27886  0.43400  0.57392  Biso   1.000  C
  C24      1.0000 0.13798  0.46890  0.53296  Biso   1.000  C
  C25      1.0000 0.00026  0.43440  0.52412  Biso   1.000  C
  C26      1.0000 0.13851  0.53740  0.50822  Biso   1.000  C
  C27      1.0000 0.28327  0.57710  0.51114  Biso   1.000  C
  C28      1.0000 0.45642  0.72390  0.60644  Biso   1.000  C
  C29      1.0000 0.49096  0.78700  0.63952  Biso   1.000  C
  C30      1.0000 0.69349  0.74390  0.60798  Biso   1.000  C
  C31      1.0000 0.73580  0.86110  0.66820  Biso   1.000  C
  C32      1.0000 0.80610  0.86600  0.74640  Biso   1.000  C
  C33      1.0000 0.92222  0.92810  0.75564  Biso   1.000  C
  C34      1.0000 0.93825  0.99740  0.65390  Biso   1.000  C
  C35      1.0000 0.77115  0.07620  0.65670  Biso   1.000  C
  C36      1.0000 0.77293  0.03610  0.71106  Biso   1.000  C
  C37      1.0000 0.90675  0.80230  0.77070  Biso   1.000  C
  C38      1.0000 0.71557  0.70080  0.77074  Biso   1.000  C
  C39      1.0000 0.71324  0.64940  0.81448  Biso   1.000  C
  C40      1.0000 0.90825  0.71510  0.85870  Biso   1.000  C
  C41      1.0000 0.67915  0.87970  0.78450  Biso   1.000  C
  C42      1.0000 0.62343  0.83190  0.89186  Biso   1.000  C
  C43      1.0000 0.68652  0.83820  0.95944  Biso   1.000  C
  C44      1.0000 0.83098  0.89600  0.90836  Biso   1.000  C
  C45      1.0000 0.19737  0.55090  0.93474  Biso   1.000  C
  C46      1.0000 0.35587  0.52620  0.97014  Biso   1.000  C
  C47      1.0000 0.39680  0.51920  0.04140  Biso   1.000  C
  C48      1.0000 0.45822  0.50610  0.92984  Biso   1.000  C
  C49      1.0000 0.29873  0.54080  0.09006  Biso   1.000  C
  C50      1.0000 0.70494  0.06600  0.42608  Biso   1.000  C
  C51      1.0000 0.60502  0.03110  0.46704  Biso   1.000  C
  C52      1.0000 0.47614  0.06560  0.47588  Biso   1.000  C
  C53      1.0000 0.63029  0.96260  0.49178  Biso   1.000  C
  C54      1.0000 0.77213  0.92290  0.48886  Biso   1.000  C
  C55      1.0000 0.15002  0.22390  0.60644  Biso   1.000  C
  C56      1.0000 0.14856  0.28700  0.63952  Biso   1.000  C
  C57      1.0000 0.91449  0.24390  0.60798  Biso   1.000  C
  C58      1.0000 0.93240  0.36110  0.66820  Biso   1.000  C
  C59      1.0000 0.94030  0.36600  0.74640  Biso   1.000  C
  C60      1.0000 0.83342  0.42810  0.75564  Biso   1.000  C
  C61      1.0000 0.71565  0.49740  0.65390  Biso   1.000  C
  C62      1.0000 0.88555  0.57620  0.65670  Biso   1.000  C
  C63      1.0000 0.93813  0.53610  0.71106  Biso   1.000  C
  C64      1.0000 0.86395  0.30230  0.77070  Biso   1.000  C
  C65      1.0000 0.05517  0.20080  0.77074  Biso   1.000  C
  C66      1.0000 0.10124  0.14940  0.81448  Biso   1.000  C
  C67      1.0000 0.95045  0.21510  0.85870  Biso   1.000  C
  C68      1.0000 0.10535  0.37970  0.78450  Biso   1.000  C
  C69      1.0000 0.26843  0.33190  0.89186  Biso   1.000  C
  C70      1.0000 0.27292  0.33820  0.95944  Biso   1.000  C
  C71      1.0000 0.07738  0.39600  0.90836  Biso   1.000  C
  C72      1.0000 0.73737  0.05090  0.93474  Biso   1.000  C
  C73      1.0000 0.61427  0.02620  0.97014  Biso   1.000  C
  C74      1.0000 0.64460  0.01920  0.04140  Biso   1.000  C
  C75      1.0000 0.47162  0.00610  0.92984  Biso   1.000  C
  C76      1.0000 0.79133  0.04080  0.09006  Biso   1.000  C
  C77      1.0000 0.72114  0.56600  0.42608  Biso   1.000  C
  C78      1.0000 0.86202  0.53110  0.46704  Biso   1.000  C
  C79      1.0000 0.99974  0.56560  0.47588  Biso   1.000  C
  C80      1.0000 0.86149  0.46260  0.49178  Biso   1.000  C
  C81      1.0000 0.71673  0.42290  0.48886  Biso   1.000  C
  C82      1.0000 0.54358  0.27610  0.39356  Biso   1.000  C
  C83      1.0000 0.50904  0.21300  0.36048  Biso   1.000  C
  C84      1.0000 0.30651  0.25610  0.39202  Biso   1.000  C
  C85      1.0000 0.26420  0.13890  0.33180  Biso   1.000  C
  C86      1.0000 0.19390  0.13400  0.25360  Biso   1.000  C
  C87      1.0000 0.07778  0.07190  0.24436  Biso   1.000  C
  C88      1.0000 0.06175  0.00260  0.34610  Biso   1.000  C
  C89      1.0000 0.22885  0.92380  0.34330  Biso   1.000  C
  C90      1.0000 0.22707  0.96390  0.28894  Biso   1.000  C
  C91      1.0000 0.09325  0.19770  0.22930  Biso   1.000  C
  C92      1.0000 0.28443  0.29920  0.22926  Biso   1.000  C
  C93      1.0000 0.28676  0.35060  0.18552  Biso   1.000  C
  C94      1.0000 0.09175  0.28490  0.14130  Biso   1.000  C
  C95      1.0000 0.32085  0.12030  0.21550  Biso   1.000  C
  C96      1.0000 0.37657  0.16810  0.10814  Biso   1.000  C
  C97      1.0000 0.31348  0.16180  0.04056  Biso   1.000  C
  C98      1.0000 0.16902  0.10400  0.09164  Biso   1.000  C
  C99      1.0000 0.80263  0.44910  0.06526  Biso   1.000  C
  C100     1.0000 0.64413  0.47380  0.02986  Biso   1.000  C
  C101     1.0000 0.60320  0.48080  0.95860  Biso   1.000  C
  C102     1.0000 0.54178  0.49390  0.07016  Biso   1.000  C
  C103     1.0000 0.70127  0.45920  0.90994  Biso   1.000  C
  C104     1.0000 0.29506  0.93400  0.57392  Biso   1.000  C
  C105     1.0000 0.39498  0.96890  0.53296  Biso   1.000  C
  C106     1.0000 0.52386  0.93440  0.52412  Biso   1.000  C
  C107     1.0000 0.36971  0.03740  0.50822  Biso   1.000  C
  C108     1.0000 0.22787  0.07710  0.51114  Biso   1.000  C
  N1       1.0000 0.99557  0.80280  0.41274  Biso   1.000  N
  N2       1.0000 0.00285  0.70140  0.35890  Biso   1.000  N
  N3       1.0000 0.25469  0.44810  0.37818  Biso   1.000  N
  N4       1.0000 0.17044  0.51470  0.29128  Biso   1.000  N
  N5       1.0000 0.04017  0.75670  0.20054  Biso   1.000  N
  N6       1.0000 0.96616  0.84150  0.13012  Biso   1.000  N
  N7       1.0000 0.84721  0.62170  0.03022  Biso   1.000  N
  N8       1.0000 0.85587  0.63130  0.14074  Biso   1.000  N
  N9       1.0000 0.58283  0.69720  0.58726  Biso   1.000  N
  N10      1.0000 0.64395  0.79860  0.64110  Biso   1.000  N
  N11      1.0000 0.87651  0.05190  0.62182  Biso   1.000  N
  N12      1.0000 0.87916  0.98530  0.70872  Biso   1.000  N
  N13      1.0000 0.83963  0.74330  0.79946  Biso   1.000  N
  N14      1.0000 0.83604  0.65850  0.86988  Biso   1.000  N
  N15      1.0000 0.81699  0.87830  0.96978  Biso   1.000  N
  N16      1.0000 0.71513  0.86870  0.85926  Biso   1.000  N
  N17      1.0000 0.00443  0.19720  0.58726  Biso   1.000  N
  N18      1.0000 0.99715  0.29860  0.64110  Biso   1.000  N
  N19      1.0000 0.74531  0.55190  0.62182  Biso   1.000  N
  N20      1.0000 0.82956  0.48530  0.70872  Biso   1.000  N
  N21      1.0000 0.95983  0.24330  0.79946  Biso   1.000  N
  N22      1.0000 0.03384  0.15850  0.86988  Biso   1.000  N
  N23      1.0000 0.15279  0.37830  0.96978  Biso   1.000  N
  N24      1.0000 0.14413  0.36870  0.85926  Biso   1.000  N
  N25      1.0000 0.41717  0.30280  0.41274  Biso   1.000  N
  N26      1.0000 0.35605  0.20140  0.35890  Biso   1.000  N
  N27      1.0000 0.12349  0.94810  0.37818  Biso   1.000  N
  N28      1.0000 0.12084  0.01470  0.29128  Biso   1.000  N
  N29      1.0000 0.16037  0.25670  0.20054  Biso   1.000  N
  N30      1.0000 0.16396  0.34150  0.13012  Biso   1.000  N
  N31      1.0000 0.18301  0.12170  0.03022  Biso   1.000  N
  N32      1.0000 0.28487  0.13130  0.14074  Biso   1.000  N
  O1       1.0000 0.29168  0.94530  0.12796  Biso   1.000  O
  O2       1.0000 0.13461  0.93510  0.02542  Biso   1.000  O
  O3       1.0000 0.19876  0.90040  0.88252  Biso   1.000  O
  O4       1.0000 0.10517  0.00554  0.89494  Biso   1.000  O
  O5       1.0000 0.35438  0.39420  0.54156  Biso   1.000  O
  O6       1.0000 0.30348  0.44060  0.63676  Biso   1.000  O
  O7       1.0000 0.40639  0.54860  0.54298  Biso   1.000  O
  O8       1.0000 0.27973  0.63310  0.48346  Biso   1.000  O
  O9       1.0000 0.16372  0.55470  0.87204  Biso   1.000  O
  O10      1.0000 0.10919  0.56490  0.97458  Biso   1.000  O
  O11      1.0000 0.31624  0.59960  0.11748  Biso   1.000  O
  O12      1.0000 0.21023  0.49446  0.10506  Biso   1.000  O
  O13      1.0000 0.81282  0.10580  0.45844  Biso   1.000  O
  O14      1.0000 0.66672  0.05940  0.36324  Biso   1.000  O
  O15      1.0000 0.86341  0.95140  0.45702  Biso   1.000  O
  O16      1.0000 0.79627  0.86690  0.51654  Biso   1.000  O
  O17      1.0000 0.70832  0.05470  0.87204  Biso   1.000  O
  O18      1.0000 0.86539  0.06490  0.97458  Biso   1.000  O
  O19      1.0000 0.80124  0.09960  0.11748  Biso   1.000  O
  O20      1.0000 0.89483  0.99446  0.10506  Biso   1.000  O
  O21      1.0000 0.64562  0.60580  0.45844  Biso   1.000  O
  O22      1.0000 0.69652  0.55940  0.36324  Biso   1.000  O
  O23      1.0000 0.59361  0.45140  0.45702  Biso   1.000  O
  O24      1.0000 0.72027  0.36690  0.51654  Biso   1.000  O
  O25      1.0000 0.83628  0.44530  0.12796  Biso   1.000  O
  O26      1.0000 0.89081  0.43510  0.02542  Biso   1.000  O
  O27      1.0000 0.68376  0.40040  0.88252  Biso   1.000  O
  O28      1.0000 0.78977  0.50554  0.89494  Biso   1.000  O
  O29      1.0000 0.18718  0.89420  0.54156  Biso   1.000  O
  O30      1.0000 0.33328  0.94060  0.63676  Biso   1.000  O
  O31      1.0000 0.13659  0.04860  0.54298  Biso   1.000  O
  O32      1.0000 0.20373  0.13310  0.48346  Biso   1.000  O
