data_image0
_cell_length_a       10.6753
_cell_length_b       17.844
_cell_length_c       27.353
_cell_angle_alpha    90
_cell_angle_beta     90
_cell_angle_gamma    90

_symmetry_space_group_name_H-M    P 1
_symmetry_int_tables_number       1

loop_
  _symmetry_equiv_pos_as_xyz
  'x, y, z'

loop_
  _atom_site_label
  _atom_site_occupancy
  _atom_site_fract_x
  _atom_site_fract_y
  _atom_site_fract_z
  _atom_site_thermal_displace_type
  _atom_site_B_iso_or_equiv
  _atom_site_type_symbol
  Cu1      1.0000 0.43887  0.93979  0.51322  Biso   1.000  Cu
  Cu2      1.0000 0.43887  0.06021  0.98678  Biso   1.000  Cu
  Cu3      1.0000 0.06113  0.43979  0.98678  Biso   1.000  Cu
  Cu4      1.0000 0.06113  0.56021  0.51322  Biso   1.000  Cu
  Cu5      1.0000 0.56113  0.06021  0.48678  Biso   1.000  Cu
  Cu6      1.0000 0.56113  0.93979  0.01322  Biso   1.000  Cu
  Cu7      1.0000 0.93887  0.56021  0.01322  Biso   1.000  Cu
  Cu8      1.0000 0.93887  0.43979  0.48678  Biso   1.000  Cu
  H1       1.0000 0.25940  0.18010  0.42450  Biso   1.000  H
  H2       1.0000 0.07950  0.23680  0.39380  Biso   1.000  H
  H3       1.0000 0.88530  0.05190  0.42720  Biso   1.000  H
  H4       1.0000 0.06430  0.99940  0.46210  Biso   1.000  H
  H5       1.0000 0.93880  0.23570  0.33620  Biso   1.000  H
  H6       1.0000 0.87760  0.28330  0.37810  Biso   1.000  H
  H7       1.0000 0.80650  0.17030  0.27660  Biso   1.000  H
  H8       1.0000 0.71230  0.13790  0.31570  Biso   1.000  H
  H9       1.0000 0.48350  0.22910  0.19660  Biso   1.000  H
  H10      1.0000 0.46440  0.17970  0.12020  Biso   1.000  H
  H11      1.0000 0.68720  0.01020  0.15920  Biso   1.000  H
  H12      1.0000 0.73130  0.06980  0.23170  Biso   1.000  H
  H13      1.0000 0.39380  0.79390  0.51960  Biso   1.000  H
  H14      1.0000 0.26410  0.83400  0.51340  Biso   1.000  H
  H15      1.0000 0.25940  0.81990  0.07550  Biso   1.000  H
  H16      1.0000 0.07950  0.76320  0.10620  Biso   1.000  H
  H17      1.0000 0.88530  0.94810  0.07280  Biso   1.000  H
  H18      1.0000 0.06430  0.00060  0.03790  Biso   1.000  H
  H19      1.0000 0.93880  0.76430  0.16380  Biso   1.000  H
  H20      1.0000 0.87760  0.71670  0.12190  Biso   1.000  H
  H21      1.0000 0.80650  0.82970  0.22340  Biso   1.000  H
  H22      1.0000 0.71230  0.86210  0.18430  Biso   1.000  H
  H23      1.0000 0.48350  0.77090  0.30340  Biso   1.000  H
  H24      1.0000 0.46440  0.82030  0.37980  Biso   1.000  H
  H25      1.0000 0.68720  0.98980  0.34080  Biso   1.000  H
  H26      1.0000 0.73130  0.93020  0.26830  Biso   1.000  H
  H27      1.0000 0.39380  0.20610  0.98040  Biso   1.000  H
  H28      1.0000 0.26410  0.16600  0.98660  Biso   1.000  H
  H29      1.0000 0.24060  0.68010  0.07550  Biso   1.000  H
  H30      1.0000 0.42050  0.73680  0.10620  Biso   1.000  H
  H31      1.0000 0.61470  0.55190  0.07280  Biso   1.000  H
  H32      1.0000 0.43570  0.49940  0.03790  Biso   1.000  H
  H33      1.0000 0.56120  0.73570  0.16380  Biso   1.000  H
  H34      1.0000 0.62240  0.78330  0.12190  Biso   1.000  H
  H35      1.0000 0.69350  0.67030  0.22340  Biso   1.000  H
  H36      1.0000 0.78770  0.63790  0.18430  Biso   1.000  H
  H37      1.0000 0.01650  0.72910  0.30340  Biso   1.000  H
  H38      1.0000 0.03560  0.67970  0.37980  Biso   1.000  H
  H39      1.0000 0.81280  0.51020  0.34080  Biso   1.000  H
  H40      1.0000 0.76870  0.56980  0.26830  Biso   1.000  H
  H41      1.0000 0.10620  0.29390  0.98040  Biso   1.000  H
  H42      1.0000 0.23590  0.33400  0.98660  Biso   1.000  H
  H43      1.0000 0.24060  0.31990  0.42450  Biso   1.000  H
  H44      1.0000 0.42050  0.26320  0.39380  Biso   1.000  H
  H45      1.0000 0.61470  0.44810  0.42720  Biso   1.000  H
  H46      1.0000 0.43570  0.50060  0.46210  Biso   1.000  H
  H47      1.0000 0.56120  0.26430  0.33620  Biso   1.000  H
  H48      1.0000 0.62240  0.21670  0.37810  Biso   1.000  H
  H49      1.0000 0.69350  0.32970  0.27660  Biso   1.000  H
  H50      1.0000 0.78770  0.36210  0.31570  Biso   1.000  H
  H51      1.0000 0.01650  0.27090  0.19660  Biso   1.000  H
  H52      1.0000 0.03560  0.32030  0.12020  Biso   1.000  H
  H53      1.0000 0.81280  0.48980  0.15920  Biso   1.000  H
  H54      1.0000 0.76870  0.43020  0.23170  Biso   1.000  H
  H55      1.0000 0.10620  0.70610  0.51960  Biso   1.000  H
  H56      1.0000 0.23590  0.66600  0.51340  Biso   1.000  H
  H57      1.0000 0.74060  0.81990  0.57550  Biso   1.000  H
  H58      1.0000 0.92050  0.76320  0.60620  Biso   1.000  H
  H59      1.0000 0.11470  0.94810  0.57280  Biso   1.000  H
  H60      1.0000 0.93570  0.00060  0.53790  Biso   1.000  H
  H61      1.0000 0.06120  0.76430  0.66380  Biso   1.000  H
  H62      1.0000 0.12240  0.71670  0.62190  Biso   1.000  H
  H63      1.0000 0.19350  0.82970  0.72340  Biso   1.000  H
  H64      1.0000 0.28770  0.86210  0.68430  Biso   1.000  H
  H65      1.0000 0.51650  0.77090  0.80340  Biso   1.000  H
  H66      1.0000 0.53560  0.82030  0.87980  Biso   1.000  H
  H67      1.0000 0.31280  0.98980  0.84080  Biso   1.000  H
  H68      1.0000 0.26870  0.93020  0.76830  Biso   1.000  H
  H69      1.0000 0.60620  0.20610  0.48040  Biso   1.000  H
  H70      1.0000 0.73590  0.16600  0.48660  Biso   1.000  H
  H71      1.0000 0.74060  0.18010  0.92450  Biso   1.000  H
  H72      1.0000 0.92050  0.23680  0.89380  Biso   1.000  H
  H73      1.0000 0.11470  0.05190  0.92720  Biso   1.000  H
  H74      1.0000 0.93570  0.99940  0.96210  Biso   1.000  H
  H75      1.0000 0.06120  0.23570  0.83620  Biso   1.000  H
  H76      1.0000 0.12240  0.28330  0.87810  Biso   1.000  H
  H77      1.0000 0.19350  0.17030  0.77660  Biso   1.000  H
  H78      1.0000 0.28770  0.13790  0.81570  Biso   1.000  H
  H79      1.0000 0.51650  0.22910  0.69660  Biso   1.000  H
  H80      1.0000 0.53560  0.17970  0.62020  Biso   1.000  H
  H81      1.0000 0.31280  0.01020  0.65920  Biso   1.000  H
  H82      1.0000 0.26870  0.06980  0.73170  Biso   1.000  H
  H83      1.0000 0.60620  0.79390  0.01960  Biso   1.000  H
  H84      1.0000 0.73590  0.83400  0.01340  Biso   1.000  H
  H85      1.0000 0.75940  0.31990  0.92450  Biso   1.000  H
  H86      1.0000 0.57950  0.26320  0.89380  Biso   1.000  H
  H87      1.0000 0.38530  0.44810  0.92720  Biso   1.000  H
  H88      1.0000 0.56430  0.50060  0.96210  Biso   1.000  H
  H89      1.0000 0.43880  0.26430  0.83620  Biso   1.000  H
  H90      1.0000 0.37760  0.21670  0.87810  Biso   1.000  H
  H91      1.0000 0.30650  0.32970  0.77660  Biso   1.000  H
  H92      1.0000 0.21230  0.36210  0.81570  Biso   1.000  H
  H93      1.0000 0.98350  0.27090  0.69660  Biso   1.000  H
  H94      1.0000 0.96440  0.32030  0.62020  Biso   1.000  H
  H95      1.0000 0.18720  0.48980  0.65920  Biso   1.000  H
  H96      1.0000 0.23130  0.43020  0.73170  Biso   1.000  H
  H97      1.0000 0.89380  0.70610  0.01960  Biso   1.000  H
  H98      1.0000 0.76410  0.66600  0.01340  Biso   1.000  H
  H99      1.0000 0.75940  0.68010  0.57550  Biso   1.000  H
  H100     1.0000 0.57950  0.73680  0.60620  Biso   1.000  H
  H101     1.0000 0.38530  0.55190  0.57280  Biso   1.000  H
  H102     1.0000 0.56430  0.49940  0.53790  Biso   1.000  H
  H103     1.0000 0.43880  0.73570  0.66380  Biso   1.000  H
  H104     1.0000 0.37760  0.78330  0.62190  Biso   1.000  H
  H105     1.0000 0.30650  0.67030  0.72340  Biso   1.000  H
  H106     1.0000 0.21230  0.63790  0.68430  Biso   1.000  H
  H107     1.0000 0.98350  0.72910  0.80340  Biso   1.000  H
  H108     1.0000 0.96440  0.67970  0.87980  Biso   1.000  H
  H109     1.0000 0.18720  0.51020  0.84080  Biso   1.000  H
  H110     1.0000 0.23130  0.56980  0.76830  Biso   1.000  H
  H111     1.0000 0.89380  0.29390  0.48040  Biso   1.000  H
  H112     1.0000 0.76410  0.33400  0.48660  Biso   1.000  H
  C1       1.0000 0.29830  0.05275  0.46760  Biso   1.000  C
  C2       1.0000 0.18100  0.08596  0.44655  Biso   1.000  C
  C3       1.0000 0.18370  0.15446  0.42591  Biso   1.000  C
  C4       1.0000 0.07620  0.18847  0.40640  Biso   1.000  C
  C5       1.0000 0.96390  0.14794  0.40634  Biso   1.000  C
  C6       1.0000 0.96020  0.07850  0.42690  Biso   1.000  C
  C7       1.0000 0.06810  0.04653  0.44770  Biso   1.000  C
  C8       1.0000 0.86620  0.23985  0.35729  Biso   1.000  C
  C9       1.0000 0.73150  0.18099  0.29539  Biso   1.000  C
  C10      1.0000 0.61640  0.15903  0.21988  Biso   1.000  C
  C11      1.0000 0.53100  0.18754  0.18783  Biso   1.000  C
  C12      1.0000 0.51470  0.15584  0.14323  Biso   1.000  C
  C13      1.0000 0.57060  0.08992  0.13166  Biso   1.000  C
  C14      1.0000 0.65090  0.05635  0.16609  Biso   1.000  C
  C15      1.0000 0.67580  0.09104  0.20945  Biso   1.000  C
  C16      1.0000 0.54760  0.05385  0.08293  Biso   1.000  C
  C17      1.0000 0.29830  0.94725  0.03240  Biso   1.000  C
  C18      1.0000 0.18100  0.91404  0.05345  Biso   1.000  C
  C19      1.0000 0.18370  0.84554  0.07409  Biso   1.000  C
  C20      1.0000 0.07620  0.81153  0.09360  Biso   1.000  C
  C21      1.0000 0.96390  0.85206  0.09366  Biso   1.000  C
  C22      1.0000 0.96020  0.92150  0.07310  Biso   1.000  C
  C23      1.0000 0.06810  0.95347  0.05230  Biso   1.000  C
  C24      1.0000 0.86620  0.76015  0.14271  Biso   1.000  C
  C25      1.0000 0.73150  0.81901  0.20461  Biso   1.000  C
  C26      1.0000 0.61640  0.84097  0.28012  Biso   1.000  C
  C27      1.0000 0.53100  0.81246  0.31217  Biso   1.000  C
  C28      1.0000 0.51470  0.84416  0.35677  Biso   1.000  C
  C29      1.0000 0.57060  0.91008  0.36834  Biso   1.000  C
  C30      1.0000 0.65090  0.94365  0.33391  Biso   1.000  C
  C31      1.0000 0.67580  0.90896  0.29055  Biso   1.000  C
  C32      1.0000 0.54760  0.94615  0.41707  Biso   1.000  C
  C33      1.0000 0.20170  0.55275  0.03240  Biso   1.000  C
  C34      1.0000 0.31900  0.58596  0.05345  Biso   1.000  C
  C35      1.0000 0.31630  0.65446  0.07409  Biso   1.000  C
  C36      1.0000 0.42380  0.68847  0.09360  Biso   1.000  C
  C37      1.0000 0.53610  0.64794  0.09366  Biso   1.000  C
  C38      1.0000 0.53980  0.57850  0.07310  Biso   1.000  C
  C39      1.0000 0.43190  0.54653  0.05230  Biso   1.000  C
  C40      1.0000 0.63380  0.73985  0.14271  Biso   1.000  C
  C41      1.0000 0.76850  0.68099  0.20461  Biso   1.000  C
  C42      1.0000 0.88360  0.65903  0.28012  Biso   1.000  C
  C43      1.0000 0.96900  0.68754  0.31217  Biso   1.000  C
  C44      1.0000 0.98530  0.65584  0.35677  Biso   1.000  C
  C45      1.0000 0.92940  0.58992  0.36834  Biso   1.000  C
  C46      1.0000 0.84910  0.55635  0.33391  Biso   1.000  C
  C47      1.0000 0.82420  0.59104  0.29055  Biso   1.000  C
  C48      1.0000 0.95240  0.55385  0.41707  Biso   1.000  C
  C49      1.0000 0.20170  0.44725  0.46760  Biso   1.000  C
  C50      1.0000 0.31900  0.41404  0.44655  Biso   1.000  C
  C51      1.0000 0.31630  0.34554  0.42591  Biso   1.000  C
  C52      1.0000 0.42380  0.31153  0.40640  Biso   1.000  C
  C53      1.0000 0.53610  0.35206  0.40634  Biso   1.000  C
  C54      1.0000 0.53980  0.42150  0.42690  Biso   1.000  C
  C55      1.0000 0.43190  0.45347  0.44770  Biso   1.000  C
  C56      1.0000 0.63380  0.26015  0.35729  Biso   1.000  C
  C57      1.0000 0.76850  0.31901  0.29539  Biso   1.000  C
  C58      1.0000 0.88360  0.34097  0.21988  Biso   1.000  C
  C59      1.0000 0.96900  0.31246  0.18783  Biso   1.000  C
  C60      1.0000 0.98530  0.34416  0.14323  Biso   1.000  C
  C61      1.0000 0.92940  0.41008  0.13166  Biso   1.000  C
  C62      1.0000 0.84910  0.44365  0.16609  Biso   1.000  C
  C63      1.0000 0.82420  0.40896  0.20945  Biso   1.000  C
  C64      1.0000 0.95240  0.44615  0.08293  Biso   1.000  C
  C65      1.0000 0.70170  0.94725  0.53240  Biso   1.000  C
  C66      1.0000 0.81900  0.91404  0.55345  Biso   1.000  C
  C67      1.0000 0.81630  0.84554  0.57409  Biso   1.000  C
  C68      1.0000 0.92380  0.81153  0.59360  Biso   1.000  C
  C69      1.0000 0.03610  0.85206  0.59366  Biso   1.000  C
  C70      1.0000 0.03980  0.92150  0.57310  Biso   1.000  C
  C71      1.0000 0.93190  0.95347  0.55230  Biso   1.000  C
  C72      1.0000 0.13380  0.76015  0.64271  Biso   1.000  C
  C73      1.0000 0.26850  0.81901  0.70461  Biso   1.000  C
  C74      1.0000 0.38360  0.84097  0.78012  Biso   1.000  C
  C75      1.0000 0.46900  0.81246  0.81217  Biso   1.000  C
  C76      1.0000 0.48530  0.84416  0.85677  Biso   1.000  C
  C77      1.0000 0.42940  0.91008  0.86834  Biso   1.000  C
  C78      1.0000 0.34910  0.94365  0.83391  Biso   1.000  C
  C79      1.0000 0.32420  0.90896  0.79055  Biso   1.000  C
  C80      1.0000 0.45240  0.94615  0.91707  Biso   1.000  C
  C81      1.0000 0.70170  0.05275  0.96760  Biso   1.000  C
  C82      1.0000 0.81900  0.08596  0.94655  Biso   1.000  C
  C83      1.0000 0.81630  0.15446  0.92591  Biso   1.000  C
  C84      1.0000 0.92380  0.18847  0.90640  Biso   1.000  C
  C85      1.0000 0.03610  0.14794  0.90634  Biso   1.000  C
  C86      1.0000 0.03980  0.07850  0.92690  Biso   1.000  C
  C87      1.0000 0.93190  0.04653  0.94770  Biso   1.000  C
  C88      1.0000 0.13380  0.23985  0.85729  Biso   1.000  C
  C89      1.0000 0.26850  0.18099  0.79539  Biso   1.000  C
  C90      1.0000 0.38360  0.15903  0.71988  Biso   1.000  C
  C91      1.0000 0.46900  0.18754  0.68783  Biso   1.000  C
  C92      1.0000 0.48530  0.15584  0.64323  Biso   1.000  C
  C93      1.0000 0.42940  0.08992  0.63166  Biso   1.000  C
  C94      1.0000 0.34910  0.05635  0.66609  Biso   1.000  C
  C95      1.0000 0.32420  0.09104  0.70945  Biso   1.000  C
  C96      1.0000 0.45240  0.05385  0.58293  Biso   1.000  C
  C97      1.0000 0.79830  0.44725  0.96760  Biso   1.000  C
  C98      1.0000 0.68100  0.41404  0.94655  Biso   1.000  C
  C99      1.0000 0.68370  0.34554  0.92591  Biso   1.000  C
  C100     1.0000 0.57620  0.31153  0.90640  Biso   1.000  C
  C101     1.0000 0.46390  0.35206  0.90634  Biso   1.000  C
  C102     1.0000 0.46020  0.42150  0.92690  Biso   1.000  C
  C103     1.0000 0.56810  0.45347  0.94770  Biso   1.000  C
  C104     1.0000 0.36620  0.26015  0.85729  Biso   1.000  C
  C105     1.0000 0.23150  0.31901  0.79539  Biso   1.000  C
  C106     1.0000 0.11640  0.34097  0.71988  Biso   1.000  C
  C107     1.0000 0.03100  0.31246  0.68783  Biso   1.000  C
  C108     1.0000 0.01470  0.34416  0.64323  Biso   1.000  C
  C109     1.0000 0.07060  0.41008  0.63166  Biso   1.000  C
  C110     1.0000 0.15090  0.44365  0.66609  Biso   1.000  C
  C111     1.0000 0.17580  0.40896  0.70945  Biso   1.000  C
  C112     1.0000 0.04760  0.44615  0.58293  Biso   1.000  C
  C113     1.0000 0.79830  0.55275  0.53240  Biso   1.000  C
  C114     1.0000 0.68100  0.58596  0.55345  Biso   1.000  C
  C115     1.0000 0.68370  0.65446  0.57409  Biso   1.000  C
  C116     1.0000 0.57620  0.68847  0.59360  Biso   1.000  C
  C117     1.0000 0.46390  0.64794  0.59366  Biso   1.000  C
  C118     1.0000 0.46020  0.57850  0.57310  Biso   1.000  C
  C119     1.0000 0.56810  0.54653  0.55230  Biso   1.000  C
  C120     1.0000 0.36620  0.73985  0.64271  Biso   1.000  C
  C121     1.0000 0.23150  0.68099  0.70461  Biso   1.000  C
  C122     1.0000 0.11640  0.65903  0.78012  Biso   1.000  C
  C123     1.0000 0.03100  0.68754  0.81217  Biso   1.000  C
  C124     1.0000 0.01470  0.65584  0.85677  Biso   1.000  C
  C125     1.0000 0.07060  0.58992  0.86834  Biso   1.000  C
  C126     1.0000 0.15090  0.55635  0.83391  Biso   1.000  C
  C127     1.0000 0.17580  0.59104  0.79055  Biso   1.000  C
  C128     1.0000 0.04760  0.55385  0.91707  Biso   1.000  C
  C129     1.0000 0.75000  0.25000  0.32653  Biso   1.000  C
  C130     1.0000 0.75000  0.75000  0.17347  Biso   1.000  C
  C131     1.0000 0.25000  0.75000  0.67347  Biso   1.000  C
  C132     1.0000 0.25000  0.25000  0.82653  Biso   1.000  C
  O1       1.0000 0.28977  0.98970  0.48674  Biso   1.000  O
  O2       1.0000 0.39577  0.09060  0.46335  Biso   1.000  O
  O3       1.0000 0.85593  0.17387  0.38694  Biso   1.000  O
  O4       1.0000 0.62748  0.19797  0.26311  Biso   1.000  O
  O5       1.0000 0.59378  0.98977  0.07572  Biso   1.000  O
  O6       1.0000 0.48397  0.09090  0.05328  Biso   1.000  O
  O7       1.0000 0.34320  0.83541  0.53008  Biso   1.000  O
  O8       1.0000 0.28977  0.01030  0.01326  Biso   1.000  O
  O9       1.0000 0.39577  0.90940  0.03665  Biso   1.000  O
  O10      1.0000 0.85593  0.82613  0.11306  Biso   1.000  O
  O11      1.0000 0.62748  0.80203  0.23689  Biso   1.000  O
  O12      1.0000 0.59378  0.01023  0.42428  Biso   1.000  O
  O13      1.0000 0.48397  0.90910  0.44672  Biso   1.000  O
  O14      1.0000 0.34320  0.16459  0.96992  Biso   1.000  O
  O15      1.0000 0.21023  0.48970  0.01326  Biso   1.000  O
  O16      1.0000 0.10423  0.59060  0.03665  Biso   1.000  O
  O17      1.0000 0.64407  0.67387  0.11306  Biso   1.000  O
  O18      1.0000 0.87252  0.69797  0.23689  Biso   1.000  O
  O19      1.0000 0.90622  0.48977  0.42428  Biso   1.000  O
  O20      1.0000 0.01603  0.59090  0.44672  Biso   1.000  O
  O21      1.0000 0.15680  0.33541  0.96992  Biso   1.000  O
  O22      1.0000 0.21023  0.51030  0.48674  Biso   1.000  O
  O23      1.0000 0.10423  0.40940  0.46335  Biso   1.000  O
  O24      1.0000 0.64407  0.32613  0.38694  Biso   1.000  O
  O25      1.0000 0.87252  0.30203  0.26311  Biso   1.000  O
  O26      1.0000 0.90622  0.51023  0.07572  Biso   1.000  O
  O27      1.0000 0.01603  0.40910  0.05328  Biso   1.000  O
  O28      1.0000 0.15680  0.66459  0.53008  Biso   1.000  O
  O29      1.0000 0.71023  0.01030  0.51326  Biso   1.000  O
  O30      1.0000 0.60423  0.90940  0.53665  Biso   1.000  O
  O31      1.0000 0.14407  0.82613  0.61306  Biso   1.000  O
  O32      1.0000 0.37252  0.80203  0.73689  Biso   1.000  O
  O33      1.0000 0.40622  0.01023  0.92428  Biso   1.000  O
  O34      1.0000 0.51603  0.90910  0.94672  Biso   1.000  O
  O35      1.0000 0.65680  0.16459  0.46992  Biso   1.000  O
  O36      1.0000 0.71023  0.98970  0.98674  Biso   1.000  O
  O37      1.0000 0.60423  0.09060  0.96335  Biso   1.000  O
  O38      1.0000 0.14407  0.17387  0.88694  Biso   1.000  O
  O39      1.0000 0.37252  0.19797  0.76311  Biso   1.000  O
  O40      1.0000 0.40622  0.98977  0.57572  Biso   1.000  O
  O41      1.0000 0.51603  0.09090  0.55328  Biso   1.000  O
  O42      1.0000 0.65680  0.83541  0.03008  Biso   1.000  O
  O43      1.0000 0.78977  0.51030  0.98674  Biso   1.000  O
  O44      1.0000 0.89577  0.40940  0.96335  Biso   1.000  O
  O45      1.0000 0.35593  0.32613  0.88694  Biso   1.000  O
  O46      1.0000 0.12748  0.30203  0.76311  Biso   1.000  O
  O47      1.0000 0.09378  0.51023  0.57572  Biso   1.000  O
  O48      1.0000 0.98397  0.40910  0.55328  Biso   1.000  O
  O49      1.0000 0.84320  0.66459  0.03008  Biso   1.000  O
  O50      1.0000 0.78977  0.48970  0.51326  Biso   1.000  O
  O51      1.0000 0.89577  0.59060  0.53665  Biso   1.000  O
  O52      1.0000 0.35593  0.67387  0.61306  Biso   1.000  O
  O53      1.0000 0.12748  0.69797  0.73689  Biso   1.000  O
  O54      1.0000 0.09378  0.48977  0.92428  Biso   1.000  O
  O55      1.0000 0.98397  0.59090  0.94672  Biso   1.000  O
  O56      1.0000 0.84320  0.33541  0.46992  Biso   1.000  O
