data_image0
_cell_length_a       10.7822
_cell_length_b       12.1806
_cell_length_c       12.3369
_cell_angle_alpha    94.2028
_cell_angle_beta     106.305
_cell_angle_gamma    100.919

_symmetry_space_group_name_H-M    P 1
_symmetry_int_tables_number       1

loop_
  _symmetry_equiv_pos_as_xyz
  'x, y, z'

loop_
  _atom_site_label
  _atom_site_occupancy
  _atom_site_fract_x
  _atom_site_fract_y
  _atom_site_fract_z
  _atom_site_thermal_displace_type
  _atom_site_B_iso_or_equiv
  _atom_site_type_symbol
  Tb1      1.0000 0.91283  0.19031  0.00122  Biso   1.000  Tb
  Tb2      1.0000 0.08717  0.80969  0.99878  Biso   1.000  Tb
  H1       1.0000 0.70660  0.93260  0.97310  Biso   1.000  H
  H2       1.0000 0.49130  0.83030  0.90090  Biso   1.000  H
  H3       1.0000 0.32860  0.91320  0.80070  Biso   1.000  H
  H4       1.0000 0.26710  0.08580  0.71350  Biso   1.000  H
  H5       1.0000 0.32900  0.26800  0.68650  Biso   1.000  H
  H6       1.0000 0.51060  0.44070  0.70870  Biso   1.000  H
  H7       1.0000 0.72980  0.52730  0.78010  Biso   1.000  H
  H8       1.0000 0.87830  0.43250  0.88520  Biso   1.000  H
  H9       1.0000 0.74190  0.30200  0.31970  Biso   1.000  H
  H10      1.0000 0.76240  0.39040  0.49390  Biso   1.000  H
  H11      1.0000 0.10380  0.47080  0.33400  Biso   1.000  H
  H12      1.0000 0.17700  0.45740  0.83210  Biso   1.000  H
  H13      1.0000 0.35980  0.58980  0.83260  Biso   1.000  H
  H14      1.0000 0.39750  0.32550  0.08710  Biso   1.000  H
  H15      1.0000 0.96940  0.18280  0.71140  Biso   1.000  H
  H16      1.0000 0.97320  0.20970  0.53030  Biso   1.000  H
  H17      1.0000 0.01630  0.86630  0.66010  Biso   1.000  H
  H18      1.0000 0.29340  0.06740  0.02690  Biso   1.000  H
  H19      1.0000 0.50870  0.16970  0.09910  Biso   1.000  H
  H20      1.0000 0.67140  0.08680  0.19930  Biso   1.000  H
  H21      1.0000 0.73290  0.91420  0.28650  Biso   1.000  H
  H22      1.0000 0.67100  0.73200  0.31350  Biso   1.000  H
  H23      1.0000 0.48940  0.55930  0.29130  Biso   1.000  H
  H24      1.0000 0.27020  0.47270  0.21990  Biso   1.000  H
  H25      1.0000 0.12170  0.56750  0.11480  Biso   1.000  H
  H26      1.0000 0.25810  0.69800  0.68030  Biso   1.000  H
  H27      1.0000 0.23760  0.60960  0.50610  Biso   1.000  H
  H28      1.0000 0.89620  0.52920  0.66600  Biso   1.000  H
  H29      1.0000 0.82300  0.54260  0.16790  Biso   1.000  H
  H30      1.0000 0.64020  0.41020  0.16740  Biso   1.000  H
  H31      1.0000 0.60250  0.67450  0.91290  Biso   1.000  H
  H32      1.0000 0.03060  0.81720  0.28860  Biso   1.000  H
  H33      1.0000 0.02680  0.79030  0.46970  Biso   1.000  H
  H34      1.0000 0.98370  0.13370  0.33990  Biso   1.000  H
  C1       1.0000 0.64230  0.96750  0.93190  Biso   1.000  C
  C2       1.0000 0.51210  0.90510  0.88860  Biso   1.000  C
  C3       1.0000 0.41590  0.95370  0.82850  Biso   1.000  C
  C4       1.0000 0.45010  0.06710  0.80870  Biso   1.000  C
  C5       1.0000 0.35520  0.12380  0.74420  Biso   1.000  C
  C6       1.0000 0.39240  0.23210  0.72730  Biso   1.000  C
  C7       1.0000 0.52680  0.29210  0.77110  Biso   1.000  C
  C8       1.0000 0.57070  0.40280  0.75110  Biso   1.000  C
  C9       1.0000 0.70020  0.45420  0.79330  Biso   1.000  C
  C10      1.0000 0.78940  0.39620  0.85700  Biso   1.000  C
  C11      1.0000 0.62240  0.23970  0.83600  Biso   1.000  C
  C12      1.0000 0.58240  0.12360  0.85540  Biso   1.000  C
  C13      1.0000 0.90810  0.32070  0.19320  Biso   1.000  C
  C14      1.0000 0.92220  0.37780  0.30910  Biso   1.000  C
  C15      1.0000 0.81930  0.35450  0.35880  Biso   1.000  C
  C16      1.0000 0.83150  0.40720  0.46240  Biso   1.000  C
  C17      1.0000 0.03570  0.45520  0.36690  Biso   1.000  C
  C18      1.0000 0.94840  0.48800  0.52440  Biso   1.000  C
  C19      1.0000 0.14750  0.30390  0.96960  Biso   1.000  C
  C20      1.0000 0.27110  0.38120  0.96360  Biso   1.000  C
  C21      1.0000 0.25890  0.45920  0.88420  Biso   1.000  C
  C22      1.0000 0.36830  0.53750  0.88400  Biso   1.000  C
  C23      1.0000 0.39080  0.37950  0.03740  Biso   1.000  C
  C24      1.0000 0.49400  0.53970  0.96110  Biso   1.000  C
  C25      1.0000 0.98980  0.00430  0.82190  Biso   1.000  C
  C26      1.0000 0.99310  0.02030  0.70260  Biso   1.000  C
  C27      1.0000 0.97950  0.12470  0.66350  Biso   1.000  C
  C28      1.0000 0.98090  0.14030  0.55510  Biso   1.000  C
  C29      1.0000 0.00660  0.93440  0.63290  Biso   1.000  C
  C30      1.0000 0.99390  0.05300  0.48100  Biso   1.000  C
  C31      1.0000 0.35770  0.03250  0.06810  Biso   1.000  C
  C32      1.0000 0.48790  0.09490  0.11140  Biso   1.000  C
  C33      1.0000 0.58410  0.04630  0.17150  Biso   1.000  C
  C34      1.0000 0.54990  0.93290  0.19130  Biso   1.000  C
  C35      1.0000 0.64480  0.87620  0.25580  Biso   1.000  C
  C36      1.0000 0.60760  0.76790  0.27270  Biso   1.000  C
  C37      1.0000 0.47320  0.70790  0.22890  Biso   1.000  C
  C38      1.0000 0.42930  0.59720  0.24890  Biso   1.000  C
  C39      1.0000 0.29980  0.54580  0.20670  Biso   1.000  C
  C40      1.0000 0.21060  0.60380  0.14300  Biso   1.000  C
  C41      1.0000 0.37760  0.76030  0.16400  Biso   1.000  C
  C42      1.0000 0.41760  0.87640  0.14460  Biso   1.000  C
  C43      1.0000 0.09190  0.67930  0.80680  Biso   1.000  C
  C44      1.0000 0.07780  0.62220  0.69090  Biso   1.000  C
  C45      1.0000 0.18070  0.64550  0.64120  Biso   1.000  C
  C46      1.0000 0.16850  0.59280  0.53760  Biso   1.000  C
  C47      1.0000 0.96430  0.54480  0.63310  Biso   1.000  C
  C48      1.0000 0.05160  0.51200  0.47560  Biso   1.000  C
  C49      1.0000 0.85250  0.69610  0.03040  Biso   1.000  C
  C50      1.0000 0.72890  0.61880  0.03640  Biso   1.000  C
  C51      1.0000 0.74110  0.54080  0.11580  Biso   1.000  C
  C52      1.0000 0.63170  0.46250  0.11600  Biso   1.000  C
  C53      1.0000 0.60920  0.62050  0.96260  Biso   1.000  C
  C54      1.0000 0.50600  0.46030  0.03890  Biso   1.000  C
  C55      1.0000 0.01020  0.99570  0.17810  Biso   1.000  C
  C56      1.0000 0.00690  0.97970  0.29740  Biso   1.000  C
  C57      1.0000 0.02050  0.87530  0.33650  Biso   1.000  C
  C58      1.0000 0.01910  0.85970  0.44490  Biso   1.000  C
  C59      1.0000 0.99340  0.06560  0.36710  Biso   1.000  C
  C60      1.0000 0.00610  0.94700  0.51900  Biso   1.000  C
  N1       1.0000 0.67830  0.07430  0.91700  Biso   1.000  N
  N2       1.0000 0.75300  0.29140  0.87920  Biso   1.000  N
  N3       1.0000 0.32170  0.92570  0.08300  Biso   1.000  N
  N4       1.0000 0.24700  0.70860  0.12080  Biso   1.000  N
  O1       1.0000 0.80470  0.24920  0.13910  Biso   1.000  O
  O2       1.0000 0.00310  0.34420  0.15130  Biso   1.000  O
  O3       1.0000 0.03700  0.31610  0.91030  Biso   1.000  O
  O4       1.0000 0.15580  0.22950  0.03700  Biso   1.000  O
  O5       1.0000 0.92860  0.06320  0.86530  Biso   1.000  O
  O6       1.0000 0.04920  0.93370  0.87080  Biso   1.000  O
  O7       1.0000 0.19530  0.75080  0.86090  Biso   1.000  O
  O8       1.0000 0.99690  0.65580  0.84870  Biso   1.000  O
  O9       1.0000 0.96300  0.68390  0.08970  Biso   1.000  O
  O10      1.0000 0.84420  0.77050  0.96300  Biso   1.000  O
  O11      1.0000 0.07140  0.93680  0.13470  Biso   1.000  O
  O12      1.0000 0.95080  0.06630  0.12920  Biso   1.000  O
