data_image0
_cell_length_a       10.802
_cell_length_b       12.143
_cell_length_c       12.245
_cell_angle_alpha    94.031
_cell_angle_beta     106.641
_cell_angle_gamma    101.356

_symmetry_space_group_name_H-M    P 1
_symmetry_int_tables_number       1

loop_
  _symmetry_equiv_pos_as_xyz
  'x, y, z'

loop_
  _atom_site_label
  _atom_site_occupancy
  _atom_site_fract_x
  _atom_site_fract_y
  _atom_site_fract_z
  _atom_site_thermal_displace_type
  _atom_site_B_iso_or_equiv
  _atom_site_type_symbol
  Ho1      1.0000 0.91700  0.19034  0.00188  Biso   1.000  Ho
  Ho2      1.0000 0.08300  0.80966  0.99812  Biso   1.000  Ho
  H1       1.0000 0.97810  0.18590  0.71360  Biso   1.000  H
  H2       1.0000 0.98140  0.21040  0.53130  Biso   1.000  H
  H3       1.0000 0.01380  0.86650  0.66090  Biso   1.000  H
  H4       1.0000 0.10790  0.46670  0.33680  Biso   1.000  H
  H5       1.0000 0.23840  0.60650  0.51010  Biso   1.000  H
  H6       1.0000 0.74280  0.30260  0.31610  Biso   1.000  H
  H7       1.0000 0.39820  0.33050  0.09180  Biso   1.000  H
  H8       1.0000 0.63970  0.41310  0.16860  Biso   1.000  H
  H9       1.0000 0.17930  0.45730  0.83120  Biso   1.000  H
  H10      1.0000 0.71730  0.93330  0.97740  Biso   1.000  H
  H11      1.0000 0.50080  0.82860  0.90720  Biso   1.000  H
  H12      1.0000 0.33820  0.91070  0.80300  Biso   1.000  H
  H13      1.0000 0.27570  0.07960  0.71310  Biso   1.000  H
  H14      1.0000 0.33400  0.26230  0.68930  Biso   1.000  H
  H15      1.0000 0.51470  0.43580  0.70710  Biso   1.000  H
  H16      1.0000 0.73320  0.52410  0.77920  Biso   1.000  H
  H17      1.0000 0.88130  0.43080  0.88400  Biso   1.000  H
  H18      1.0000 0.02190  0.81410  0.28640  Biso   1.000  H
  H19      1.0000 0.01860  0.78960  0.46870  Biso   1.000  H
  H20      1.0000 0.98620  0.13350  0.33910  Biso   1.000  H
  H21      1.0000 0.89210  0.53330  0.66320  Biso   1.000  H
  H22      1.0000 0.76160  0.39350  0.48990  Biso   1.000  H
  H23      1.0000 0.25720  0.69740  0.68390  Biso   1.000  H
  H24      1.0000 0.60180  0.66950  0.90820  Biso   1.000  H
  H25      1.0000 0.36030  0.58690  0.83140  Biso   1.000  H
  H26      1.0000 0.82070  0.54270  0.16880  Biso   1.000  H
  H27      1.0000 0.28270  0.06670  0.02260  Biso   1.000  H
  H28      1.0000 0.49920  0.17140  0.09280  Biso   1.000  H
  H29      1.0000 0.66180  0.08930  0.19700  Biso   1.000  H
  H30      1.0000 0.72430  0.92040  0.28690  Biso   1.000  H
  H31      1.0000 0.66600  0.73770  0.31070  Biso   1.000  H
  H32      1.0000 0.48530  0.56420  0.29290  Biso   1.000  H
  H33      1.0000 0.26680  0.47590  0.22080  Biso   1.000  H
  H34      1.0000 0.11870  0.56920  0.11600  Biso   1.000  H
  C1       1.0000 0.99160  0.00600  0.82340  Biso   1.000  C
  C2       1.0000 0.99350  0.02070  0.70330  Biso   1.000  C
  C3       1.0000 0.98480  0.12640  0.66510  Biso   1.000  C
  C4       1.0000 0.98640  0.14030  0.55610  Biso   1.000  C
  C5       1.0000 0.99550  0.05280  0.48040  Biso   1.000  C
  C6       1.0000 0.00520  0.93500  0.63350  Biso   1.000  C
  C7       1.0000 0.91200  0.31750  0.19330  Biso   1.000  C
  C8       1.0000 0.92500  0.37660  0.30920  Biso   1.000  C
  C9       1.0000 0.03840  0.45230  0.36810  Biso   1.000  C
  C10      1.0000 0.05250  0.51030  0.47760  Biso   1.000  C
  C11      1.0000 0.16810  0.59050  0.54040  Biso   1.000  C
  C12      1.0000 0.82070  0.35510  0.35640  Biso   1.000  C
  C13      1.0000 0.14970  0.30610  0.97270  Biso   1.000  C
  C14      1.0000 0.27030  0.38100  0.96420  Biso   1.000  C
  C15      1.0000 0.39120  0.38260  0.03940  Biso   1.000  C
  C16      1.0000 0.50520  0.46100  0.03970  Biso   1.000  C
  C17      1.0000 0.63090  0.46490  0.11610  Biso   1.000  C
  C18      1.0000 0.26090  0.45870  0.88430  Biso   1.000  C
  C19      1.0000 0.65190  0.96720  0.93590  Biso   1.000  C
  C20      1.0000 0.52170  0.90340  0.89350  Biso   1.000  C
  C21      1.0000 0.42560  0.95210  0.83180  Biso   1.000  C
  C22      1.0000 0.45830  0.06290  0.81190  Biso   1.000  C
  C23      1.0000 0.36340  0.11900  0.74560  Biso   1.000  C
  C24      1.0000 0.39850  0.22670  0.72950  Biso   1.000  C
  C25      1.0000 0.53160  0.28760  0.77220  Biso   1.000  C
  C26      1.0000 0.57520  0.39860  0.75060  Biso   1.000  C
  C27      1.0000 0.70380  0.45050  0.79260  Biso   1.000  C
  C28      1.0000 0.79230  0.39370  0.85610  Biso   1.000  C
  C29      1.0000 0.62830  0.23430  0.83620  Biso   1.000  C
  C30      1.0000 0.58970  0.12090  0.85850  Biso   1.000  C
  C31      1.0000 0.00840  0.99400  0.17660  Biso   1.000  C
  C32      1.0000 0.00650  0.97930  0.29670  Biso   1.000  C
  C33      1.0000 0.01520  0.87360  0.33490  Biso   1.000  C
  C34      1.0000 0.01360  0.85970  0.44390  Biso   1.000  C
  C35      1.0000 0.00450  0.94720  0.51960  Biso   1.000  C
  C36      1.0000 0.99480  0.06500  0.36650  Biso   1.000  C
  C37      1.0000 0.08800  0.68250  0.80670  Biso   1.000  C
  C38      1.0000 0.07500  0.62340  0.69080  Biso   1.000  C
  C39      1.0000 0.96160  0.54770  0.63190  Biso   1.000  C
  C40      1.0000 0.94750  0.48970  0.52240  Biso   1.000  C
  C41      1.0000 0.83190  0.40950  0.45960  Biso   1.000  C
  C42      1.0000 0.17930  0.64490  0.64360  Biso   1.000  C
  C43      1.0000 0.85030  0.69390  0.02730  Biso   1.000  C
  C44      1.0000 0.72970  0.61900  0.03580  Biso   1.000  C
  C45      1.0000 0.60880  0.61740  0.96060  Biso   1.000  C
  C46      1.0000 0.49480  0.53900  0.96030  Biso   1.000  C
  C47      1.0000 0.36910  0.53510  0.88390  Biso   1.000  C
  C48      1.0000 0.73910  0.54130  0.11570  Biso   1.000  C
  C49      1.0000 0.34810  0.03280  0.06410  Biso   1.000  C
  C50      1.0000 0.47830  0.09660  0.10650  Biso   1.000  C
  C51      1.0000 0.57440  0.04790  0.16820  Biso   1.000  C
  C52      1.0000 0.54170  0.93710  0.18810  Biso   1.000  C
  C53      1.0000 0.63660  0.88100  0.25440  Biso   1.000  C
  C54      1.0000 0.60150  0.77330  0.27050  Biso   1.000  C
  C55      1.0000 0.46840  0.71240  0.22780  Biso   1.000  C
  C56      1.0000 0.42480  0.60140  0.24940  Biso   1.000  C
  C57      1.0000 0.29620  0.54950  0.20740  Biso   1.000  C
  C58      1.0000 0.20770  0.60630  0.14390  Biso   1.000  C
  C59      1.0000 0.37170  0.76570  0.16380  Biso   1.000  C
  C60      1.0000 0.41030  0.87910  0.14150  Biso   1.000  C
  N1       1.0000 0.68580  0.07320  0.91970  Biso   1.000  N
  N2       1.0000 0.75760  0.28910  0.87980  Biso   1.000  N
  N3       1.0000 0.31420  0.92680  0.08030  Biso   1.000  N
  N4       1.0000 0.24240  0.71090  0.12020  Biso   1.000  N
  O1       1.0000 0.93200  0.06560  0.86670  Biso   1.000  O
  O2       1.0000 0.04560  0.93290  0.87170  Biso   1.000  O
  O3       1.0000 0.00910  0.33760  0.15490  Biso   1.000  O
  O4       1.0000 0.80870  0.24850  0.13840  Biso   1.000  O
  O5       1.0000 0.03800  0.31850  0.91340  Biso   1.000  O
  O6       1.0000 0.15670  0.23000  0.03870  Biso   1.000  O
  O7       1.0000 0.06800  0.93440  0.13330  Biso   1.000  O
  O8       1.0000 0.95440  0.06710  0.12830  Biso   1.000  O
  O9       1.0000 0.99090  0.66240  0.84510  Biso   1.000  O
  O10      1.0000 0.19130  0.75150  0.86160  Biso   1.000  O
  O11      1.0000 0.96200  0.68150  0.08660  Biso   1.000  O
  O12      1.0000 0.84330  0.77000  0.96130  Biso   1.000  O
