data_image0
_cell_length_a       10.8762
_cell_length_b       12.2294
_cell_length_c       12.3328
_cell_angle_alpha    93.9317
_cell_angle_beta     106.674
_cell_angle_gamma    101.261

_symmetry_space_group_name_H-M    P 1
_symmetry_int_tables_number       1

loop_
  _symmetry_equiv_pos_as_xyz
  'x, y, z'

loop_
  _atom_site_label
  _atom_site_occupancy
  _atom_site_fract_x
  _atom_site_fract_y
  _atom_site_fract_z
  _atom_site_thermal_displace_type
  _atom_site_B_iso_or_equiv
  _atom_site_type_symbol
  Yb1      1.0000 0.91598  0.19028  0.00188  Biso   1.000  Yb
  Yb2      1.0000 0.08402  0.80972  0.99812  Biso   1.000  Yb
  H1       1.0000 0.71110  0.93330  0.97430  Biso   1.000  H
  H2       1.0000 0.49560  0.82950  0.90420  Biso   1.000  H
  H3       1.0000 0.33560  0.91110  0.80220  Biso   1.000  H
  H4       1.0000 0.27340  0.08370  0.71380  Biso   1.000  H
  H5       1.0000 0.33020  0.26260  0.68940  Biso   1.000  H
  H6       1.0000 0.51210  0.43570  0.70960  Biso   1.000  H
  H7       1.0000 0.73080  0.52430  0.77790  Biso   1.000  H
  H8       1.0000 0.87810  0.43010  0.88370  Biso   1.000  H
  H9       1.0000 0.74410  0.30120  0.31790  Biso   1.000  H
  H10      1.0000 0.76040  0.39380  0.48870  Biso   1.000  H
  H11      1.0000 0.10490  0.46740  0.33710  Biso   1.000  H
  H12      1.0000 0.17820  0.45890  0.83470  Biso   1.000  H
  H13      1.0000 0.36040  0.58860  0.83140  Biso   1.000  H
  H14      1.0000 0.39650  0.32810  0.08810  Biso   1.000  H
  H15      1.0000 0.97580  0.18510  0.71120  Biso   1.000  H
  H16      1.0000 0.98030  0.20990  0.52940  Biso   1.000  H
  H17      1.0000 0.01340  0.86700  0.66060  Biso   1.000  H
  H18      1.0000 0.28890  0.06670  0.02570  Biso   1.000  H
  H19      1.0000 0.50440  0.17050  0.09580  Biso   1.000  H
  H20      1.0000 0.66440  0.08890  0.19780  Biso   1.000  H
  H21      1.0000 0.72660  0.91630  0.28620  Biso   1.000  H
  H22      1.0000 0.66980  0.73740  0.31060  Biso   1.000  H
  H23      1.0000 0.48790  0.56430  0.29040  Biso   1.000  H
  H24      1.0000 0.26920  0.47570  0.22210  Biso   1.000  H
  H25      1.0000 0.12190  0.56990  0.11630  Biso   1.000  H
  H26      1.0000 0.25590  0.69880  0.68210  Biso   1.000  H
  H27      1.0000 0.23960  0.60620  0.51130  Biso   1.000  H
  H28      1.0000 0.89510  0.53260  0.66290  Biso   1.000  H
  H29      1.0000 0.82180  0.54110  0.16530  Biso   1.000  H
  H30      1.0000 0.63960  0.41140  0.16860  Biso   1.000  H
  H31      1.0000 0.60350  0.67190  0.91190  Biso   1.000  H
  H32      1.0000 0.02420  0.81490  0.28880  Biso   1.000  H
  H33      1.0000 0.01970  0.79010  0.47060  Biso   1.000  H
  H34      1.0000 0.98660  0.13300  0.33940  Biso   1.000  H
  C1       1.0000 0.64660  0.96760  0.93310  Biso   1.000  C
  C2       1.0000 0.51640  0.90380  0.89080  Biso   1.000  C
  C3       1.0000 0.42230  0.95220  0.83040  Biso   1.000  C
  C4       1.0000 0.45390  0.06490  0.80940  Biso   1.000  C
  C5       1.0000 0.36080  0.12210  0.74520  Biso   1.000  C
  C6       1.0000 0.39480  0.22760  0.72900  Biso   1.000  C
  C7       1.0000 0.52950  0.29000  0.77120  Biso   1.000  C
  C8       1.0000 0.57270  0.39830  0.75150  Biso   1.000  C
  C9       1.0000 0.70190  0.45150  0.79210  Biso   1.000  C
  C10      1.0000 0.78960  0.39370  0.85550  Biso   1.000  C
  C11      1.0000 0.62520  0.23700  0.83660  Biso   1.000  C
  C12      1.0000 0.58710  0.12190  0.85620  Biso   1.000  C
  C13      1.0000 0.91160  0.31840  0.19420  Biso   1.000  C
  C14      1.0000 0.92480  0.37690  0.31080  Biso   1.000  C
  C15      1.0000 0.82060  0.35420  0.35750  Biso   1.000  C
  C16      1.0000 0.83070  0.40860  0.45930  Biso   1.000  C
  C17      1.0000 0.03640  0.45280  0.36890  Biso   1.000  C
  C18      1.0000 0.94820  0.48900  0.52280  Biso   1.000  C
  C19      1.0000 0.14870  0.30640  0.97120  Biso   1.000  C
  C20      1.0000 0.27160  0.38330  0.96560  Biso   1.000  C
  C21      1.0000 0.26000  0.46020  0.88620  Biso   1.000  C
  C22      1.0000 0.36910  0.53740  0.88410  Biso   1.000  C
  C23      1.0000 0.39030  0.38170  0.03800  Biso   1.000  C
  C24      1.0000 0.49400  0.54010  0.96050  Biso   1.000  C
  C25      1.0000 0.99100  0.00590  0.82260  Biso   1.000  C
  C26      1.0000 0.99440  0.02200  0.70280  Biso   1.000  C
  C27      1.0000 0.98380  0.12630  0.66360  Biso   1.000  C
  C28      1.0000 0.98550  0.14060  0.55460  Biso   1.000  C
  C29      1.0000 0.00540  0.93510  0.63310  Biso   1.000  C
  C30      1.0000 0.99510  0.05290  0.48060  Biso   1.000  C
  C31      1.0000 0.35340  0.03240  0.06690  Biso   1.000  C
  C32      1.0000 0.48360  0.09620  0.10920  Biso   1.000  C
  C33      1.0000 0.57770  0.04780  0.16960  Biso   1.000  C
  C34      1.0000 0.54610  0.93510  0.19060  Biso   1.000  C
  C35      1.0000 0.63920  0.87790  0.25480  Biso   1.000  C
  C36      1.0000 0.60520  0.77240  0.27100  Biso   1.000  C
  C37      1.0000 0.47050  0.71000  0.22880  Biso   1.000  C
  C38      1.0000 0.42730  0.60170  0.24850  Biso   1.000  C
  C39      1.0000 0.29810  0.54850  0.20790  Biso   1.000  C
  C40      1.0000 0.21040  0.60630  0.14450  Biso   1.000  C
  C41      1.0000 0.37480  0.76300  0.16340  Biso   1.000  C
  C42      1.0000 0.41290  0.87810  0.14380  Biso   1.000  C
  C43      1.0000 0.08840  0.68160  0.80580  Biso   1.000  C
  C44      1.0000 0.07520  0.62310  0.68920  Biso   1.000  C
  C45      1.0000 0.17940  0.64580  0.64250  Biso   1.000  C
  C46      1.0000 0.16930  0.59140  0.54070  Biso   1.000  C
  C47      1.0000 0.96360  0.54720  0.63110  Biso   1.000  C
  C48      1.0000 0.05180  0.51100  0.47720  Biso   1.000  C
  C49      1.0000 0.85130  0.69360  0.02880  Biso   1.000  C
  C50      1.0000 0.72840  0.61670  0.03440  Biso   1.000  C
  C51      1.0000 0.74000  0.53980  0.11380  Biso   1.000  C
  C52      1.0000 0.63090  0.46260  0.11590  Biso   1.000  C
  C53      1.0000 0.60970  0.61830  0.96200  Biso   1.000  C
  C54      1.0000 0.50600  0.45990  0.03950  Biso   1.000  C
  C55      1.0000 0.00900  0.99410  0.17740  Biso   1.000  C
  C56      1.0000 0.00560  0.97800  0.29720  Biso   1.000  C
  C57      1.0000 0.01620  0.87370  0.33640  Biso   1.000  C
  C58      1.0000 0.01450  0.85940  0.44540  Biso   1.000  C
  C59      1.0000 0.99460  0.06490  0.36690  Biso   1.000  C
  C60      1.0000 0.00490  0.94710  0.51940  Biso   1.000  C
  N1       1.0000 0.68240  0.07310  0.91780  Biso   1.000  N
  N2       1.0000 0.75470  0.28990  0.87800  Biso   1.000  N
  N3       1.0000 0.31760  0.92690  0.08220  Biso   1.000  N
  N4       1.0000 0.24530  0.71010  0.12200  Biso   1.000  N
  O1       1.0000 0.80830  0.24860  0.13980  Biso   1.000  O
  O2       1.0000 0.00850  0.33900  0.15570  Biso   1.000  O
  O3       1.0000 0.03910  0.31870  0.91330  Biso   1.000  O
  O4       1.0000 0.15730  0.23090  0.03790  Biso   1.000  O
  O5       1.0000 0.93070  0.06540  0.86480  Biso   1.000  O
  O6       1.0000 0.04670  0.93470  0.87130  Biso   1.000  O
  O7       1.0000 0.19170  0.75140  0.86020  Biso   1.000  O
  O8       1.0000 0.99150  0.66100  0.84430  Biso   1.000  O
  O9       1.0000 0.96090  0.68130  0.08670  Biso   1.000  O
  O10      1.0000 0.84270  0.76910  0.96210  Biso   1.000  O
  O11      1.0000 0.06930  0.93460  0.13520  Biso   1.000  O
  O12      1.0000 0.95330  0.06530  0.12870  Biso   1.000  O
