data_image0
_cell_length_a       13.0203
_cell_length_b       19.776
_cell_length_c       20.8274
_cell_angle_alpha    61.932
_cell_angle_beta     73.268
_cell_angle_gamma    80.162

_symmetry_space_group_name_H-M    "P 1"
_symmetry_int_tables_number       1

loop_
  _symmetry_equiv_pos_as_xyz
  'x, y, z'

loop_
  _atom_site_label
  _atom_site_occupancy
  _atom_site_fract_x
  _atom_site_fract_y
  _atom_site_fract_z
  _atom_site_thermal_displace_type
  _atom_site_B_iso_or_equiv
  _atom_site_type_symbol
  Mn1      1.0000 0.91545  0.79765  0.09958  Biso   1.000  Mn
  Mn2      1.0000 0.70661  0.70194  0.09620  Biso   1.000  Mn
  O1       1.0000 0.87350  0.92184  0.02433  Biso   1.000  O
  O2       1.0000 0.94190  0.67580  0.15728  Biso   1.000  O
  O3       1.0000 0.12120  0.92579  0.96478  Biso   1.000  O
  O4       1.0000 0.07000  0.80542  0.03162  Biso   1.000  O
  O5       1.0000 0.84520  0.77133  0.01639  Biso   1.000  O
  O6       1.0000 0.02000  0.94480  0.11012  Biso   1.000  O
  O7       1.0000 0.79770  0.62015  0.16900  Biso   1.000  O
  O8       1.0000 0.95750  0.82730  0.17248  Biso   1.000  O
  O9       1.0000 0.61720  0.77062  0.01016  Biso   1.000  O
  O10      1.0000 0.75730  0.78800  0.16150  Biso   1.000  O
  O11      1.0000 0.83450  0.68230  0.98387  Biso   1.000  O
  O12      1.0000 0.23020  0.54860  0.36560  Biso   1.000  O
  H1       1.0000 0.29570  0.54240  0.35620  Biso   1.000  H
  O13      1.0000 0.25370  0.54480  0.46890  Biso   1.000  O
  O14      1.0000 0.60580  0.76450  0.15360  Biso   1.000  O
  O15      1.0000 0.60260  0.61310  0.13480  Biso   1.000  O
  C1       1.0000 0.12270  0.85860  0.97440  Biso   1.000  C
  C2       1.0000 0.60440  0.84970  0.20540  Biso   1.000  C
  C3       1.0000 0.18880  0.83830  0.91360  Biso   1.000  C
  C4       1.0000 0.08590  0.31910  0.33420  Biso   1.000  C
  C5       1.0000 0.03470  0.39580  0.29630  Biso   1.000  C
  C6       1.0000 0.36160  0.76980  0.48930  Biso   1.000  C
  C7       1.0000 0.18010  0.76780  0.91810  Biso   1.000  C
  H2       1.0000 0.14290  0.72990  0.96260  Biso   1.000  H
  C8       1.0000 0.08010  0.94670  0.66220  Biso   1.000  C
  C9       1.0000 0.18380  0.17300  0.40500  Biso   1.000  C
  C10      1.0000 0.32500  0.79190  0.72470  Biso   1.000  C
  C11      1.0000 0.93770  0.54100  0.22230  Biso   1.000  C
  C12      1.0000 0.29530  0.87680  0.78800  Biso   1.000  C
  H3       1.0000 0.33550  0.91380  0.74450  Biso   1.000  H
  C13      1.0000 0.54140  0.72320  0.51580  Biso   1.000  C
  C14      1.0000 0.46110  0.80370  0.61390  Biso   1.000  C
  H4       1.0000 0.52740  0.82130  0.58180  Biso   1.000  H
  C15      1.0000 0.86630  0.63540  0.47010  Biso   1.000  C
  C16      1.0000 0.88930  0.61890  0.17960  Biso   1.000  C
  C17      1.0000 0.96030  0.86500  0.87110  Biso   1.000  C
  H5       1.0000 0.95160  0.88010  0.90850  Biso   1.000  H
  C18      1.0000 0.28330  0.80720  0.79090  Biso   1.000  C
  C19      1.0000 0.21490  0.80950  0.39940  Biso   1.000  C
  C20      1.0000 0.92220  0.79630  0.88880  Biso   1.000  C
  C21      1.0000 0.39940  0.76450  0.59920  Biso   1.000  C
  C22      1.0000 0.26600  0.75310  0.70820  Biso   1.000  C
  H6       1.0000 0.19960  0.73540  0.74010  Biso   1.000  H
  C23      1.0000 0.24880  0.89260  0.84860  Biso   1.000  C
  H7       1.0000 0.25800  0.93980  0.84540  Biso   1.000  H
  C24      1.0000 0.00280  0.88140  0.16630  Biso   1.000  C
  C25      1.0000 0.07930  0.58080  0.44330  Biso   1.000  C
  C26      1.0000 0.93460  0.77660  0.83120  Biso   1.000  C
  H8       1.0000 0.90920  0.73050  0.84150  Biso   1.000  H
  C27      1.0000 0.22540  0.75280  0.85800  Biso   1.000  C
  H9       1.0000 0.21740  0.70500  0.86210  Biso   1.000  H
  C28      1.0000 0.14680  0.83260  0.34540  Biso   1.000  C
  C29      1.0000 0.02440  0.89460  0.74010  Biso   1.000  C
  C30      1.0000 0.42390  0.81670  0.67620  Biso   1.000  C
  H10      1.0000 0.46600  0.84260  0.68600  Biso   1.000  H
  C31      1.0000 0.75360  0.66620  0.48460  Biso   1.000  C
  C32      1.0000 0.18450  0.04770  0.51490  Biso   1.000  C
  C33      1.0000 0.19460  0.30390  0.31040  Biso   1.000  C
  H11      1.0000 0.23630  0.34280  0.27020  Biso   1.000  H
  C34      1.0000 0.78810  0.94730  0.00260  Biso   1.000  C
  C35      1.0000 0.01720  0.59540  0.39420  Biso   1.000  C
  H12      1.0000 0.04640  0.58780  0.35160  Biso   1.000  H
  C36      1.0000 0.03560  0.59310  0.50560  Biso   1.000  C
  H13      1.0000 0.07690  0.58350  0.53900  Biso   1.000  H
  C37      1.0000 0.65900  0.87900  0.23300  Biso   1.000  C
  H14      1.0000 0.73210  0.86740  0.22920  Biso   1.000  H
  C38      1.0000 0.03460  0.53360  0.23950  Biso   1.000  C
  H15      1.0000 0.06840  0.57750  0.22680  Biso   1.000  H
  C39      1.0000 0.19650  0.55560  0.42830  Biso   1.000  C
  C40      1.0000 0.60770  0.92560  0.26650  Biso   1.000  C
  H16      1.0000 0.64680  0.94360  0.28590  Biso   1.000  H
  C41      1.0000 0.24250  0.23200  0.34520  Biso   1.000  C
  H17      1.0000 0.31540  0.22360  0.32780  Biso   1.000  H
  C42      1.0000 0.86490  0.74600  0.96800  Biso   1.000  C
  C43      1.0000 0.08320  0.46270  0.27520  Biso   1.000  C
  H18      1.0000 0.14930  0.45980  0.28530  Biso   1.000  H
  C44      1.0000 0.45770  0.98460  0.37560  Biso   1.000  C
  H19      1.0000 0.51590  0.95370  0.39250  Biso   1.000  H
  C45      1.0000 0.91120  0.62160  0.40820  Biso   1.000  C
  H20      1.0000 0.86940  0.63010  0.37540  Biso   1.000  H
  C46      1.0000 0.65810  0.79770  0.17060  Biso   1.000  C
  C47      1.0000 0.30590  0.06710  0.39380  Biso   1.000  C
  C48      1.0000 0.04600  0.86790  0.23090  Biso   1.000  C
  C49      1.0000 0.58840  0.67040  0.57290  Biso   1.000  C
  H21      1.0000 0.54910  0.65270  0.62240  Biso   1.000  H
  C50      1.0000 0.14280  0.98190  0.53010  Biso   1.000  C
  H22      1.0000 0.14780  0.97000  0.49100  Biso   1.000  H
  C51      1.0000 0.50060  0.94600  0.27190  Biso   1.000  C
  C52      1.0000 0.01160  0.91200  0.79840  Biso   1.000  C
  H23      1.0000 0.03860  0.95740  0.78860  Biso   1.000  H
  C53      1.0000 0.70530  0.71860  0.42790  Biso   1.000  C
  H24      1.0000 0.74390  0.73500  0.37830  Biso   1.000  H
  C54      1.0000 0.39280  0.02130  0.41670  Biso   1.000  C
  H25      1.0000 0.40850  0.01480  0.46010  Biso   1.000  H
  C55      1.0000 0.29740  0.83640  0.47320  Biso   1.000  C
  H26      1.0000 0.30260  0.86890  0.49290  Biso   1.000  H
  C56      1.0000 0.69310  0.64350  0.55730  Biso   1.000  C
  H27      1.0000 0.72370  0.60920  0.59670  Biso   1.000  H
  C57      1.0000 0.11120  0.91970  0.22490  Biso   1.000  C
  H28      1.0000 0.12280  0.96630  0.18210  Biso   1.000  H
  C58      1.0000 0.30190  0.74000  0.64700  Biso   1.000  C
  H29      1.0000 0.25950  0.71400  0.63750  Biso   1.000  H
  C59      1.0000 0.22610  0.85590  0.42910  Biso   1.000  C
  H30      1.0000 0.18470  0.90130  0.41930  Biso   1.000  H
  C60      1.0000 0.07630  0.18760  0.43020  Biso   1.000  C
  H31      1.0000 0.03550  0.14890  0.47160  Biso   1.000  H
  C61      1.0000 0.43870  0.99250  0.31070  Biso   1.000  C
  C62      1.0000 0.09280  0.93190  0.60260  Biso   1.000  C
  H32      1.0000 0.06720  0.88680  0.61080  Biso   1.000  H
  C63      1.0000 0.02800  0.25950  0.39450  Biso   1.000  C
  H33      1.0000 0.95490  0.26760  0.41180  Biso   1.000  H
  C64      1.0000 0.98470  0.82530  0.75820  Biso   1.000  C
  H34      1.0000 0.99180  0.81110  0.72040  Biso   1.000  H
  C65      1.0000 0.60090  0.74730  0.44280  Biso   1.000  C
  H35      1.0000 0.57100  0.78290  0.40350  Biso   1.000  H
  C66      1.0000 0.15910  0.90270  0.28190  Biso   1.000  C
  H36      1.0000 0.20070  0.93900  0.27780  Biso   1.000  H
  C67      1.0000 0.28690  0.07800  0.32770  Biso   1.000  C
  H37      1.0000 0.22950  0.10990  0.31060  Biso   1.000  H
  C68      1.0000 0.93610  0.40380  0.28080  Biso   1.000  C
  H38      1.0000 0.90060  0.36000  0.29530  Biso   1.000  H
  C69      1.0000 0.35340  0.04150  0.28610  Biso   1.000  C
  H39      1.0000 0.34020  0.05030  0.24120  Biso   1.000  H
  C70      1.0000 0.27480  0.74220  0.41740  Biso   1.000  C
  H40      1.0000 0.26580  0.70900  0.39950  Biso   1.000  H
  C71      1.0000 0.88830  0.47500  0.24430  Biso   1.000  C
  H41      1.0000 0.82180  0.47810  0.23460  Biso   1.000  H
  C72      1.0000 0.93150  0.61950  0.51830  Biso   1.000  C
  H42      1.0000 0.90310  0.62710  0.56090  Biso   1.000  H
  C73      1.0000 0.02340  0.80460  0.29720  Biso   1.000  C
  H43      1.0000 0.97250  0.77220  0.30480  Biso   1.000  H
  C74      1.0000 0.07290  0.78620  0.35410  Biso   1.000  C
  H44      1.0000 0.05550  0.74180  0.39870  Biso   1.000  H
  C75      1.0000 0.34910  0.72050  0.46150  Biso   1.000  C
  H45      1.0000 0.38910  0.67450  0.47210  Biso   1.000  H
  C76      1.0000 0.49800  0.86810  0.21070  Biso   1.000  C
  H46      1.0000 0.45870  0.84830  0.19300  Biso   1.000  H
  C77      1.0000 0.44740  0.91730  0.24310  Biso   1.000  C
  H47      1.0000 0.37500  0.93070  0.24500  Biso   1.000  H
  C78      1.0000 0.61250  0.73610  0.86030  Biso   1.000  C
  H48      1.0000 0.59650  0.68940  0.86130  Biso   1.000  H
  H49      1.0000 0.66640  0.76300  0.81490  Biso   1.000  H
  C79      1.0000 0.51190  0.78660  0.86680  Biso   1.000  C
  H50      1.0000 0.50930  0.83030  0.81890  Biso   1.000  H
  H51      1.0000 0.44760  0.75790  0.88550  Biso   1.000  H
  C80      1.0000 0.64480  0.02740  0.96740  Biso   1.000  C
  H52      1.0000 0.66040  0.06970  0.91750  Biso   1.000  H
  H53      1.0000 0.57890  0.03960  0.99700  Biso   1.000  H
  C81      1.0000 0.12270  0.01410  0.64520  Biso   1.000  C
  H54      1.0000 0.11620  0.02700  0.68370  Biso   1.000  H
  C82      1.0000 0.60570  0.54790  0.14330  Biso   1.000  C
  C83      1.0000 0.65360  0.44100  0.12610  Biso   1.000  C
  H55      1.0000 0.71840  0.41130  0.13890  Biso   1.000  H
  H56      1.0000 0.63670  0.43150  0.08870  Biso   1.000  H
  C84      1.0000 0.63790  0.95250  0.96480  Biso   1.000  C
  H57      1.0000 0.57960  0.92240  0.00430  Biso   1.000  H
  H58      1.0000 0.62840  0.96190  0.91670  Biso   1.000  H
  C85      1.0000 0.17500  0.06330  0.57310  Biso   1.000  C
  H59      1.0000 0.20370  0.10750  0.56470  Biso   1.000  H
  C86      1.0000 0.56060  0.41960  0.19570  Biso   1.000  C
  H60      1.0000 0.49700  0.40810  0.18780  Biso   1.000  H
  H61      1.0000 0.58000  0.37680  0.23940  Biso   1.000  H
  C87      1.0000 0.59700  0.76680  0.95660  Biso   1.000  C
  N1       1.0000 0.73240  0.01000  0.00250  Biso   1.000  N
  H62      1.0000 0.74680  0.03690  0.02110  Biso   1.000  H
  N2       1.0000 0.64620  0.72030  0.92610  Biso   1.000  N
  H63      1.0000 0.69290  0.68480  0.94380  Biso   1.000  H
  N3       1.0000 0.73920  0.91590  0.97610  Biso   1.000  N
  H64      1.0000 0.76590  0.87770  0.96670  Biso   1.000  H
  N4       1.0000 0.54730  0.49080  0.20100  Biso   1.000  N
  H65      1.0000 0.50490  0.49620  0.23870  Biso   1.000  H
  N5       1.0000 0.66810  0.52260  0.09770  Biso   1.000  N
  H66      1.0000 0.71190  0.55000  0.05660  Biso   1.000  H
  N6       1.0000 0.23470  0.09970  0.43990  Biso   1.000  N
  N7       1.0000 0.43590  0.75180  0.53410  Biso   1.000  N
  N8       1.0000 0.52360  0.81090  0.92000  Biso   1.000  N
  H67      1.0000 0.48790  0.84870  0.92690  Biso   1.000  H
  Mn3      1.0000 0.08455  0.20235  0.90042  Biso   1.000  Mn
  Mn4      1.0000 0.29339  0.29806  0.90380  Biso   1.000  Mn
  O16      1.0000 0.12650  0.07816  0.97567  Biso   1.000  O
  O17      1.0000 0.05810  0.32420  0.84272  Biso   1.000  O
  O18      1.0000 0.87880  0.07421  0.03522  Biso   1.000  O
  O19      1.0000 0.93000  0.19458  0.96838  Biso   1.000  O
  O20      1.0000 0.15480  0.22867  0.98361  Biso   1.000  O
  O21      1.0000 0.98000  0.05520  0.88988  Biso   1.000  O
  O22      1.0000 0.20230  0.37985  0.83100  Biso   1.000  O
  O23      1.0000 0.04250  0.17270  0.82752  Biso   1.000  O
  O24      1.0000 0.38280  0.22938  0.98984  Biso   1.000  O
  O25      1.0000 0.24270  0.21200  0.83850  Biso   1.000  O
  O26      1.0000 0.16550  0.31770  0.01613  Biso   1.000  O
  O27      1.0000 0.76980  0.45140  0.63440  Biso   1.000  O
  H68      1.0000 0.70430  0.45760  0.64380  Biso   1.000  H
  O28      1.0000 0.74630  0.45520  0.53110  Biso   1.000  O
  O29      1.0000 0.39420  0.23550  0.84640  Biso   1.000  O
  O30      1.0000 0.39740  0.38690  0.86520  Biso   1.000  O
  C88      1.0000 0.87730  0.14140  0.02560  Biso   1.000  C
  C89      1.0000 0.39560  0.15030  0.79460  Biso   1.000  C
  C90      1.0000 0.81120  0.16170  0.08640  Biso   1.000  C
  C91      1.0000 0.91410  0.68090  0.66580  Biso   1.000  C
  C92      1.0000 0.96530  0.60420  0.70370  Biso   1.000  C
  C93      1.0000 0.63840  0.23020  0.51070  Biso   1.000  C
  C94      1.0000 0.81990  0.23220  0.08190  Biso   1.000  C
  H69      1.0000 0.85710  0.27010  0.03740  Biso   1.000  H
  C95      1.0000 0.91990  0.05330  0.33780  Biso   1.000  C
  C96      1.0000 0.81620  0.82700  0.59500  Biso   1.000  C
  C97      1.0000 0.67500  0.20810  0.27530  Biso   1.000  C
  C98      1.0000 0.06230  0.45900  0.77770  Biso   1.000  C
  C99      1.0000 0.70470  0.12320  0.21200  Biso   1.000  C
  H70      1.0000 0.66450  0.08620  0.25550  Biso   1.000  H
  C100     1.0000 0.45860  0.27680  0.48420  Biso   1.000  C
  C101     1.0000 0.53890  0.19630  0.38610  Biso   1.000  C
  H71      1.0000 0.47260  0.17870  0.41820  Biso   1.000  H
  C102     1.0000 0.13370  0.36460  0.52990  Biso   1.000  C
  C103     1.0000 0.11070  0.38110  0.82040  Biso   1.000  C
  C104     1.0000 0.03970  0.13500  0.12890  Biso   1.000  C
  H72      1.0000 0.04840  0.11990  0.09150  Biso   1.000  H
  C105     1.0000 0.71670  0.19280  0.20910  Biso   1.000  C
  C106     1.0000 0.78510  0.19050  0.60060  Biso   1.000  C
  C107     1.0000 0.07780  0.20370  0.11120  Biso   1.000  C
  C108     1.0000 0.60060  0.23550  0.40080  Biso   1.000  C
  C109     1.0000 0.73400  0.24690  0.29180  Biso   1.000  C
  H73      1.0000 0.80040  0.26460  0.25990  Biso   1.000  H
  C110     1.0000 0.75120  0.10740  0.15140  Biso   1.000  C
  H74      1.0000 0.74200  0.06020  0.15460  Biso   1.000  H
  C111     1.0000 0.99720  0.11860  0.83370  Biso   1.000  C
  C112     1.0000 0.92070  0.41920  0.55670  Biso   1.000  C
  C113     1.0000 0.06540  0.22340  0.16880  Biso   1.000  C
  H75      1.0000 0.09080  0.26950  0.15850  Biso   1.000  H
  C114     1.0000 0.77460  0.24720  0.14200  Biso   1.000  C
  H76      1.0000 0.78260  0.29500  0.13790  Biso   1.000  H
  C115     1.0000 0.85320  0.16740  0.65460  Biso   1.000  C
  C116     1.0000 0.97560  0.10540  0.25990  Biso   1.000  C
  C117     1.0000 0.57610  0.18330  0.32380  Biso   1.000  C
  H77      1.0000 0.53400  0.15740  0.31400  Biso   1.000  H
  C118     1.0000 0.24640  0.33380  0.51540  Biso   1.000  C
  C119     1.0000 0.81550  0.95230  0.48510  Biso   1.000  C
  C120     1.0000 0.80540  0.69610  0.68960  Biso   1.000  C
  H78      1.0000 0.76370  0.65720  0.72980  Biso   1.000  H
  C121     1.0000 0.21190  0.05270  0.99740  Biso   1.000  C
  C122     1.0000 0.98280  0.40460  0.60580  Biso   1.000  C
  H79      1.0000 0.95360  0.41220  0.64840  Biso   1.000  H
  C123     1.0000 0.96440  0.40690  0.49440  Biso   1.000  C
  H80      1.0000 0.92310  0.41650  0.46100  Biso   1.000  H
  C124     1.0000 0.34100  0.12100  0.76700  Biso   1.000  C
  H81      1.0000 0.26790  0.13260  0.77080  Biso   1.000  H
  C125     1.0000 0.96540  0.46640  0.76050  Biso   1.000  C
  H82      1.0000 0.93160  0.42250  0.77320  Biso   1.000  H
  C126     1.0000 0.80350  0.44440  0.57170  Biso   1.000  C
  C127     1.0000 0.39230  0.07440  0.73350  Biso   1.000  C
  H83      1.0000 0.35320  0.05640  0.71410  Biso   1.000  H
  C128     1.0000 0.75750  0.76800  0.65480  Biso   1.000  C
  H84      1.0000 0.68460  0.77640  0.67220  Biso   1.000  H
  C129     1.0000 0.13510  0.25400  0.03200  Biso   1.000  C
  C130     1.0000 0.91680  0.53730  0.72480  Biso   1.000  C
  H85      1.0000 0.85070  0.54020  0.71470  Biso   1.000  H
  C131     1.0000 0.54230  0.01540  0.62440  Biso   1.000  C
  H86      1.0000 0.48410  0.04630  0.60750  Biso   1.000  H
  C132     1.0000 0.08880  0.37840  0.59180  Biso   1.000  C
  H87      1.0000 0.13060  0.36990  0.62460  Biso   1.000  H
  C133     1.0000 0.34190  0.20230  0.82940  Biso   1.000  C
  C134     1.0000 0.69410  0.93290  0.60620  Biso   1.000  C
  C135     1.0000 0.95400  0.13210  0.76910  Biso   1.000  C
  C136     1.0000 0.41160  0.32960  0.42710  Biso   1.000  C
  H88      1.0000 0.45090  0.34730  0.37760  Biso   1.000  H
  C137     1.0000 0.85720  0.01810  0.46990  Biso   1.000  C
  H89      1.0000 0.85220  0.03000  0.50900  Biso   1.000  H
  C138     1.0000 0.49940  0.05400  0.72810  Biso   1.000  C
  C139     1.0000 0.98840  0.08800  0.20160  Biso   1.000  C
  H90      1.0000 0.96140  0.04260  0.21140  Biso   1.000  H
  C140     1.0000 0.29470  0.28140  0.57210  Biso   1.000  C
  H91      1.0000 0.25610  0.26500  0.62170  Biso   1.000  H
  C141     1.0000 0.60720  0.97870  0.58330  Biso   1.000  C
  H92      1.0000 0.59150  0.98520  0.53990  Biso   1.000  H
  C142     1.0000 0.70260  0.16360  0.52680  Biso   1.000  C
  H93      1.0000 0.69740  0.13110  0.50710  Biso   1.000  H
  C143     1.0000 0.30690  0.35650  0.44270  Biso   1.000  C
  H94      1.0000 0.27630  0.39080  0.40330  Biso   1.000  H
  C144     1.0000 0.88880  0.08030  0.77510  Biso   1.000  C
  H95      1.0000 0.87720  0.03370  0.81790  Biso   1.000  H
  C145     1.0000 0.69810  0.26000  0.35300  Biso   1.000  C
  H96      1.0000 0.74050  0.28600  0.36250  Biso   1.000  H
  C146     1.0000 0.77390  0.14410  0.57090  Biso   1.000  C
  H97      1.0000 0.81530  0.09870  0.58070  Biso   1.000  H
  C147     1.0000 0.92370  0.81240  0.56980  Biso   1.000  C
  H98      1.0000 0.96450  0.85110  0.52840  Biso   1.000  H
  C148     1.0000 0.56130  0.00750  0.68930  Biso   1.000  C
  C149     1.0000 0.90720  0.06810  0.39740  Biso   1.000  C
  H99      1.0000 0.93280  0.11320  0.38920  Biso   1.000  H
  C150     1.0000 0.97200  0.74050  0.60550  Biso   1.000  C
  H100     1.0000 0.04510  0.73240  0.58820  Biso   1.000  H
  C151     1.0000 0.01530  0.17470  0.24180  Biso   1.000  C
  H101     1.0000 0.00820  0.18890  0.27960  Biso   1.000  H
  C152     1.0000 0.39910  0.25270  0.55720  Biso   1.000  C
  H102     1.0000 0.42900  0.21710  0.59650  Biso   1.000  H
  C153     1.0000 0.84090  0.09730  0.71810  Biso   1.000  C
  H103     1.0000 0.79930  0.06100  0.72220  Biso   1.000  H
  C154     1.0000 0.71310  0.92200  0.67230  Biso   1.000  C
  H104     1.0000 0.77050  0.89010  0.68940  Biso   1.000  H
  C155     1.0000 0.06390  0.59620  0.71920  Biso   1.000  C
  H105     1.0000 0.09940  0.64000  0.70470  Biso   1.000  H
  C156     1.0000 0.64660  0.95850  0.71390  Biso   1.000  C
  H106     1.0000 0.65980  0.94970  0.75880  Biso   1.000  H
  C157     1.0000 0.72520  0.25780  0.58260  Biso   1.000  C
  H107     1.0000 0.73420  0.29100  0.60050  Biso   1.000  H
  C158     1.0000 0.11170  0.52500  0.75570  Biso   1.000  C
  H108     1.0000 0.17820  0.52190  0.76540  Biso   1.000  H
  C159     1.0000 0.06850  0.38050  0.48170  Biso   1.000  C
  H109     1.0000 0.09690  0.37290  0.43910  Biso   1.000  H
  C160     1.0000 0.97660  0.19540  0.70280  Biso   1.000  C
  H110     1.0000 0.02750  0.22780  0.69520  Biso   1.000  H
  C161     1.0000 0.92710  0.21380  0.64590  Biso   1.000  C
  H111     1.0000 0.94450  0.25820  0.60130  Biso   1.000  H
  C162     1.0000 0.65090  0.27950  0.53850  Biso   1.000  C
  H112     1.0000 0.61090  0.32550  0.52790  Biso   1.000  H
  C163     1.0000 0.50200  0.13190  0.78930  Biso   1.000  C
  H113     1.0000 0.54130  0.15170  0.80700  Biso   1.000  H
  C164     1.0000 0.55260  0.08270  0.75690  Biso   1.000  C
  H114     1.0000 0.62500  0.06930  0.75500  Biso   1.000  H
  C165     1.0000 0.38750  0.26390  0.13970  Biso   1.000  C
  H115     1.0000 0.40350  0.31060  0.13870  Biso   1.000  H
  H116     1.0000 0.33360  0.23700  0.18510  Biso   1.000  H
  C166     1.0000 0.48810  0.21340  0.13320  Biso   1.000  C
  H117     1.0000 0.49070  0.16970  0.18110  Biso   1.000  H
  H118     1.0000 0.55240  0.24210  0.11450  Biso   1.000  H
  C167     1.0000 0.35520  0.97260  0.03260  Biso   1.000  C
  H119     1.0000 0.33960  0.93030  0.08250  Biso   1.000  H
  H120     1.0000 0.42110  0.96040  0.00300  Biso   1.000  H
  C168     1.0000 0.87730  0.98590  0.35480  Biso   1.000  C
  H121     1.0000 0.88380  0.97300  0.31630  Biso   1.000  H
  C169     1.0000 0.39430  0.45210  0.85670  Biso   1.000  C
  C170     1.0000 0.34640  0.55900  0.87390  Biso   1.000  C
  H122     1.0000 0.28160  0.58870  0.86110  Biso   1.000  H
  H123     1.0000 0.36330  0.56850  0.91130  Biso   1.000  H
  C171     1.0000 0.36210  0.04750  0.03520  Biso   1.000  C
  H124     1.0000 0.42040  0.07760  0.99570  Biso   1.000  H
  H125     1.0000 0.37160  0.03810  0.08330  Biso   1.000  H
  C172     1.0000 0.82500  0.93670  0.42690  Biso   1.000  C
  H126     1.0000 0.79630  0.89250  0.43530  Biso   1.000  H
  C173     1.0000 0.43940  0.58040  0.80430  Biso   1.000  C
  H127     1.0000 0.50300  0.59190  0.81220  Biso   1.000  H
  H128     1.0000 0.42000  0.62320  0.76060  Biso   1.000  H
  C174     1.0000 0.40300  0.23320  0.04340  Biso   1.000  C
  N9       1.0000 0.26760  0.99000  0.99750  Biso   1.000  N
  H129     1.0000 0.25320  0.96310  0.97890  Biso   1.000  H
  N10      1.0000 0.35380  0.27970  0.07390  Biso   1.000  N
  H130     1.0000 0.30710  0.31520  0.05620  Biso   1.000  H
  N11      1.0000 0.26080  0.08410  0.02390  Biso   1.000  N
  H131     1.0000 0.23410  0.12230  0.03330  Biso   1.000  H
  N12      1.0000 0.45270  0.50920  0.79900  Biso   1.000  N
  H132     1.0000 0.49510  0.50380  0.76130  Biso   1.000  H
  N13      1.0000 0.33190  0.47740  0.90230  Biso   1.000  N
  H133     1.0000 0.28810  0.45000  0.94340  Biso   1.000  H
  N14      1.0000 0.76530  0.90030  0.56010  Biso   1.000  N
  N15      1.0000 0.56410  0.24820  0.46590  Biso   1.000  N
  N16      1.0000 0.47640  0.18910  0.08000  Biso   1.000  N
  H134     1.0000 0.51210  0.15130  0.07310  Biso   1.000  H
  Mn5      1.0000 0.00000  0.00000  0.00000  Biso   1.000  Mn
