data_image0
_cell_length_a       15.576
_cell_length_b       16.427
_cell_length_c       12.477
_cell_angle_alpha    90
_cell_angle_beta     92.314
_cell_angle_gamma    90

_symmetry_space_group_name_H-M    "P 1"
_symmetry_int_tables_number       1

loop_
  _symmetry_equiv_pos_as_xyz
  'x, y, z'

loop_
  _atom_site_label
  _atom_site_occupancy
  _atom_site_fract_x
  _atom_site_fract_y
  _atom_site_fract_z
  _atom_site_thermal_displace_type
  _atom_site_B_iso_or_equiv
  _atom_site_type_symbol
  Dy1      1.0000 0.11973  0.18711  0.90730  Biso   1.000  Dy
  S1       1.0000 0.10489  0.21941  0.66356  Biso   1.000  S
  S2       1.0000 0.18876  0.35127  0.07290  Biso   1.000  S
  O1       1.0000 0.05680  0.06250  0.89930  Biso   1.000  O
  O2       1.0000 0.10110  0.14100  0.72360  Biso   1.000  O
  O3       1.0000 0.08370  0.14510  0.07280  Biso   1.000  O
  O4       1.0000 0.02160  0.23370  0.60750  Biso   1.000  O
  O5       1.0000 0.13580  0.31110  0.99020  Biso   1.000  O
  O6       1.0000 0.12070  0.28190  0.74820  Biso   1.000  O
  O7       1.0000 0.07280  0.04230  0.18280  Biso   1.000  O
  O8       1.0000 0.17350  0.21770  0.58930  Biso   1.000  O
  O9       1.0000 0.26010  0.39370  0.02740  Biso   1.000  O
  C1       1.0000 0.06500  0.07310  0.09230  Biso   1.000  C
  O10      1.0000 0.13480  0.40020  0.13500  Biso   1.000  O
  O11      1.0000 0.23410  0.29130  0.13940  Biso   1.000  O
  C2       1.0000 0.04160  0.01920  0.99780  Biso   1.000  C
  H1       1.0000 0.08350  0.97470  0.00090  Biso   1.000  H
  Dy2      1.0000 0.61973  0.68711  0.90730  Biso   1.000  Dy
  S3       1.0000 0.60489  0.71941  0.66356  Biso   1.000  S
  S4       1.0000 0.68876  0.85127  0.07290  Biso   1.000  S
  O12      1.0000 0.55680  0.56250  0.89930  Biso   1.000  O
  O13      1.0000 0.60110  0.64100  0.72360  Biso   1.000  O
  O14      1.0000 0.58370  0.64510  0.07280  Biso   1.000  O
  O15      1.0000 0.52160  0.73370  0.60750  Biso   1.000  O
  O16      1.0000 0.63580  0.81110  0.99020  Biso   1.000  O
  O17      1.0000 0.62070  0.78190  0.74820  Biso   1.000  O
  O18      1.0000 0.57280  0.54230  0.18280  Biso   1.000  O
  O19      1.0000 0.67350  0.71770  0.58930  Biso   1.000  O
  O20      1.0000 0.76010  0.89370  0.02740  Biso   1.000  O
  C3       1.0000 0.56500  0.57310  0.09230  Biso   1.000  C
  O21      1.0000 0.63480  0.90020  0.13500  Biso   1.000  O
  O22      1.0000 0.73410  0.79130  0.13940  Biso   1.000  O
  C4       1.0000 0.54160  0.51920  0.99780  Biso   1.000  C
  H2       1.0000 0.58350  0.47470  0.00090  Biso   1.000  H
  Dy3      1.0000 0.88027  0.18711  0.59270  Biso   1.000  Dy
  S5       1.0000 0.89511  0.21941  0.83644  Biso   1.000  S
  S6       1.0000 0.81124  0.35127  0.42710  Biso   1.000  S
  O23      1.0000 0.94320  0.06250  0.60070  Biso   1.000  O
  O24      1.0000 0.89890  0.14100  0.77640  Biso   1.000  O
  O25      1.0000 0.91630  0.14510  0.42720  Biso   1.000  O
  O26      1.0000 0.97840  0.23370  0.89250  Biso   1.000  O
  O27      1.0000 0.86420  0.31110  0.50980  Biso   1.000  O
  O28      1.0000 0.87930  0.28190  0.75180  Biso   1.000  O
  O29      1.0000 0.92720  0.04230  0.31720  Biso   1.000  O
  O30      1.0000 0.82650  0.21770  0.91070  Biso   1.000  O
  O31      1.0000 0.73990  0.39370  0.47260  Biso   1.000  O
  C5       1.0000 0.93500  0.07310  0.40770  Biso   1.000  C
  O32      1.0000 0.86520  0.40020  0.36500  Biso   1.000  O
  O33      1.0000 0.76590  0.29130  0.36060  Biso   1.000  O
  C6       1.0000 0.95840  0.01920  0.50220  Biso   1.000  C
  H3       1.0000 0.91650  0.97470  0.49910  Biso   1.000  H
  Dy4      1.0000 0.38027  0.68711  0.59270  Biso   1.000  Dy
  S7       1.0000 0.39511  0.71941  0.83644  Biso   1.000  S
  S8       1.0000 0.31124  0.85127  0.42710  Biso   1.000  S
  O34      1.0000 0.44320  0.56250  0.60070  Biso   1.000  O
  O35      1.0000 0.39890  0.64100  0.77640  Biso   1.000  O
  O36      1.0000 0.41630  0.64510  0.42720  Biso   1.000  O
  O37      1.0000 0.47840  0.73370  0.89250  Biso   1.000  O
  O38      1.0000 0.36420  0.81110  0.50980  Biso   1.000  O
  O39      1.0000 0.37930  0.78190  0.75180  Biso   1.000  O
  O40      1.0000 0.42720  0.54230  0.31720  Biso   1.000  O
  O41      1.0000 0.32650  0.71770  0.91070  Biso   1.000  O
  O42      1.0000 0.23990  0.89370  0.47260  Biso   1.000  O
  C7       1.0000 0.43500  0.57310  0.40770  Biso   1.000  C
  O43      1.0000 0.36520  0.90020  0.36500  Biso   1.000  O
  O44      1.0000 0.26590  0.79130  0.36060  Biso   1.000  O
  C8       1.0000 0.45840  0.51920  0.50220  Biso   1.000  C
  H4       1.0000 0.41650  0.47470  0.49910  Biso   1.000  H
  Dy5      1.0000 0.88027  0.81289  0.09270  Biso   1.000  Dy
  S9       1.0000 0.89511  0.78059  0.33644  Biso   1.000  S
  S10      1.0000 0.81124  0.64873  0.92710  Biso   1.000  S
  O45      1.0000 0.94320  0.93750  0.10070  Biso   1.000  O
  O46      1.0000 0.89890  0.85900  0.27640  Biso   1.000  O
  O47      1.0000 0.91630  0.85490  0.92720  Biso   1.000  O
  O48      1.0000 0.97840  0.76630  0.39250  Biso   1.000  O
  O49      1.0000 0.86420  0.68890  0.00980  Biso   1.000  O
  O50      1.0000 0.87930  0.71810  0.25180  Biso   1.000  O
  O51      1.0000 0.92720  0.95770  0.81720  Biso   1.000  O
  O52      1.0000 0.82650  0.78230  0.41070  Biso   1.000  O
  O53      1.0000 0.73990  0.60630  0.97260  Biso   1.000  O
  C9       1.0000 0.93500  0.92690  0.90770  Biso   1.000  C
  O54      1.0000 0.86520  0.59980  0.86500  Biso   1.000  O
  O55      1.0000 0.76590  0.70870  0.86060  Biso   1.000  O
  C10      1.0000 0.95840  0.98080  0.00220  Biso   1.000  C
  H5       1.0000 0.91650  0.02530  0.99910  Biso   1.000  H
  Dy6      1.0000 0.38027  0.31289  0.09270  Biso   1.000  Dy
  S11      1.0000 0.39511  0.28059  0.33644  Biso   1.000  S
  S12      1.0000 0.31124  0.14873  0.92710  Biso   1.000  S
  O56      1.0000 0.44320  0.43750  0.10070  Biso   1.000  O
  O57      1.0000 0.39890  0.35900  0.27640  Biso   1.000  O
  O58      1.0000 0.41630  0.35490  0.92720  Biso   1.000  O
  O59      1.0000 0.47840  0.26630  0.39250  Biso   1.000  O
  O60      1.0000 0.36420  0.18890  0.00980  Biso   1.000  O
  O61      1.0000 0.37930  0.21810  0.25180  Biso   1.000  O
  O62      1.0000 0.42720  0.45770  0.81720  Biso   1.000  O
  O63      1.0000 0.32650  0.28230  0.41070  Biso   1.000  O
  O64      1.0000 0.23990  0.10630  0.97260  Biso   1.000  O
  C11      1.0000 0.43500  0.42690  0.90770  Biso   1.000  C
  O65      1.0000 0.36520  0.09980  0.86500  Biso   1.000  O
  O66      1.0000 0.26590  0.20870  0.86060  Biso   1.000  O
  C12      1.0000 0.45840  0.48080  0.00220  Biso   1.000  C
  H6       1.0000 0.41650  0.52530  0.99910  Biso   1.000  H
  Dy7      1.0000 0.11973  0.81289  0.40730  Biso   1.000  Dy
  S13      1.0000 0.10489  0.78059  0.16356  Biso   1.000  S
  S14      1.0000 0.18876  0.64873  0.57290  Biso   1.000  S
  O67      1.0000 0.05680  0.93750  0.39930  Biso   1.000  O
  O68      1.0000 0.10110  0.85900  0.22360  Biso   1.000  O
  O69      1.0000 0.08370  0.85490  0.57280  Biso   1.000  O
  O70      1.0000 0.02160  0.76630  0.10750  Biso   1.000  O
  O71      1.0000 0.13580  0.68890  0.49020  Biso   1.000  O
  O72      1.0000 0.12070  0.71810  0.24820  Biso   1.000  O
  O73      1.0000 0.07280  0.95770  0.68280  Biso   1.000  O
  O74      1.0000 0.17350  0.78230  0.08930  Biso   1.000  O
  O75      1.0000 0.26010  0.60630  0.52740  Biso   1.000  O
  C13      1.0000 0.06500  0.92690  0.59230  Biso   1.000  C
  O76      1.0000 0.13480  0.59980  0.63500  Biso   1.000  O
  O77      1.0000 0.23410  0.70870  0.63940  Biso   1.000  O
  C14      1.0000 0.04160  0.98080  0.49780  Biso   1.000  C
  H7       1.0000 0.08350  0.02530  0.50090  Biso   1.000  H
  Dy8      1.0000 0.61973  0.31289  0.40730  Biso   1.000  Dy
  S15      1.0000 0.60489  0.28059  0.16356  Biso   1.000  S
  S16      1.0000 0.68876  0.14873  0.57290  Biso   1.000  S
  O78      1.0000 0.55680  0.43750  0.39930  Biso   1.000  O
  O79      1.0000 0.60110  0.35900  0.22360  Biso   1.000  O
  O80      1.0000 0.58370  0.35490  0.57280  Biso   1.000  O
  O81      1.0000 0.52160  0.26630  0.10750  Biso   1.000  O
  O82      1.0000 0.63580  0.18890  0.49020  Biso   1.000  O
  O83      1.0000 0.62070  0.21810  0.24820  Biso   1.000  O
  O84      1.0000 0.57280  0.45770  0.68280  Biso   1.000  O
  O85      1.0000 0.67350  0.28230  0.08930  Biso   1.000  O
  O86      1.0000 0.76010  0.10630  0.52740  Biso   1.000  O
  C15      1.0000 0.56500  0.42690  0.59230  Biso   1.000  C
  O87      1.0000 0.63480  0.09980  0.63500  Biso   1.000  O
  O88      1.0000 0.73410  0.20870  0.63940  Biso   1.000  O
  C16      1.0000 0.54160  0.48080  0.49780  Biso   1.000  C
  H8       1.0000 0.58350  0.52530  0.50090  Biso   1.000  H
  Fe1      1.0000 0.00000  0.04831  0.75000  Biso   1.000  Fe
  Fe2      1.0000 0.50000  0.54831  0.75000  Biso   1.000  Fe
  Fe3      1.0000 0.00000  0.95169  0.25000  Biso   1.000  Fe
  Fe4      1.0000 0.50000  0.45169  0.25000  Biso   1.000  Fe
