data_image0
_cell_length_a       15.577
_cell_length_b       16.394
_cell_length_c       12.593
_cell_angle_alpha    90
_cell_angle_beta     92.84
_cell_angle_gamma    90

_symmetry_space_group_name_H-M    "P 1"
_symmetry_int_tables_number       1

loop_
  _symmetry_equiv_pos_as_xyz
  'x, y, z'

loop_
  _atom_site_label
  _atom_site_occupancy
  _atom_site_fract_x
  _atom_site_fract_y
  _atom_site_fract_z
  _atom_site_thermal_displace_type
  _atom_site_B_iso_or_equiv
  _atom_site_type_symbol
  Gd1      1.0000 0.12131  0.18800  0.90939  Biso   1.000  Gd
  S1       1.0000 0.10586  0.21912  0.66557  Biso   1.000  S
  S2       1.0000 0.18587  0.34943  0.07620  Biso   1.000  S
  O1       1.0000 0.05450  0.06170  0.90020  Biso   1.000  O
  O2       1.0000 0.10200  0.14120  0.72620  Biso   1.000  O
  O3       1.0000 0.08600  0.14400  0.07540  Biso   1.000  O
  O4       1.0000 0.02240  0.23330  0.60790  Biso   1.000  O
  O5       1.0000 0.13120  0.31690  0.99000  Biso   1.000  O
  O6       1.0000 0.12120  0.28270  0.74880  Biso   1.000  O
  O7       1.0000 0.07370  0.04280  0.18530  Biso   1.000  O
  O8       1.0000 0.17460  0.21780  0.59390  Biso   1.000  O
  O9       1.0000 0.25620  0.39760  0.03560  Biso   1.000  O
  C1       1.0000 0.06560  0.07310  0.09490  Biso   1.000  C
  O10      1.0000 0.13150  0.39160  0.14710  Biso   1.000  O
  O11      1.0000 0.23080  0.28280  0.13170  Biso   1.000  O
  C2       1.0000 0.03740  0.02040  0.99640  Biso   1.000  C
  H1       1.0000 0.08010  0.97640  0.99870  Biso   1.000  H
  Gd2      1.0000 0.62131  0.68800  0.90939  Biso   1.000  Gd
  S3       1.0000 0.60586  0.71912  0.66557  Biso   1.000  S
  S4       1.0000 0.68587  0.84943  0.07620  Biso   1.000  S
  O12      1.0000 0.55450  0.56170  0.90020  Biso   1.000  O
  O13      1.0000 0.60200  0.64120  0.72620  Biso   1.000  O
  O14      1.0000 0.58600  0.64400  0.07540  Biso   1.000  O
  O15      1.0000 0.52240  0.73330  0.60790  Biso   1.000  O
  O16      1.0000 0.63120  0.81690  0.99000  Biso   1.000  O
  O17      1.0000 0.62120  0.78270  0.74880  Biso   1.000  O
  O18      1.0000 0.57370  0.54280  0.18530  Biso   1.000  O
  O19      1.0000 0.67460  0.71780  0.59390  Biso   1.000  O
  O20      1.0000 0.75620  0.89760  0.03560  Biso   1.000  O
  C3       1.0000 0.56560  0.57310  0.09490  Biso   1.000  C
  O21      1.0000 0.63150  0.89160  0.14710  Biso   1.000  O
  O22      1.0000 0.73080  0.78280  0.13170  Biso   1.000  O
  C4       1.0000 0.53740  0.52040  0.99640  Biso   1.000  C
  H2       1.0000 0.58010  0.47640  0.99870  Biso   1.000  H
  Gd3      1.0000 0.87869  0.18800  0.59061  Biso   1.000  Gd
  S5       1.0000 0.89414  0.21912  0.83443  Biso   1.000  S
  S6       1.0000 0.81413  0.34943  0.42380  Biso   1.000  S
  O23      1.0000 0.94550  0.06170  0.59980  Biso   1.000  O
  O24      1.0000 0.89800  0.14120  0.77380  Biso   1.000  O
  O25      1.0000 0.91400  0.14400  0.42460  Biso   1.000  O
  O26      1.0000 0.97760  0.23330  0.89210  Biso   1.000  O
  O27      1.0000 0.86880  0.31690  0.51000  Biso   1.000  O
  O28      1.0000 0.87880  0.28270  0.75120  Biso   1.000  O
  O29      1.0000 0.92630  0.04280  0.31470  Biso   1.000  O
  O30      1.0000 0.82540  0.21780  0.90610  Biso   1.000  O
  O31      1.0000 0.74380  0.39760  0.46440  Biso   1.000  O
  C5       1.0000 0.93440  0.07310  0.40510  Biso   1.000  C
  O32      1.0000 0.86850  0.39160  0.35290  Biso   1.000  O
  O33      1.0000 0.76920  0.28280  0.36830  Biso   1.000  O
  C6       1.0000 0.96260  0.02040  0.50360  Biso   1.000  C
  H3       1.0000 0.91990  0.97640  0.50130  Biso   1.000  H
  Gd4      1.0000 0.37869  0.68800  0.59061  Biso   1.000  Gd
  S7       1.0000 0.39414  0.71912  0.83443  Biso   1.000  S
  S8       1.0000 0.31413  0.84943  0.42380  Biso   1.000  S
  O34      1.0000 0.44550  0.56170  0.59980  Biso   1.000  O
  O35      1.0000 0.39800  0.64120  0.77380  Biso   1.000  O
  O36      1.0000 0.41400  0.64400  0.42460  Biso   1.000  O
  O37      1.0000 0.47760  0.73330  0.89210  Biso   1.000  O
  O38      1.0000 0.36880  0.81690  0.51000  Biso   1.000  O
  O39      1.0000 0.37880  0.78270  0.75120  Biso   1.000  O
  O40      1.0000 0.42630  0.54280  0.31470  Biso   1.000  O
  O41      1.0000 0.32540  0.71780  0.90610  Biso   1.000  O
  O42      1.0000 0.24380  0.89760  0.46440  Biso   1.000  O
  C7       1.0000 0.43440  0.57310  0.40510  Biso   1.000  C
  O43      1.0000 0.36850  0.89160  0.35290  Biso   1.000  O
  O44      1.0000 0.26920  0.78280  0.36830  Biso   1.000  O
  C8       1.0000 0.46260  0.52040  0.50360  Biso   1.000  C
  H4       1.0000 0.41990  0.47640  0.50130  Biso   1.000  H
  Gd5      1.0000 0.87869  0.81200  0.09061  Biso   1.000  Gd
  S9       1.0000 0.89414  0.78088  0.33443  Biso   1.000  S
  S10      1.0000 0.81413  0.65057  0.92380  Biso   1.000  S
  O45      1.0000 0.94550  0.93830  0.09980  Biso   1.000  O
  O46      1.0000 0.89800  0.85880  0.27380  Biso   1.000  O
  O47      1.0000 0.91400  0.85600  0.92460  Biso   1.000  O
  O48      1.0000 0.97760  0.76670  0.39210  Biso   1.000  O
  O49      1.0000 0.86880  0.68310  0.01000  Biso   1.000  O
  O50      1.0000 0.87880  0.71730  0.25120  Biso   1.000  O
  O51      1.0000 0.92630  0.95720  0.81470  Biso   1.000  O
  O52      1.0000 0.82540  0.78220  0.40610  Biso   1.000  O
  O53      1.0000 0.74380  0.60240  0.96440  Biso   1.000  O
  C9       1.0000 0.93440  0.92690  0.90510  Biso   1.000  C
  O54      1.0000 0.86850  0.60840  0.85290  Biso   1.000  O
  O55      1.0000 0.76920  0.71720  0.86830  Biso   1.000  O
  C10      1.0000 0.96260  0.97960  0.00360  Biso   1.000  C
  H5       1.0000 0.91990  0.02360  0.00130  Biso   1.000  H
  Gd6      1.0000 0.37869  0.31200  0.09061  Biso   1.000  Gd
  S11      1.0000 0.39414  0.28088  0.33443  Biso   1.000  S
  S12      1.0000 0.31413  0.15057  0.92380  Biso   1.000  S
  O56      1.0000 0.44550  0.43830  0.09980  Biso   1.000  O
  O57      1.0000 0.39800  0.35880  0.27380  Biso   1.000  O
  O58      1.0000 0.41400  0.35600  0.92460  Biso   1.000  O
  O59      1.0000 0.47760  0.26670  0.39210  Biso   1.000  O
  O60      1.0000 0.36880  0.18310  0.01000  Biso   1.000  O
  O61      1.0000 0.37880  0.21730  0.25120  Biso   1.000  O
  O62      1.0000 0.42630  0.45720  0.81470  Biso   1.000  O
  O63      1.0000 0.32540  0.28220  0.40610  Biso   1.000  O
  O64      1.0000 0.24380  0.10240  0.96440  Biso   1.000  O
  C11      1.0000 0.43440  0.42690  0.90510  Biso   1.000  C
  O65      1.0000 0.36850  0.10840  0.85290  Biso   1.000  O
  O66      1.0000 0.26920  0.21720  0.86830  Biso   1.000  O
  C12      1.0000 0.46260  0.47960  0.00360  Biso   1.000  C
  H6       1.0000 0.41990  0.52360  0.00130  Biso   1.000  H
  Gd7      1.0000 0.12131  0.81200  0.40939  Biso   1.000  Gd
  S13      1.0000 0.10586  0.78088  0.16557  Biso   1.000  S
  S14      1.0000 0.18587  0.65057  0.57620  Biso   1.000  S
  O67      1.0000 0.05450  0.93830  0.40020  Biso   1.000  O
  O68      1.0000 0.10200  0.85880  0.22620  Biso   1.000  O
  O69      1.0000 0.08600  0.85600  0.57540  Biso   1.000  O
  O70      1.0000 0.02240  0.76670  0.10790  Biso   1.000  O
  O71      1.0000 0.13120  0.68310  0.49000  Biso   1.000  O
  O72      1.0000 0.12120  0.71730  0.24880  Biso   1.000  O
  O73      1.0000 0.07370  0.95720  0.68530  Biso   1.000  O
  O74      1.0000 0.17460  0.78220  0.09390  Biso   1.000  O
  O75      1.0000 0.25620  0.60240  0.53560  Biso   1.000  O
  C13      1.0000 0.06560  0.92690  0.59490  Biso   1.000  C
  O76      1.0000 0.13150  0.60840  0.64710  Biso   1.000  O
  O77      1.0000 0.23080  0.71720  0.63170  Biso   1.000  O
  C14      1.0000 0.03740  0.97960  0.49640  Biso   1.000  C
  H7       1.0000 0.08010  0.02360  0.49870  Biso   1.000  H
  Gd8      1.0000 0.62131  0.31200  0.40939  Biso   1.000  Gd
  S15      1.0000 0.60586  0.28088  0.16557  Biso   1.000  S
  S16      1.0000 0.68587  0.15057  0.57620  Biso   1.000  S
  O78      1.0000 0.55450  0.43830  0.40020  Biso   1.000  O
  O79      1.0000 0.60200  0.35880  0.22620  Biso   1.000  O
  O80      1.0000 0.58600  0.35600  0.57540  Biso   1.000  O
  O81      1.0000 0.52240  0.26670  0.10790  Biso   1.000  O
  O82      1.0000 0.63120  0.18310  0.49000  Biso   1.000  O
  O83      1.0000 0.62120  0.21730  0.24880  Biso   1.000  O
  O84      1.0000 0.57370  0.45720  0.68530  Biso   1.000  O
  O85      1.0000 0.67460  0.28220  0.09390  Biso   1.000  O
  O86      1.0000 0.75620  0.10240  0.53560  Biso   1.000  O
  C15      1.0000 0.56560  0.42690  0.59490  Biso   1.000  C
  O87      1.0000 0.63150  0.10840  0.64710  Biso   1.000  O
  O88      1.0000 0.73080  0.21720  0.63170  Biso   1.000  O
  C16      1.0000 0.53740  0.47960  0.49640  Biso   1.000  C
  H8       1.0000 0.58010  0.52360  0.49870  Biso   1.000  H
  Fe1      1.0000 0.00000  0.04840  0.75000  Biso   1.000  Fe
  Fe2      1.0000 0.50000  0.54840  0.75000  Biso   1.000  Fe
  Fe3      1.0000 0.00000  0.95160  0.25000  Biso   1.000  Fe
  Fe4      1.0000 0.50000  0.45160  0.25000  Biso   1.000  Fe
