data_image0
_cell_length_a       15.5555
_cell_length_b       16.5429
_cell_length_c       12.3964
_cell_angle_alpha    90
_cell_angle_beta     91.906
_cell_angle_gamma    90

_symmetry_space_group_name_H-M    "P 1"
_symmetry_int_tables_number       1

loop_
  _symmetry_equiv_pos_as_xyz
  'x, y, z'

loop_
  _atom_site_label
  _atom_site_occupancy
  _atom_site_fract_x
  _atom_site_fract_y
  _atom_site_fract_z
  _atom_site_thermal_displace_type
  _atom_site_B_iso_or_equiv
  _atom_site_type_symbol
  Er1      1.0000 0.11801  0.18608  0.90641  Biso   1.000  Er
  S1       1.0000 0.10482  0.21854  0.66307  Biso   1.000  S
  S2       1.0000 0.18953  0.35092  0.07090  Biso   1.000  S
  O1       1.0000 0.05650  0.06270  0.89930  Biso   1.000  O
  O2       1.0000 0.10070  0.14030  0.72430  Biso   1.000  O
  O3       1.0000 0.08270  0.14640  0.07350  Biso   1.000  O
  O4       1.0000 0.02200  0.23280  0.60670  Biso   1.000  O
  O5       1.0000 0.13760  0.30510  0.99340  Biso   1.000  O
  O6       1.0000 0.11920  0.28050  0.74870  Biso   1.000  O
  O7       1.0000 0.07450  0.04290  0.18340  Biso   1.000  O
  O8       1.0000 0.17400  0.21800  0.58850  Biso   1.000  O
  O9       1.0000 0.26260  0.38840  0.01890  Biso   1.000  O
  C1       1.0000 0.06600  0.07350  0.09120  Biso   1.000  C
  O10      1.0000 0.13480  0.40600  0.12280  Biso   1.000  O
  O11      1.0000 0.23570  0.29630  0.14540  Biso   1.000  O
  C2       1.0000 0.04380  0.01850  0.99620  Biso   1.000  C
  H1       1.0000 0.08560  0.97420  0.99820  Biso   1.000  H
  Er2      1.0000 0.61801  0.68608  0.90641  Biso   1.000  Er
  S3       1.0000 0.60482  0.71854  0.66307  Biso   1.000  S
  S4       1.0000 0.68953  0.85092  0.07090  Biso   1.000  S
  O12      1.0000 0.55650  0.56270  0.89930  Biso   1.000  O
  O13      1.0000 0.60070  0.64030  0.72430  Biso   1.000  O
  O14      1.0000 0.58270  0.64640  0.07350  Biso   1.000  O
  O15      1.0000 0.52200  0.73280  0.60670  Biso   1.000  O
  O16      1.0000 0.63760  0.80510  0.99340  Biso   1.000  O
  O17      1.0000 0.61920  0.78050  0.74870  Biso   1.000  O
  O18      1.0000 0.57450  0.54290  0.18340  Biso   1.000  O
  O19      1.0000 0.67400  0.71800  0.58850  Biso   1.000  O
  O20      1.0000 0.76260  0.88840  0.01890  Biso   1.000  O
  C3       1.0000 0.56600  0.57350  0.09120  Biso   1.000  C
  O21      1.0000 0.63480  0.90600  0.12280  Biso   1.000  O
  O22      1.0000 0.73570  0.79630  0.14540  Biso   1.000  O
  C4       1.0000 0.54380  0.51850  0.99620  Biso   1.000  C
  H2       1.0000 0.58560  0.47420  0.99820  Biso   1.000  H
  Er3      1.0000 0.88199  0.18608  0.59359  Biso   1.000  Er
  S5       1.0000 0.89518  0.21854  0.83693  Biso   1.000  S
  S6       1.0000 0.81047  0.35092  0.42910  Biso   1.000  S
  O23      1.0000 0.94350  0.06270  0.60070  Biso   1.000  O
  O24      1.0000 0.89930  0.14030  0.77570  Biso   1.000  O
  O25      1.0000 0.91730  0.14640  0.42650  Biso   1.000  O
  O26      1.0000 0.97800  0.23280  0.89330  Biso   1.000  O
  O27      1.0000 0.86240  0.30510  0.50660  Biso   1.000  O
  O28      1.0000 0.88080  0.28050  0.75130  Biso   1.000  O
  O29      1.0000 0.92550  0.04290  0.31660  Biso   1.000  O
  O30      1.0000 0.82600  0.21800  0.91150  Biso   1.000  O
  O31      1.0000 0.73740  0.38840  0.48110  Biso   1.000  O
  C5       1.0000 0.93400  0.07350  0.40880  Biso   1.000  C
  O32      1.0000 0.86520  0.40600  0.37720  Biso   1.000  O
  O33      1.0000 0.76430  0.29630  0.35460  Biso   1.000  O
  C6       1.0000 0.95620  0.01850  0.50380  Biso   1.000  C
  H3       1.0000 0.91440  0.97420  0.50180  Biso   1.000  H
  Er4      1.0000 0.38199  0.68608  0.59359  Biso   1.000  Er
  S7       1.0000 0.39518  0.71854  0.83693  Biso   1.000  S
  S8       1.0000 0.31047  0.85092  0.42910  Biso   1.000  S
  O34      1.0000 0.44350  0.56270  0.60070  Biso   1.000  O
  O35      1.0000 0.39930  0.64030  0.77570  Biso   1.000  O
  O36      1.0000 0.41730  0.64640  0.42650  Biso   1.000  O
  O37      1.0000 0.47800  0.73280  0.89330  Biso   1.000  O
  O38      1.0000 0.36240  0.80510  0.50660  Biso   1.000  O
  O39      1.0000 0.38080  0.78050  0.75130  Biso   1.000  O
  O40      1.0000 0.42550  0.54290  0.31660  Biso   1.000  O
  O41      1.0000 0.32600  0.71800  0.91150  Biso   1.000  O
  O42      1.0000 0.23740  0.88840  0.48110  Biso   1.000  O
  C7       1.0000 0.43400  0.57350  0.40880  Biso   1.000  C
  O43      1.0000 0.36520  0.90600  0.37720  Biso   1.000  O
  O44      1.0000 0.26430  0.79630  0.35460  Biso   1.000  O
  C8       1.0000 0.45620  0.51850  0.50380  Biso   1.000  C
  H4       1.0000 0.41440  0.47420  0.50180  Biso   1.000  H
  Er5      1.0000 0.88199  0.81392  0.09359  Biso   1.000  Er
  S9       1.0000 0.89518  0.78146  0.33693  Biso   1.000  S
  S10      1.0000 0.81047  0.64908  0.92910  Biso   1.000  S
  O45      1.0000 0.94350  0.93730  0.10070  Biso   1.000  O
  O46      1.0000 0.89930  0.85970  0.27570  Biso   1.000  O
  O47      1.0000 0.91730  0.85360  0.92650  Biso   1.000  O
  O48      1.0000 0.97800  0.76720  0.39330  Biso   1.000  O
  O49      1.0000 0.86240  0.69490  0.00660  Biso   1.000  O
  O50      1.0000 0.88080  0.71950  0.25130  Biso   1.000  O
  O51      1.0000 0.92550  0.95710  0.81660  Biso   1.000  O
  O52      1.0000 0.82600  0.78200  0.41150  Biso   1.000  O
  O53      1.0000 0.73740  0.61160  0.98110  Biso   1.000  O
  C9       1.0000 0.93400  0.92650  0.90880  Biso   1.000  C
  O54      1.0000 0.86520  0.59400  0.87720  Biso   1.000  O
  O55      1.0000 0.76430  0.70370  0.85460  Biso   1.000  O
  C10      1.0000 0.95620  0.98150  0.00380  Biso   1.000  C
  H5       1.0000 0.91440  0.02580  0.00180  Biso   1.000  H
  Er6      1.0000 0.38199  0.31392  0.09359  Biso   1.000  Er
  S11      1.0000 0.39518  0.28146  0.33693  Biso   1.000  S
  S12      1.0000 0.31047  0.14908  0.92910  Biso   1.000  S
  O56      1.0000 0.44350  0.43730  0.10070  Biso   1.000  O
  O57      1.0000 0.39930  0.35970  0.27570  Biso   1.000  O
  O58      1.0000 0.41730  0.35360  0.92650  Biso   1.000  O
  O59      1.0000 0.47800  0.26720  0.39330  Biso   1.000  O
  O60      1.0000 0.36240  0.19490  0.00660  Biso   1.000  O
  O61      1.0000 0.38080  0.21950  0.25130  Biso   1.000  O
  O62      1.0000 0.42550  0.45710  0.81660  Biso   1.000  O
  O63      1.0000 0.32600  0.28200  0.41150  Biso   1.000  O
  O64      1.0000 0.23740  0.11160  0.98110  Biso   1.000  O
  C11      1.0000 0.43400  0.42650  0.90880  Biso   1.000  C
  O65      1.0000 0.36520  0.09400  0.87720  Biso   1.000  O
  O66      1.0000 0.26430  0.20370  0.85460  Biso   1.000  O
  C12      1.0000 0.45620  0.48150  0.00380  Biso   1.000  C
  H6       1.0000 0.41440  0.52580  0.00180  Biso   1.000  H
  Er7      1.0000 0.11801  0.81392  0.40641  Biso   1.000  Er
  S13      1.0000 0.10482  0.78146  0.16307  Biso   1.000  S
  S14      1.0000 0.18953  0.64908  0.57090  Biso   1.000  S
  O67      1.0000 0.05650  0.93730  0.39930  Biso   1.000  O
  O68      1.0000 0.10070  0.85970  0.22430  Biso   1.000  O
  O69      1.0000 0.08270  0.85360  0.57350  Biso   1.000  O
  O70      1.0000 0.02200  0.76720  0.10670  Biso   1.000  O
  O71      1.0000 0.13760  0.69490  0.49340  Biso   1.000  O
  O72      1.0000 0.11920  0.71950  0.24870  Biso   1.000  O
  O73      1.0000 0.07450  0.95710  0.68340  Biso   1.000  O
  O74      1.0000 0.17400  0.78200  0.08850  Biso   1.000  O
  O75      1.0000 0.26260  0.61160  0.51890  Biso   1.000  O
  C13      1.0000 0.06600  0.92650  0.59120  Biso   1.000  C
  O76      1.0000 0.13480  0.59400  0.62280  Biso   1.000  O
  O77      1.0000 0.23570  0.70370  0.64540  Biso   1.000  O
  C14      1.0000 0.04380  0.98150  0.49620  Biso   1.000  C
  H7       1.0000 0.08560  0.02580  0.49820  Biso   1.000  H
  Er8      1.0000 0.61801  0.31392  0.40641  Biso   1.000  Er
  S15      1.0000 0.60482  0.28146  0.16307  Biso   1.000  S
  S16      1.0000 0.68953  0.14908  0.57090  Biso   1.000  S
  O78      1.0000 0.55650  0.43730  0.39930  Biso   1.000  O
  O79      1.0000 0.60070  0.35970  0.22430  Biso   1.000  O
  O80      1.0000 0.58270  0.35360  0.57350  Biso   1.000  O
  O81      1.0000 0.52200  0.26720  0.10670  Biso   1.000  O
  O82      1.0000 0.63760  0.19490  0.49340  Biso   1.000  O
  O83      1.0000 0.61920  0.21950  0.24870  Biso   1.000  O
  O84      1.0000 0.57450  0.45710  0.68340  Biso   1.000  O
  O85      1.0000 0.67400  0.28200  0.08850  Biso   1.000  O
  O86      1.0000 0.76260  0.11160  0.51890  Biso   1.000  O
  C15      1.0000 0.56600  0.42650  0.59120  Biso   1.000  C
  O87      1.0000 0.63480  0.09400  0.62280  Biso   1.000  O
  O88      1.0000 0.73570  0.20370  0.64540  Biso   1.000  O
  C16      1.0000 0.54380  0.48150  0.49620  Biso   1.000  C
  H8       1.0000 0.58560  0.52580  0.49820  Biso   1.000  H
  Fe1      1.0000 0.00000  0.04728  0.75000  Biso   1.000  Fe
  Fe2      1.0000 0.50000  0.54728  0.75000  Biso   1.000  Fe
  Fe3      1.0000 0.00000  0.95272  0.25000  Biso   1.000  Fe
  Fe4      1.0000 0.50000  0.45272  0.25000  Biso   1.000  Fe
