data_image0
_cell_length_a       15.414
_cell_length_b       11.877
_cell_length_c       24.154
_cell_angle_alpha    90
_cell_angle_beta     90
_cell_angle_gamma    90

_symmetry_space_group_name_H-M    "P 1"
_symmetry_int_tables_number       1

loop_
  _symmetry_equiv_pos_as_xyz
  'x, y, z'

loop_
  _atom_site_label
  _atom_site_occupancy
  _atom_site_fract_x
  _atom_site_fract_y
  _atom_site_fract_z
  _atom_site_thermal_displace_type
  _atom_site_B_iso_or_equiv
  _atom_site_type_symbol
  Co1      1.0000 0.55003  0.35951  0.62469  Biso   1.000  Co
  O1       1.0000 0.42830  0.54630  0.56845  Biso   1.000  O
  O2       1.0000 0.46910  0.48100  0.65159  Biso   1.000  O
  O3       1.0000 0.35600  0.90150  0.79954  Biso   1.000  O
  O4       1.0000 0.44580  0.75960  0.80559  Biso   1.000  O
  O5       1.0000 0.39440  0.54740  0.44396  Biso   1.000  O
  O6       1.0000 0.33340  0.70130  0.41325  Biso   1.000  O
  O7       1.0000 0.05580  0.84160  0.50050  Biso   1.000  O
  O8       1.0000 0.02880  0.75840  0.58232  Biso   1.000  O
  C1       1.0000 0.38190  0.64550  0.64770  Biso   1.000  C
  C2       1.0000 0.40200  0.68080  0.70000  Biso   1.000  C
  H1       1.0000 0.44330  0.64150  0.72030  Biso   1.000  H
  C3       1.0000 0.36220  0.77400  0.72350  Biso   1.000  C
  C4       1.0000 0.29950  0.83010  0.69350  Biso   1.000  C
  H2       1.0000 0.27260  0.89310  0.70860  Biso   1.000  H
  C5       1.0000 0.27610  0.79360  0.64120  Biso   1.000  C
  H3       1.0000 0.23280  0.83100  0.62170  Biso   1.000  H
  C6       1.0000 0.31690  0.70200  0.61790  Biso   1.000  C
  H4       1.0000 0.30150  0.67770  0.58260  Biso   1.000  H
  C7       1.0000 0.42980  0.55010  0.62020  Biso   1.000  C
  C8       1.0000 0.38940  0.81540  0.77950  Biso   1.000  C
  C9       1.0000 0.25450  0.59780  0.47960  Biso   1.000  C
  C10      1.0000 0.19560  0.68310  0.48780  Biso   1.000  C
  H5       1.0000 0.20450  0.75230  0.47070  Biso   1.000  H
  C11      1.0000 0.12300  0.66800  0.52110  Biso   1.000  C
  C12      1.0000 0.10760  0.56160  0.54240  Biso   1.000  C
  H6       1.0000 0.05810  0.54860  0.56350  Biso   1.000  H
  C13      1.0000 0.16490  0.47500  0.53260  Biso   1.000  C
  H7       1.0000 0.15360  0.40370  0.54670  Biso   1.000  H
  C14      1.0000 0.23960  0.49350  0.50180  Biso   1.000  C
  H8       1.0000 0.27910  0.43550  0.49620  Biso   1.000  H
  C15      1.0000 0.33120  0.61810  0.44450  Biso   1.000  C
  C16      1.0000 0.06260  0.76320  0.53470  Biso   1.000  C
  Co2      1.0000 0.94997  0.64049  0.12469  Biso   1.000  Co
  O9       1.0000 0.07170  0.45370  0.06845  Biso   1.000  O
  O10      1.0000 0.03090  0.51900  0.15159  Biso   1.000  O
  O11      1.0000 0.14400  0.09850  0.29954  Biso   1.000  O
  O12      1.0000 0.05420  0.24040  0.30559  Biso   1.000  O
  O13      1.0000 0.10560  0.45260  0.94396  Biso   1.000  O
  O14      1.0000 0.16660  0.29870  0.91325  Biso   1.000  O
  O15      1.0000 0.44420  0.15840  0.00050  Biso   1.000  O
  O16      1.0000 0.47120  0.24160  0.08232  Biso   1.000  O
  C17      1.0000 0.11810  0.35450  0.14770  Biso   1.000  C
  C18      1.0000 0.09800  0.31920  0.20000  Biso   1.000  C
  H9       1.0000 0.05670  0.35850  0.22030  Biso   1.000  H
  C19      1.0000 0.13780  0.22600  0.22350  Biso   1.000  C
  C20      1.0000 0.20050  0.16990  0.19350  Biso   1.000  C
  H10      1.0000 0.22740  0.10690  0.20860  Biso   1.000  H
  C21      1.0000 0.22390  0.20640  0.14120  Biso   1.000  C
  H11      1.0000 0.26720  0.16900  0.12170  Biso   1.000  H
  C22      1.0000 0.18310  0.29800  0.11790  Biso   1.000  C
  H12      1.0000 0.19850  0.32230  0.08260  Biso   1.000  H
  C23      1.0000 0.07020  0.44990  0.12020  Biso   1.000  C
  C24      1.0000 0.11060  0.18460  0.27950  Biso   1.000  C
  C25      1.0000 0.24550  0.40220  0.97960  Biso   1.000  C
  C26      1.0000 0.30440  0.31690  0.98780  Biso   1.000  C
  H13      1.0000 0.29550  0.24770  0.97070  Biso   1.000  H
  C27      1.0000 0.37700  0.33200  0.02110  Biso   1.000  C
  C28      1.0000 0.39240  0.43840  0.04240  Biso   1.000  C
  H14      1.0000 0.44190  0.45140  0.06350  Biso   1.000  H
  C29      1.0000 0.33510  0.52500  0.03260  Biso   1.000  C
  H15      1.0000 0.34640  0.59630  0.04670  Biso   1.000  H
  C30      1.0000 0.26040  0.50650  0.00180  Biso   1.000  C
  H16      1.0000 0.22090  0.56450  0.99620  Biso   1.000  H
  C31      1.0000 0.16880  0.38190  0.94450  Biso   1.000  C
  C32      1.0000 0.43740  0.23680  0.03470  Biso   1.000  C
  Co3      1.0000 0.44997  0.85951  0.87531  Biso   1.000  Co
  O17      1.0000 0.57170  0.04630  0.93155  Biso   1.000  O
  O18      1.0000 0.53090  0.98100  0.84841  Biso   1.000  O
  O19      1.0000 0.64400  0.40150  0.70046  Biso   1.000  O
  O20      1.0000 0.55420  0.25960  0.69441  Biso   1.000  O
  O21      1.0000 0.60560  0.04740  0.05604  Biso   1.000  O
  O22      1.0000 0.66660  0.20130  0.08675  Biso   1.000  O
  O23      1.0000 0.94420  0.34160  0.99950  Biso   1.000  O
  O24      1.0000 0.97120  0.25840  0.91768  Biso   1.000  O
  C33      1.0000 0.61810  0.14550  0.85230  Biso   1.000  C
  C34      1.0000 0.59800  0.18080  0.80000  Biso   1.000  C
  H17      1.0000 0.55670  0.14150  0.77970  Biso   1.000  H
  C35      1.0000 0.63780  0.27400  0.77650  Biso   1.000  C
  C36      1.0000 0.70050  0.33010  0.80650  Biso   1.000  C
  H18      1.0000 0.72740  0.39310  0.79140  Biso   1.000  H
  C37      1.0000 0.72390  0.29360  0.85880  Biso   1.000  C
  H19      1.0000 0.76720  0.33100  0.87830  Biso   1.000  H
  C38      1.0000 0.68310  0.20200  0.88210  Biso   1.000  C
  H20      1.0000 0.69850  0.17770  0.91740  Biso   1.000  H
  C39      1.0000 0.57020  0.05010  0.87980  Biso   1.000  C
  C40      1.0000 0.61060  0.31540  0.72050  Biso   1.000  C
  C41      1.0000 0.74550  0.09780  0.02040  Biso   1.000  C
  C42      1.0000 0.80440  0.18310  0.01220  Biso   1.000  C
  H21      1.0000 0.79550  0.25230  0.02930  Biso   1.000  H
  C43      1.0000 0.87700  0.16800  0.97890  Biso   1.000  C
  C44      1.0000 0.89240  0.06160  0.95760  Biso   1.000  C
  H22      1.0000 0.94190  0.04860  0.93650  Biso   1.000  H
  C45      1.0000 0.83510  0.97500  0.96740  Biso   1.000  C
  H23      1.0000 0.84640  0.90370  0.95330  Biso   1.000  H
  C46      1.0000 0.76040  0.99350  0.99820  Biso   1.000  C
  H24      1.0000 0.72090  0.93550  0.00380  Biso   1.000  H
  C47      1.0000 0.66880  0.11810  0.05550  Biso   1.000  C
  C48      1.0000 0.93740  0.26320  0.96530  Biso   1.000  C
  Co4      1.0000 0.05003  0.14049  0.37531  Biso   1.000  Co
  O25      1.0000 0.92830  0.95370  0.43155  Biso   1.000  O
  O26      1.0000 0.96910  0.01900  0.34841  Biso   1.000  O
  O27      1.0000 0.85600  0.59850  0.20046  Biso   1.000  O
  O28      1.0000 0.94580  0.74040  0.19441  Biso   1.000  O
  O29      1.0000 0.89440  0.95260  0.55604  Biso   1.000  O
  O30      1.0000 0.83340  0.79870  0.58675  Biso   1.000  O
  O31      1.0000 0.55580  0.65840  0.49950  Biso   1.000  O
  O32      1.0000 0.52880  0.74160  0.41768  Biso   1.000  O
  C49      1.0000 0.88190  0.85450  0.35230  Biso   1.000  C
  C50      1.0000 0.90200  0.81920  0.30000  Biso   1.000  C
  H25      1.0000 0.94330  0.85850  0.27970  Biso   1.000  H
  C51      1.0000 0.86220  0.72600  0.27650  Biso   1.000  C
  C52      1.0000 0.79950  0.66990  0.30650  Biso   1.000  C
  H26      1.0000 0.77260  0.60690  0.29140  Biso   1.000  H
  C53      1.0000 0.77610  0.70640  0.35880  Biso   1.000  C
  H27      1.0000 0.73280  0.66900  0.37830  Biso   1.000  H
  C54      1.0000 0.81690  0.79800  0.38210  Biso   1.000  C
  H28      1.0000 0.80150  0.82230  0.41740  Biso   1.000  H
  C55      1.0000 0.92980  0.94990  0.37980  Biso   1.000  C
  C56      1.0000 0.88940  0.68460  0.22050  Biso   1.000  C
  C57      1.0000 0.75450  0.90220  0.52040  Biso   1.000  C
  C58      1.0000 0.69560  0.81690  0.51220  Biso   1.000  C
  H29      1.0000 0.70450  0.74770  0.52930  Biso   1.000  H
  C59      1.0000 0.62300  0.83200  0.47890  Biso   1.000  C
  C60      1.0000 0.60760  0.93840  0.45760  Biso   1.000  C
  H30      1.0000 0.55810  0.95140  0.43650  Biso   1.000  H
  C61      1.0000 0.66490  0.02500  0.46740  Biso   1.000  C
  H31      1.0000 0.65360  0.09630  0.45330  Biso   1.000  H
  C62      1.0000 0.73960  0.00650  0.49820  Biso   1.000  C
  H32      1.0000 0.77910  0.06450  0.50380  Biso   1.000  H
  C63      1.0000 0.83120  0.88190  0.55550  Biso   1.000  C
  C64      1.0000 0.56260  0.73680  0.46530  Biso   1.000  C
  Co5      1.0000 0.44997  0.64049  0.37531  Biso   1.000  Co
  O33      1.0000 0.57170  0.45370  0.43155  Biso   1.000  O
  O34      1.0000 0.53090  0.51900  0.34841  Biso   1.000  O
  O35      1.0000 0.64400  0.09850  0.20046  Biso   1.000  O
  O36      1.0000 0.55420  0.24040  0.19441  Biso   1.000  O
  O37      1.0000 0.60560  0.45260  0.55604  Biso   1.000  O
  O38      1.0000 0.66660  0.29870  0.58675  Biso   1.000  O
  O39      1.0000 0.94420  0.15840  0.49950  Biso   1.000  O
  O40      1.0000 0.97120  0.24160  0.41768  Biso   1.000  O
  C65      1.0000 0.61810  0.35450  0.35230  Biso   1.000  C
  C66      1.0000 0.59800  0.31920  0.30000  Biso   1.000  C
  H33      1.0000 0.55670  0.35850  0.27970  Biso   1.000  H
  C67      1.0000 0.63780  0.22600  0.27650  Biso   1.000  C
  C68      1.0000 0.70050  0.16990  0.30650  Biso   1.000  C
  H34      1.0000 0.72740  0.10690  0.29140  Biso   1.000  H
  C69      1.0000 0.72390  0.20640  0.35880  Biso   1.000  C
  H35      1.0000 0.76720  0.16900  0.37830  Biso   1.000  H
  C70      1.0000 0.68310  0.29800  0.38210  Biso   1.000  C
  H36      1.0000 0.69850  0.32230  0.41740  Biso   1.000  H
  C71      1.0000 0.57020  0.44990  0.37980  Biso   1.000  C
  C72      1.0000 0.61060  0.18460  0.22050  Biso   1.000  C
  C73      1.0000 0.74550  0.40220  0.52040  Biso   1.000  C
  C74      1.0000 0.80440  0.31690  0.51220  Biso   1.000  C
  H37      1.0000 0.79550  0.24770  0.52930  Biso   1.000  H
  C75      1.0000 0.87700  0.33200  0.47890  Biso   1.000  C
  C76      1.0000 0.89240  0.43840  0.45760  Biso   1.000  C
  H38      1.0000 0.94190  0.45140  0.43650  Biso   1.000  H
  C77      1.0000 0.83510  0.52500  0.46740  Biso   1.000  C
  H39      1.0000 0.84640  0.59630  0.45330  Biso   1.000  H
  C78      1.0000 0.76040  0.50650  0.49820  Biso   1.000  C
  H40      1.0000 0.72090  0.56450  0.50380  Biso   1.000  H
  C79      1.0000 0.66880  0.38190  0.55550  Biso   1.000  C
  C80      1.0000 0.93740  0.23680  0.46530  Biso   1.000  C
  Co6      1.0000 0.05003  0.35951  0.87531  Biso   1.000  Co
  O41      1.0000 0.92830  0.54630  0.93155  Biso   1.000  O
  O42      1.0000 0.96910  0.48100  0.84841  Biso   1.000  O
  O43      1.0000 0.85600  0.90150  0.70046  Biso   1.000  O
  O44      1.0000 0.94580  0.75960  0.69441  Biso   1.000  O
  O45      1.0000 0.89440  0.54740  0.05604  Biso   1.000  O
  O46      1.0000 0.83340  0.70130  0.08675  Biso   1.000  O
  O47      1.0000 0.55580  0.84160  0.99950  Biso   1.000  O
  O48      1.0000 0.52880  0.75840  0.91768  Biso   1.000  O
  C81      1.0000 0.88190  0.64550  0.85230  Biso   1.000  C
  C82      1.0000 0.90200  0.68080  0.80000  Biso   1.000  C
  H41      1.0000 0.94330  0.64150  0.77970  Biso   1.000  H
  C83      1.0000 0.86220  0.77400  0.77650  Biso   1.000  C
  C84      1.0000 0.79950  0.83010  0.80650  Biso   1.000  C
  H42      1.0000 0.77260  0.89310  0.79140  Biso   1.000  H
  C85      1.0000 0.77610  0.79360  0.85880  Biso   1.000  C
  H43      1.0000 0.73280  0.83100  0.87830  Biso   1.000  H
  C86      1.0000 0.81690  0.70200  0.88210  Biso   1.000  C
  H44      1.0000 0.80150  0.67770  0.91740  Biso   1.000  H
  C87      1.0000 0.92980  0.55010  0.87980  Biso   1.000  C
  C88      1.0000 0.88940  0.81540  0.72050  Biso   1.000  C
  C89      1.0000 0.75450  0.59780  0.02040  Biso   1.000  C
  C90      1.0000 0.69560  0.68310  0.01220  Biso   1.000  C
  H45      1.0000 0.70450  0.75230  0.02930  Biso   1.000  H
  C91      1.0000 0.62300  0.66800  0.97890  Biso   1.000  C
  C92      1.0000 0.60760  0.56160  0.95760  Biso   1.000  C
  H46      1.0000 0.55810  0.54860  0.93650  Biso   1.000  H
  C93      1.0000 0.66490  0.47500  0.96740  Biso   1.000  C
  H47      1.0000 0.65360  0.40370  0.95330  Biso   1.000  H
  C94      1.0000 0.73960  0.49350  0.99820  Biso   1.000  C
  H48      1.0000 0.77910  0.43550  0.00380  Biso   1.000  H
  C95      1.0000 0.83120  0.61810  0.05550  Biso   1.000  C
  C96      1.0000 0.56260  0.76320  0.96530  Biso   1.000  C
  Co7      1.0000 0.55003  0.14049  0.12469  Biso   1.000  Co
  O49      1.0000 0.42830  0.95370  0.06845  Biso   1.000  O
  O50      1.0000 0.46910  0.01900  0.15159  Biso   1.000  O
  O51      1.0000 0.35600  0.59850  0.29954  Biso   1.000  O
  O52      1.0000 0.44580  0.74040  0.30559  Biso   1.000  O
  O53      1.0000 0.39440  0.95260  0.94396  Biso   1.000  O
  O54      1.0000 0.33340  0.79870  0.91325  Biso   1.000  O
  O55      1.0000 0.05580  0.65840  0.00050  Biso   1.000  O
  O56      1.0000 0.02880  0.74160  0.08232  Biso   1.000  O
  C97      1.0000 0.38190  0.85450  0.14770  Biso   1.000  C
  C98      1.0000 0.40200  0.81920  0.20000  Biso   1.000  C
  H49      1.0000 0.44330  0.85850  0.22030  Biso   1.000  H
  C99      1.0000 0.36220  0.72600  0.22350  Biso   1.000  C
  C100     1.0000 0.29950  0.66990  0.19350  Biso   1.000  C
  H50      1.0000 0.27260  0.60690  0.20860  Biso   1.000  H
  C101     1.0000 0.27610  0.70640  0.14120  Biso   1.000  C
  H51      1.0000 0.23280  0.66900  0.12170  Biso   1.000  H
  C102     1.0000 0.31690  0.79800  0.11790  Biso   1.000  C
  H52      1.0000 0.30150  0.82230  0.08260  Biso   1.000  H
  C103     1.0000 0.42980  0.94990  0.12020  Biso   1.000  C
  C104     1.0000 0.38940  0.68460  0.27950  Biso   1.000  C
  C105     1.0000 0.25450  0.90220  0.97960  Biso   1.000  C
  C106     1.0000 0.19560  0.81690  0.98780  Biso   1.000  C
  H53      1.0000 0.20450  0.74770  0.97070  Biso   1.000  H
  C107     1.0000 0.12300  0.83200  0.02110  Biso   1.000  C
  C108     1.0000 0.10760  0.93840  0.04240  Biso   1.000  C
  H54      1.0000 0.05810  0.95140  0.06350  Biso   1.000  H
  C109     1.0000 0.16490  0.02500  0.03260  Biso   1.000  C
  H55      1.0000 0.15360  0.09630  0.04670  Biso   1.000  H
  C110     1.0000 0.23960  0.00650  0.00180  Biso   1.000  C
  H56      1.0000 0.27910  0.06450  0.99620  Biso   1.000  H
  C111     1.0000 0.33120  0.88190  0.94450  Biso   1.000  C
  C112     1.0000 0.06260  0.73680  0.03470  Biso   1.000  C
  Co8      1.0000 0.94997  0.85951  0.62469  Biso   1.000  Co
  O57      1.0000 0.07170  0.04630  0.56845  Biso   1.000  O
  O58      1.0000 0.03090  0.98100  0.65159  Biso   1.000  O
  O59      1.0000 0.14400  0.40150  0.79954  Biso   1.000  O
  O60      1.0000 0.05420  0.25960  0.80559  Biso   1.000  O
  O61      1.0000 0.10560  0.04740  0.44396  Biso   1.000  O
  O62      1.0000 0.16660  0.20130  0.41325  Biso   1.000  O
  O63      1.0000 0.44420  0.34160  0.50050  Biso   1.000  O
  O64      1.0000 0.47120  0.25840  0.58232  Biso   1.000  O
  C113     1.0000 0.11810  0.14550  0.64770  Biso   1.000  C
  C114     1.0000 0.09800  0.18080  0.70000  Biso   1.000  C
  H57      1.0000 0.05670  0.14150  0.72030  Biso   1.000  H
  C115     1.0000 0.13780  0.27400  0.72350  Biso   1.000  C
  C116     1.0000 0.20050  0.33010  0.69350  Biso   1.000  C
  H58      1.0000 0.22740  0.39310  0.70860  Biso   1.000  H
  C117     1.0000 0.22390  0.29360  0.64120  Biso   1.000  C
  H59      1.0000 0.26720  0.33100  0.62170  Biso   1.000  H
  C118     1.0000 0.18310  0.20200  0.61790  Biso   1.000  C
  H60      1.0000 0.19850  0.17770  0.58260  Biso   1.000  H
  C119     1.0000 0.07020  0.05010  0.62020  Biso   1.000  C
  C120     1.0000 0.11060  0.31540  0.77950  Biso   1.000  C
  C121     1.0000 0.24550  0.09780  0.47960  Biso   1.000  C
  C122     1.0000 0.30440  0.18310  0.48780  Biso   1.000  C
  H61      1.0000 0.29550  0.25230  0.47070  Biso   1.000  H
  C123     1.0000 0.37700  0.16800  0.52110  Biso   1.000  C
  C124     1.0000 0.39240  0.06160  0.54240  Biso   1.000  C
  H62      1.0000 0.44190  0.04860  0.56350  Biso   1.000  H
  C125     1.0000 0.33510  0.97500  0.53260  Biso   1.000  C
  H63      1.0000 0.34640  0.90370  0.54670  Biso   1.000  H
  C126     1.0000 0.26040  0.99350  0.50180  Biso   1.000  C
  H64      1.0000 0.22090  0.93550  0.49620  Biso   1.000  H
  C127     1.0000 0.16880  0.11810  0.44450  Biso   1.000  C
  C128     1.0000 0.43740  0.26320  0.53470  Biso   1.000  C
  Co9      1.0000 0.50000  0.50000  0.50000  Biso   1.000  Co
  Co10     1.0000 0.00000  0.50000  0.00000  Biso   1.000  Co
  Co11     1.0000 0.50000  0.00000  0.00000  Biso   1.000  Co
  Co12     1.0000 0.00000  0.00000  0.50000  Biso   1.000  Co
