data_image0
_cell_length_a       9.1054
_cell_length_b       19.38
_cell_length_c       8.3
_cell_angle_alpha    90
_cell_angle_beta     111.2
_cell_angle_gamma    90

_symmetry_space_group_name_H-M    "P 1"
_symmetry_int_tables_number       1

loop_
  _symmetry_equiv_pos_as_xyz
  'x, y, z'

loop_
  _atom_site_label
  _atom_site_occupancy
  _atom_site_fract_x
  _atom_site_fract_y
  _atom_site_fract_z
  _atom_site_thermal_displace_type
  _atom_site_B_iso_or_equiv
  _atom_site_type_symbol
  Zn1      1.0000 0.34110  0.46146  0.96688  Biso   1.000  Zn
  O1       1.0000 0.04542  0.39825  0.58092  Biso   1.000  O
  O2       1.0000 0.20215  0.37694  0.85914  Biso   1.000  O
  O3       1.0000 0.82363  0.04278  0.49214  Biso   1.000  O
  O4       1.0000 0.00988  0.01899  0.74930  Biso   1.000  O
  N1       1.0000 0.24753  0.53462  0.57603  Biso   1.000  N
  N2       1.0000 0.34621  0.52074  0.73679  Biso   1.000  N
  N3       1.0000 0.49069  0.54546  0.75927  Biso   1.000  N
  C1       1.0000 0.10815  0.35836  0.70924  Biso   1.000  C
  C2       1.0000 0.07113  0.28081  0.68391  Biso   1.000  C
  C3       1.0000 0.94784  0.25826  0.53776  Biso   1.000  C
  H1       1.0000 0.88310  0.29804  0.44432  Biso   1.000  H
  C4       1.0000 0.90911  0.18659  0.51424  Biso   1.000  C
  H2       1.0000 0.81313  0.16863  0.40129  Biso   1.000  H
  C5       1.0000 0.99321  0.13649  0.63674  Biso   1.000  C
  C6       1.0000 0.11915  0.15898  0.77993  Biso   1.000  C
  H3       1.0000 0.17999  0.11956  0.87620  Biso   1.000  H
  C7       1.0000 0.15782  0.23065  0.80396  Biso   1.000  C
  H4       1.0000 0.25212  0.24871  0.91846  Biso   1.000  H
  C8       1.0000 0.94128  0.06084  0.62615  Biso   1.000  C
  C9       1.0000 0.32999  0.56816  0.49500  Biso   1.000  C
  H5       1.0000 0.27682  0.58390  0.36203  Biso   1.000  H
  C10      1.0000 0.48175  0.57518  0.60924  Biso   1.000  C
  H6       1.0000 0.58222  0.59938  0.59451  Biso   1.000  H
  Zn2      1.0000 0.65890  0.96146  0.53312  Biso   1.000  Zn
  O5       1.0000 0.95458  0.89825  0.91908  Biso   1.000  O
  O6       1.0000 0.79785  0.87694  0.64086  Biso   1.000  O
  O7       1.0000 0.17637  0.54278  0.00786  Biso   1.000  O
  O8       1.0000 0.99012  0.51899  0.75070  Biso   1.000  O
  N4       1.0000 0.75247  0.03462  0.92397  Biso   1.000  N
  N5       1.0000 0.65379  0.02074  0.76321  Biso   1.000  N
  N6       1.0000 0.50931  0.04546  0.74073  Biso   1.000  N
  C11      1.0000 0.89185  0.85836  0.79076  Biso   1.000  C
  C12      1.0000 0.92887  0.78081  0.81609  Biso   1.000  C
  C13      1.0000 0.05216  0.75826  0.96224  Biso   1.000  C
  H7       1.0000 0.11690  0.79804  0.05568  Biso   1.000  H
  C14      1.0000 0.09089  0.68659  0.98576  Biso   1.000  C
  H8       1.0000 0.18687  0.66863  0.09871  Biso   1.000  H
  C15      1.0000 0.00679  0.63649  0.86326  Biso   1.000  C
  C16      1.0000 0.88085  0.65898  0.72007  Biso   1.000  C
  H9       1.0000 0.82001  0.61956  0.62380  Biso   1.000  H
  C17      1.0000 0.84218  0.73065  0.69604  Biso   1.000  C
  H10      1.0000 0.74788  0.74871  0.58154  Biso   1.000  H
  C18      1.0000 0.05872  0.56084  0.87385  Biso   1.000  C
  C19      1.0000 0.67001  0.06816  0.00500  Biso   1.000  C
  H11      1.0000 0.72318  0.08390  0.13797  Biso   1.000  H
  C20      1.0000 0.51825  0.07518  0.89076  Biso   1.000  C
  H12      1.0000 0.41778  0.09938  0.90549  Biso   1.000  H
  Zn3      1.0000 0.65890  0.53854  0.03312  Biso   1.000  Zn
  O9       1.0000 0.95458  0.60175  0.41908  Biso   1.000  O
  O10      1.0000 0.79785  0.62306  0.14086  Biso   1.000  O
  O11      1.0000 0.17637  0.95722  0.50786  Biso   1.000  O
  O12      1.0000 0.99012  0.98101  0.25070  Biso   1.000  O
  N7       1.0000 0.75247  0.46538  0.42397  Biso   1.000  N
  N8       1.0000 0.65379  0.47926  0.26321  Biso   1.000  N
  N9       1.0000 0.50931  0.45454  0.24073  Biso   1.000  N
  C21      1.0000 0.89185  0.64164  0.29076  Biso   1.000  C
  C22      1.0000 0.92887  0.71919  0.31609  Biso   1.000  C
  C23      1.0000 0.05216  0.74174  0.46224  Biso   1.000  C
  H13      1.0000 0.11690  0.70196  0.55568  Biso   1.000  H
  C24      1.0000 0.09089  0.81341  0.48576  Biso   1.000  C
  H14      1.0000 0.18687  0.83137  0.59871  Biso   1.000  H
  C25      1.0000 0.00679  0.86351  0.36326  Biso   1.000  C
  C26      1.0000 0.88085  0.84102  0.22007  Biso   1.000  C
  H15      1.0000 0.82001  0.88044  0.12380  Biso   1.000  H
  C27      1.0000 0.84218  0.76935  0.19604  Biso   1.000  C
  H16      1.0000 0.74788  0.75129  0.08154  Biso   1.000  H
  C28      1.0000 0.05872  0.93916  0.37385  Biso   1.000  C
  C29      1.0000 0.67001  0.43184  0.50500  Biso   1.000  C
  H17      1.0000 0.72318  0.41610  0.63797  Biso   1.000  H
  C30      1.0000 0.51825  0.42482  0.39076  Biso   1.000  C
  H18      1.0000 0.41778  0.40062  0.40549  Biso   1.000  H
  Zn4      1.0000 0.34110  0.03854  0.46688  Biso   1.000  Zn
  O13      1.0000 0.04542  0.10175  0.08092  Biso   1.000  O
  O14      1.0000 0.20215  0.12306  0.35914  Biso   1.000  O
  O15      1.0000 0.82363  0.45722  0.99214  Biso   1.000  O
  O16      1.0000 0.00988  0.48101  0.24930  Biso   1.000  O
  N10      1.0000 0.24753  0.96538  0.07603  Biso   1.000  N
  N11      1.0000 0.34621  0.97926  0.23679  Biso   1.000  N
  N12      1.0000 0.49069  0.95454  0.25927  Biso   1.000  N
  C31      1.0000 0.10815  0.14164  0.20924  Biso   1.000  C
  C32      1.0000 0.07113  0.21919  0.18391  Biso   1.000  C
  C33      1.0000 0.94784  0.24174  0.03776  Biso   1.000  C
  H19      1.0000 0.88310  0.20196  0.94432  Biso   1.000  H
  C34      1.0000 0.90911  0.31341  0.01424  Biso   1.000  C
  H20      1.0000 0.81313  0.33137  0.90129  Biso   1.000  H
  C35      1.0000 0.99321  0.36351  0.13674  Biso   1.000  C
  C36      1.0000 0.11915  0.34102  0.27993  Biso   1.000  C
  H21      1.0000 0.17999  0.38044  0.37620  Biso   1.000  H
  C37      1.0000 0.15782  0.26935  0.30396  Biso   1.000  C
  H22      1.0000 0.25212  0.25129  0.41846  Biso   1.000  H
  C38      1.0000 0.94128  0.43916  0.12615  Biso   1.000  C
  C39      1.0000 0.32999  0.93184  0.99500  Biso   1.000  C
  H23      1.0000 0.27682  0.91610  0.86203  Biso   1.000  H
  C40      1.0000 0.48175  0.92482  0.10924  Biso   1.000  C
  H24      1.0000 0.58222  0.90062  0.09451  Biso   1.000  H
  Zn5      1.0000 0.00000  0.50000  0.50000  Biso   1.000  Zn
  Zn6      1.0000 0.00000  0.00000  0.00000  Biso   1.000  Zn
