data_image0
_cell_length_a       12.1277
_cell_length_b       13.1644
_cell_length_c       13.1644
_cell_angle_alpha    100.135
_cell_angle_beta     106.875
_cell_angle_gamma    106.875

_symmetry_space_group_name_H-M    P 1
_symmetry_int_tables_number       1

loop_
  _symmetry_equiv_pos_as_xyz
  'x, y, z'

loop_
  _atom_site_label
  _atom_site_occupancy
  _atom_site_fract_x
  _atom_site_fract_y
  _atom_site_fract_z
  _atom_site_thermal_displace_type
  _atom_site_B_iso_or_equiv
  _atom_site_type_symbol
  Co1      1.0000 0.62234  0.16531  0.72617  Biso   1.000  Co
  Co2      1.0000 0.87766  0.27383  0.83469  Biso   1.000  Co
  Co3      1.0000 0.37766  0.83469  0.27383  Biso   1.000  Co
  Co4      1.0000 0.12234  0.72617  0.16531  Biso   1.000  Co
  H1       1.0000 0.89590  0.28360  0.17740  Biso   1.000  H
  H2       1.0000 0.98650  0.30090  0.37930  Biso   1.000  H
  H3       1.0000 0.95950  0.28060  0.53940  Biso   1.000  H
  H4       1.0000 0.59260  0.13600  0.37940  Biso   1.000  H
  H5       1.0000 0.50400  0.10100  0.17400  Biso   1.000  H
  H6       1.0000 0.53100  0.12340  0.01400  Biso   1.000  H
  H7       1.0000 0.41000  0.11610  0.80770  Biso   1.000  H
  H8       1.0000 0.20030  0.05970  0.74630  Biso   1.000  H
  H9       1.0000 0.19640  0.03320  0.43860  Biso   1.000  H
  H10      1.0000 0.40870  0.08890  0.50830  Biso   1.000  H
  H11      1.0000 0.00320  0.99910  0.60270  Biso   1.000  H
  H12      1.0000 0.60410  0.82260  0.71640  Biso   1.000  H
  H13      1.0000 0.51350  0.62070  0.69910  Biso   1.000  H
  H14      1.0000 0.54050  0.46060  0.71940  Biso   1.000  H
  H15      1.0000 0.90740  0.62060  0.86400  Biso   1.000  H
  H16      1.0000 0.99600  0.82600  0.89900  Biso   1.000  H
  H17      1.0000 0.96900  0.98600  0.87660  Biso   1.000  H
  H18      1.0000 0.09000  0.19230  0.88390  Biso   1.000  H
  H19      1.0000 0.29970  0.25370  0.94030  Biso   1.000  H
  H20      1.0000 0.30360  0.56140  0.96680  Biso   1.000  H
  H21      1.0000 0.09130  0.49170  0.91110  Biso   1.000  H
  H22      1.0000 0.49680  0.39730  0.00090  Biso   1.000  H
  H23      1.0000 0.10410  0.71640  0.82260  Biso   1.000  H
  H24      1.0000 0.01350  0.69910  0.62070  Biso   1.000  H
  H25      1.0000 0.04050  0.71940  0.46060  Biso   1.000  H
  H26      1.0000 0.40740  0.86400  0.62060  Biso   1.000  H
  H27      1.0000 0.49600  0.89900  0.82600  Biso   1.000  H
  H28      1.0000 0.46900  0.87660  0.98600  Biso   1.000  H
  H29      1.0000 0.59000  0.88390  0.19230  Biso   1.000  H
  H30      1.0000 0.79970  0.94030  0.25370  Biso   1.000  H
  H31      1.0000 0.80360  0.96680  0.56140  Biso   1.000  H
  H32      1.0000 0.59130  0.91110  0.49170  Biso   1.000  H
  H33      1.0000 0.99680  0.00090  0.39730  Biso   1.000  H
  H34      1.0000 0.39590  0.17740  0.28360  Biso   1.000  H
  H35      1.0000 0.48650  0.37930  0.30090  Biso   1.000  H
  H36      1.0000 0.45950  0.53940  0.28060  Biso   1.000  H
  H37      1.0000 0.09260  0.37940  0.13600  Biso   1.000  H
  H38      1.0000 0.00400  0.17400  0.10100  Biso   1.000  H
  H39      1.0000 0.03100  0.01400  0.12340  Biso   1.000  H
  H40      1.0000 0.91000  0.80770  0.11610  Biso   1.000  H
  H41      1.0000 0.70030  0.74630  0.05970  Biso   1.000  H
  H42      1.0000 0.69640  0.43860  0.03320  Biso   1.000  H
  H43      1.0000 0.90870  0.50830  0.08890  Biso   1.000  H
  H44      1.0000 0.50320  0.60270  0.99910  Biso   1.000  H
  C1       1.0000 0.71790  0.20861  0.08035  Biso   1.000  C
  C2       1.0000 0.81780  0.24712  0.17748  Biso   1.000  C
  C3       1.0000 0.80470  0.23237  0.27763  Biso   1.000  C
  C4       1.0000 0.90700  0.26871  0.37869  Biso   1.000  C
  C5       1.0000 0.89100  0.25717  0.47423  Biso   1.000  C
  C6       1.0000 0.77060  0.20994  0.47594  Biso   1.000  C
  C7       1.0000 0.67100  0.17021  0.37879  Biso   1.000  C
  C8       1.0000 0.68440  0.17984  0.27774  Biso   1.000  C
  C9       1.0000 0.58280  0.13814  0.17566  Biso   1.000  C
  C10      1.0000 0.59880  0.15169  0.08011  Biso   1.000  C
  C11      1.0000 0.73330  0.22160  0.97390  Biso   1.000  C
  C12      1.0000 0.75470  0.20511  0.58355  Biso   1.000  C
  C13      1.0000 0.36660  0.09958  0.73222  Biso   1.000  C
  C14      1.0000 0.24050  0.06620  0.69620  Biso   1.000  C
  C15      1.0000 0.17340  0.04212  0.58508  Biso   1.000  C
  C16      1.0000 0.23830  0.05027  0.51433  Biso   1.000  C
  C17      1.0000 0.36640  0.08415  0.55705  Biso   1.000  C
  C18      1.0000 0.03760  0.00860  0.54880  Biso   1.000  C
  C19      1.0000 0.78210  0.91965  0.79139  Biso   1.000  C
  C20      1.0000 0.68220  0.82252  0.75288  Biso   1.000  C
  C21      1.0000 0.69530  0.72237  0.76763  Biso   1.000  C
  C22      1.0000 0.59300  0.62131  0.73129  Biso   1.000  C
  C23      1.0000 0.60900  0.52577  0.74283  Biso   1.000  C
  C24      1.0000 0.72940  0.52406  0.79006  Biso   1.000  C
  C25      1.0000 0.82900  0.62121  0.82979  Biso   1.000  C
  C26      1.0000 0.81560  0.72226  0.82016  Biso   1.000  C
  C27      1.0000 0.91720  0.82434  0.86186  Biso   1.000  C
  C28      1.0000 0.90120  0.91989  0.84831  Biso   1.000  C
  C29      1.0000 0.76670  0.02610  0.77840  Biso   1.000  C
  C30      1.0000 0.74530  0.41645  0.79489  Biso   1.000  C
  C31      1.0000 0.13340  0.26778  0.90042  Biso   1.000  C
  C32      1.0000 0.25950  0.30380  0.93380  Biso   1.000  C
  C33      1.0000 0.32660  0.41492  0.95788  Biso   1.000  C
  C34      1.0000 0.26170  0.48567  0.94973  Biso   1.000  C
  C35      1.0000 0.13360  0.44295  0.91585  Biso   1.000  C
  C36      1.0000 0.46240  0.45120  0.99140  Biso   1.000  C
  C37      1.0000 0.28210  0.79139  0.91965  Biso   1.000  C
  C38      1.0000 0.18220  0.75288  0.82252  Biso   1.000  C
  C39      1.0000 0.19530  0.76763  0.72237  Biso   1.000  C
  C40      1.0000 0.09300  0.73129  0.62131  Biso   1.000  C
  C41      1.0000 0.10900  0.74283  0.52577  Biso   1.000  C
  C42      1.0000 0.22940  0.79006  0.52406  Biso   1.000  C
  C43      1.0000 0.32900  0.82979  0.62121  Biso   1.000  C
  C44      1.0000 0.31560  0.82016  0.72226  Biso   1.000  C
  C45      1.0000 0.41720  0.86186  0.82434  Biso   1.000  C
  C46      1.0000 0.40120  0.84831  0.91989  Biso   1.000  C
  C47      1.0000 0.26670  0.77840  0.02610  Biso   1.000  C
  C48      1.0000 0.24530  0.79489  0.41645  Biso   1.000  C
  C49      1.0000 0.63340  0.90042  0.26778  Biso   1.000  C
  C50      1.0000 0.75950  0.93380  0.30380  Biso   1.000  C
  C51      1.0000 0.82660  0.95788  0.41492  Biso   1.000  C
  C52      1.0000 0.76170  0.94973  0.48567  Biso   1.000  C
  C53      1.0000 0.63360  0.91585  0.44295  Biso   1.000  C
  C54      1.0000 0.96240  0.99140  0.45120  Biso   1.000  C
  C55      1.0000 0.21790  0.08035  0.20861  Biso   1.000  C
  C56      1.0000 0.31780  0.17748  0.24712  Biso   1.000  C
  C57      1.0000 0.30470  0.27763  0.23237  Biso   1.000  C
  C58      1.0000 0.40700  0.37869  0.26871  Biso   1.000  C
  C59      1.0000 0.39100  0.47423  0.25717  Biso   1.000  C
  C60      1.0000 0.27060  0.47594  0.20994  Biso   1.000  C
  C61      1.0000 0.17100  0.37879  0.17021  Biso   1.000  C
  C62      1.0000 0.18440  0.27774  0.17984  Biso   1.000  C
  C63      1.0000 0.08280  0.17566  0.13814  Biso   1.000  C
  C64      1.0000 0.09880  0.08011  0.15169  Biso   1.000  C
  C65      1.0000 0.23330  0.97390  0.22160  Biso   1.000  C
  C66      1.0000 0.25470  0.58355  0.20511  Biso   1.000  C
  C67      1.0000 0.86660  0.73222  0.09958  Biso   1.000  C
  C68      1.0000 0.74050  0.69620  0.06620  Biso   1.000  C
  C69      1.0000 0.67340  0.58508  0.04212  Biso   1.000  C
  C70      1.0000 0.73830  0.51433  0.05027  Biso   1.000  C
  C71      1.0000 0.86640  0.55705  0.08415  Biso   1.000  C
  C72      1.0000 0.53760  0.54880  0.00860  Biso   1.000  C
  N1       1.0000 0.43110  0.11007  0.66511  Biso   1.000  N
  N2       1.0000 0.06890  0.33489  0.88993  Biso   1.000  N
  N3       1.0000 0.56890  0.88993  0.33489  Biso   1.000  N
  N4       1.0000 0.93110  0.66511  0.11007  Biso   1.000  N
  O1       1.0000 0.63703  0.18160  0.88824  Biso   1.000  O
  O2       1.0000 0.84070  0.26957  0.97607  Biso   1.000  O
  O3       1.0000 0.64635  0.16344  0.58160  Biso   1.000  O
  O4       1.0000 0.85090  0.24350  0.66956  Biso   1.000  O
  O5       1.0000 0.86297  0.11176  0.81840  Biso   1.000  O
  O6       1.0000 0.65930  0.02393  0.73043  Biso   1.000  O
  O7       1.0000 0.85365  0.41840  0.83656  Biso   1.000  O
  O8       1.0000 0.64910  0.33044  0.75650  Biso   1.000  O
  O9       1.0000 0.36297  0.81840  0.11176  Biso   1.000  O
  O10      1.0000 0.15930  0.73043  0.02393  Biso   1.000  O
  O11      1.0000 0.35365  0.83656  0.41840  Biso   1.000  O
  O12      1.0000 0.14910  0.75650  0.33044  Biso   1.000  O
  O13      1.0000 0.13703  0.88824  0.18160  Biso   1.000  O
  O14      1.0000 0.34070  0.97607  0.26957  Biso   1.000  O
  O15      1.0000 0.14635  0.58160  0.16344  Biso   1.000  O
  O16      1.0000 0.35090  0.66956  0.24350  Biso   1.000  O
