data_DAJHOM_clean5b
_audit_creation_date              2014-07-02
_audit_creation_method            'Materials Studio'
_symmetry_space_group_name_H-M    'P1'
_symmetry_Int_Tables_number       1
_symmetry_cell_setting            triclinic
loop_
_symmetry_equiv_pos_as_xyz
  x,y,z
_cell_length_a                    13.1717
_cell_length_b                    13.1901
_cell_length_c                    16.2347
_cell_angle_alpha                 97.2930
_cell_angle_beta                  94.4370
_cell_angle_gamma                 90.5230
loop_
_atom_site_label
_atom_site_type_symbol
_atom_site_fract_x
_atom_site_fract_y
_atom_site_fract_z
_atom_site_U_iso_or_equiv
_atom_site_adp_type
_atom_site_occupancy
Co1    Co    0.99773   0.00508   0.58591   0.01267  Uiso   1.00
Co2    Co    0.00227   0.99492   0.41409   0.01267  Uiso   1.00
H1     H     0.17390   0.01938   0.72177   0.01267  Uiso   1.00
H2     H     0.19261   0.02594   0.87856   0.01267  Uiso   1.00
H3     H     0.86002   0.01429   0.87421   0.01267  Uiso   1.00
H4     H     0.85171   0.00986   0.71887   0.01267  Uiso   1.00
H5     H     0.11373   0.03231   0.01474   0.01267  Uiso   1.00
H6     H     0.32784   0.01807   0.38927   0.01267  Uiso   1.00
H7     H     0.49748   0.03340   0.33074   0.01267  Uiso   1.00
H8     H     0.31543   0.96710   0.65029   0.01267  Uiso   1.00
H9     H     0.94939   0.67828   0.60045   0.01267  Uiso   1.00
H10    H     0.91505   0.51469   0.65630   0.01267  Uiso   1.00
H11    H     0.07033   0.67263   0.35573   0.01267  Uiso   1.00
H12    H     0.82610   0.98062   0.27823   0.01267  Uiso   1.00
H13    H     0.80739   0.97406   0.12144   0.01267  Uiso   1.00
H14    H     0.13998   0.98571   0.12579   0.01267  Uiso   1.00
H15    H     0.14829   0.99014   0.28113   0.01267  Uiso   1.00
H16    H     0.88627   0.96769   0.98526   0.01267  Uiso   1.00
H17    H     0.67216   0.98193   0.61073   0.01267  Uiso   1.00
H18    H     0.50252   0.96660   0.66926   0.01267  Uiso   1.00
H19    H     0.68540   0.03283   0.35018   0.01267  Uiso   1.00
H20    H     0.05061   0.32172   0.39955   0.01267  Uiso   1.00
H21    H     0.08495   0.48531   0.34370   0.01267  Uiso   1.00
H22    H     0.92967   0.32737   0.64427   0.01267  Uiso   1.00
C1     C     0.10330   0.01830   0.75810   0.01267  Uiso   1.00
C2     C     0.11360   0.02080   0.84410   0.01267  Uiso   1.00
C3     C     0.02710   0.01700   0.88780   0.01267  Uiso   1.00
C4     C     0.93360   0.01470   0.84160   0.01267  Uiso   1.00
C5     C     0.92880   0.01290   0.75630   0.01267  Uiso   1.00
C6     C     0.03740   0.01280   0.97780   0.01267  Uiso   1.00
C7     C     0.19760   0.99680   0.50770   0.01267  Uiso   1.00
C8     C     0.31110   0.99250   0.51750   0.01267  Uiso   1.00
C9     C     0.36760   0.00650   0.45220   0.01267  Uiso   1.00
C10    C     0.47480   0.00700   0.46080   0.01267  Uiso   1.00
C11    C     0.53550   0.02150   0.39420   0.01267  Uiso   1.00
C12    C     0.36160   0.97850   0.59550   0.01267  Uiso   1.00
C13    C     0.00300   0.80060   0.48700   0.01267  Uiso   1.00
C14    C     0.00950   0.68710   0.47960   0.01267  Uiso   1.00
C15    C     0.97840   0.63460   0.54200   0.01267  Uiso   1.00
C16    C     0.98150   0.52770   0.53550   0.01267  Uiso   1.00
C17    C     0.94770   0.47210   0.59900   0.01267  Uiso   1.00
C18    C     0.04570   0.63120   0.40860   0.01267  Uiso   1.00
C19    C     0.89670   0.98170   0.24190   0.01267  Uiso   1.00
C20    C     0.88640   0.97920   0.15590   0.01267  Uiso   1.00
C21    C     0.97290   0.98300   0.11220   0.01267  Uiso   1.00
C22    C     0.06640   0.98530   0.15840   0.01267  Uiso   1.00
C23    C     0.07120   0.98710   0.24370   0.01267  Uiso   1.00
C24    C     0.96260   0.98720   0.02220   0.01267  Uiso   1.00
C25    C     0.80240   0.00320   0.49230   0.01267  Uiso   1.00
C26    C     0.68890   0.00750   0.48250   0.01267  Uiso   1.00
C27    C     0.63240   0.99350   0.54780   0.01267  Uiso   1.00
C28    C     0.52520   0.99300   0.53920   0.01267  Uiso   1.00
C29    C     0.46450   0.97850   0.60580   0.01267  Uiso   1.00
C30    C     0.63840   0.02150   0.40450   0.01267  Uiso   1.00
C31    C     0.99700   0.19940   0.51300   0.01267  Uiso   1.00
C32    C     0.99050   0.31290   0.52040   0.01267  Uiso   1.00
C33    C     0.02160   0.36540   0.45800   0.01267  Uiso   1.00
C34    C     0.01850   0.47230   0.46450   0.01267  Uiso   1.00
C35    C     0.05230   0.52790   0.40100   0.01267  Uiso   1.00
C36    C     0.95430   0.36880   0.59140   0.01267  Uiso   1.00
N1     N     0.01280   0.01460   0.71420   0.01267  Uiso   1.00
N2     N     0.98720   0.98540   0.28580   0.01267  Uiso   1.00
O1     O     0.15070   0.00270   0.57230   0.01267  Uiso   1.00
O2     O     0.84420   0.00530   0.56520   0.01267  Uiso   1.00
O3     O     0.99570   0.84880   0.55820   0.01267  Uiso   1.00
O4     O     0.99740   0.15870   0.57900   0.01267  Uiso   1.00
O5     O     0.84930   0.99730   0.42770   0.01267  Uiso   1.00
O6     O     0.15580   0.99470   0.43480   0.01267  Uiso   1.00
O7     O     0.00430   0.15120   0.44180   0.01267  Uiso   1.00
O8     O     0.00260   0.84130   0.42100   0.01267  Uiso   1.00
Co3    Co    0.67495   0.77125   0.88817   0.01267  Uiso   1.00
Co4    Co    0.67940   0.76154   0.71773   0.01267  Uiso   1.00
H23    H     0.34881   0.76472   0.91803   0.01267  Uiso   1.00
H24    H     0.17984   0.75054   0.97620   0.01267  Uiso   1.00
H25    H     0.98965   0.75038   0.95472   0.01267  Uiso   1.00
H26    H     0.00474   0.77471   0.69036   0.01267  Uiso   1.00
H27    H     0.17416   0.77866   0.63094   0.01267  Uiso   1.00
H28    H     0.36214   0.77396   0.64961   0.01267  Uiso   1.00
H29    H     0.70088   0.08544   0.69742   0.01267  Uiso   1.00
H30    H     0.72052   0.24741   0.63516   0.01267  Uiso   1.00
H31    H     0.71693   0.43815   0.65133   0.01267  Uiso   1.00
H32    H     0.64465   0.44729   0.91077   0.01267  Uiso   1.00
H33    H     0.62976   0.28589   0.97282   0.01267  Uiso   1.00
H34    H     0.63785   0.09868   0.96020   0.01267  Uiso   1.00
H35    H     0.83903   0.71936   0.01601   0.01267  Uiso   1.00
H36    H     0.85764   0.71464   0.17115   0.01267  Uiso   1.00
H37    H     0.79239   0.76250   0.31289   0.01267  Uiso   1.00
H38    H     0.55612   0.75885   0.29764   0.01267  Uiso   1.00
H39    H     0.81469   0.76752   0.42918   0.01267  Uiso   1.00
H40    H     0.82331   0.77253   0.58597   0.01267  Uiso   1.00
H41    H     0.50206   0.73617   0.58001   0.01267  Uiso   1.00
C37    C     0.36640   0.76740   0.78530   0.01267  Uiso   1.00
C38    C     0.30920   0.76510   0.85310   0.01267  Uiso   1.00
C39    C     0.20240   0.76320   0.84410   0.01267  Uiso   1.00
C40    C     0.14200   0.75610   0.91140   0.01267  Uiso   1.00
C41    C     0.03750   0.75580   0.89980   0.01267  Uiso   1.00
C42    C     0.98870   0.76210   0.82090   0.01267  Uiso   1.00
C43    C     0.04470   0.76840   0.75430   0.01267  Uiso   1.00
C44    C     0.15280   0.76720   0.76360   0.01267  Uiso   1.00
C45    C     0.21260   0.77290   0.69550   0.01267  Uiso   1.00
C46    C     0.31610   0.77160   0.70600   0.01267  Uiso   1.00
C47    C     0.47990   0.76560   0.79630   0.01267  Uiso   1.00
C48    C     0.87350   0.76540   0.80960   0.01267  Uiso   1.00
C49    C     0.66830   0.08030   0.82650   0.01267  Uiso   1.00
C50    C     0.68560   0.13070   0.75970   0.01267  Uiso   1.00
C51    C     0.68500   0.23840   0.76600   0.01267  Uiso   1.00
C52    C     0.70370   0.29180   0.69740   0.01267  Uiso   1.00
C53    C     0.70150   0.39560   0.70610   0.01267  Uiso   1.00
C54    C     0.68030   0.45360   0.78230   0.01267  Uiso   1.00
C55    C     0.66190   0.40250   0.84880   0.01267  Uiso   1.00
C56    C     0.66380   0.29500   0.84240   0.01267  Uiso   1.00
C57    C     0.64670   0.24180   0.91050   0.01267  Uiso   1.00
C58    C     0.65000   0.13870   0.90340   0.01267  Uiso   1.00
C59    C     0.67400   0.96570   0.81900   0.01267  Uiso   1.00
C60    C     0.67900   0.56690   0.79010   0.01267  Uiso   1.00
C61    C     0.77330   0.74360   0.05540   0.01267  Uiso   1.00
C62    C     0.78330   0.74050   0.14030   0.01267  Uiso   1.00
C63    C     0.70390   0.76850   0.18790   0.01267  Uiso   1.00
C64    C     0.61830   0.80390   0.14820   0.01267  Uiso   1.00
C65    C     0.61350   0.80610   0.06240   0.01267  Uiso   1.00
C66    C     0.71370   0.76320   0.27840   0.01267  Uiso   1.00
C67    C     0.63810   0.75900   0.32590   0.01267  Uiso   1.00
C68    C     0.64850   0.75420   0.41680   0.01267  Uiso   1.00
C69    C     0.74190   0.76210   0.46220   0.01267  Uiso   1.00
C70    C     0.74660   0.76340   0.54790   0.01267  Uiso   1.00
C71    C     0.57220   0.74420   0.54420   0.01267  Uiso   1.00
C72    C     0.56170   0.74340   0.45920   0.01267  Uiso   1.00
N3     N     0.69010   0.77370   0.01600   0.01267  Uiso   1.00
N4     N     0.66310   0.75420   0.58940   0.01267  Uiso   1.00
O9     O     0.52140   0.76750   0.86850   0.01267  Uiso   1.00
O10    O     0.52730   0.76230   0.73130   0.01267  Uiso   1.00
O11    O     0.83290   0.76400   0.73780   0.01267  Uiso   1.00
O12    O     0.82700   0.77120   0.87510   0.01267  Uiso   1.00
O13    O     0.67830   0.91790   0.74710   0.01267  Uiso   1.00
O14    O     0.67320   0.92570   0.88510   0.01267  Uiso   1.00
O15    O     0.67430   0.61540   0.86180   0.01267  Uiso   1.00
O16    O     0.68110   0.60830   0.72420   0.01267  Uiso   1.00
Co5    Co    0.32505   0.22875   0.11183   0.01267  Uiso   1.00
Co6    Co    0.32060   0.23846   0.28227   0.01267  Uiso   1.00
H42    H     0.65119   0.23528   0.08197   0.01267  Uiso   1.00
H43    H     0.82016   0.24946   0.02380   0.01267  Uiso   1.00
H44    H     0.01035   0.24962   0.04528   0.01267  Uiso   1.00
H45    H     0.99526   0.22529   0.30964   0.01267  Uiso   1.00
H46    H     0.82584   0.22134   0.36906   0.01267  Uiso   1.00
H47    H     0.63676   0.22608   0.34976   0.01267  Uiso   1.00
H48    H     0.29912   0.91456   0.30258   0.01267  Uiso   1.00
H49    H     0.27948   0.75259   0.36484   0.01267  Uiso   1.00
H50    H     0.28307   0.56185   0.34867   0.01267  Uiso   1.00
H51    H     0.35535   0.55271   0.08923   0.01267  Uiso   1.00
H52    H     0.37024   0.71411   0.02718   0.01267  Uiso   1.00
H53    H     0.36199   0.90250   0.04039   0.01267  Uiso   1.00
H54    H     0.16097   0.28064   0.98399   0.01267  Uiso   1.00
H55    H     0.14236   0.28536   0.82885   0.01267  Uiso   1.00
H56    H     0.20761   0.23750   0.68711   0.01267  Uiso   1.00
H57    H     0.44388   0.24115   0.70236   0.01267  Uiso   1.00
H58    H     0.18531   0.23248   0.57082   0.01267  Uiso   1.00
H59    H     0.17669   0.22747   0.41403   0.01267  Uiso   1.00
H60    H     0.49794   0.26383   0.41999   0.01267  Uiso   1.00
C73    C     0.63360   0.23260   0.21470   0.01267  Uiso   1.00
C74    C     0.69080   0.23490   0.14690   0.01267  Uiso   1.00
C75    C     0.79760   0.23680   0.15590   0.01267  Uiso   1.00
C76    C     0.85800   0.24390   0.08860   0.01267  Uiso   1.00
C77    C     0.96250   0.24420   0.10020   0.01267  Uiso   1.00
C78    C     0.01130   0.23790   0.17910   0.01267  Uiso   1.00
C79    C     0.95530   0.23160   0.24570   0.01267  Uiso   1.00
C80    C     0.84720   0.23280   0.23640   0.01267  Uiso   1.00
C81    C     0.78740   0.22710   0.30450   0.01267  Uiso   1.00
C82    C     0.68390   0.22840   0.29400   0.01267  Uiso   1.00
C83    C     0.52010   0.23440   0.20370   0.01267  Uiso   1.00
C84    C     0.12650   0.23460   0.19040   0.01267  Uiso   1.00
C85    C     0.33170   0.91970   0.17350   0.01267  Uiso   1.00
C86    C     0.31440   0.86930   0.24030   0.01267  Uiso   1.00
C87    C     0.31500   0.76160   0.23400   0.01267  Uiso   1.00
C88    C     0.29630   0.70820   0.30260   0.01267  Uiso   1.00
C89    C     0.29850   0.60440   0.29390   0.01267  Uiso   1.00
C90    C     0.31970   0.54640   0.21770   0.01267  Uiso   1.00
C91    C     0.33810   0.59750   0.15120   0.01267  Uiso   1.00
C92    C     0.33620   0.70500   0.15760   0.01267  Uiso   1.00
C93    C     0.35330   0.75820   0.08950   0.01267  Uiso   1.00
C94    C     0.35000   0.86130   0.09660   0.01267  Uiso   1.00
C95    C     0.32600   0.03430   0.18100   0.01267  Uiso   1.00
C96    C     0.32100   0.43310   0.20990   0.01267  Uiso   1.00
C97    C     0.22670   0.25640   0.94460   0.01267  Uiso   1.00
C98    C     0.21670   0.25950   0.85970   0.01267  Uiso   1.00
C99    C     0.29610   0.23150   0.81210   0.01267  Uiso   1.00
C100   C     0.38170   0.19610   0.85180   0.01267  Uiso   1.00
C101   C     0.38650   0.19390   0.93760   0.01267  Uiso   1.00
C102   C     0.28630   0.23680   0.72160   0.01267  Uiso   1.00
C103   C     0.36190   0.24100   0.67410   0.01267  Uiso   1.00
C104   C     0.35150   0.24580   0.58320   0.01267  Uiso   1.00
C105   C     0.25810   0.23790   0.53780   0.01267  Uiso   1.00
C106   C     0.25340   0.23660   0.45210   0.01267  Uiso   1.00
C107   C     0.42780   0.25580   0.45580   0.01267  Uiso   1.00
C108   C     0.43830   0.25660   0.54080   0.01267  Uiso   1.00
N5     N     0.30990   0.22630   0.98400   0.01267  Uiso   1.00
N6     N     0.33690   0.24580   0.41060   0.01267  Uiso   1.00
O17    O     0.47860   0.23250   0.13150   0.01267  Uiso   1.00
O18    O     0.47270   0.23770   0.26870   0.01267  Uiso   1.00
O19    O     0.16710   0.23600   0.26220   0.01267  Uiso   1.00
O20    O     0.17300   0.22880   0.12490   0.01267  Uiso   1.00
O21    O     0.32170   0.08210   0.25290   0.01267  Uiso   1.00
O22    O     0.32680   0.07430   0.11490   0.01267  Uiso   1.00
O23    O     0.32570   0.38460   0.13820   0.01267  Uiso   1.00
O24    O     0.31890   0.39170   0.27580   0.01267  Uiso   1.00
H61    H     0.55157   0.83132   0.18535   0.01267  Uiso   1.00
H62    H     0.54284   0.83613   0.02904   0.01267  Uiso   1.00
H63    H     0.48292   0.73401   0.42446   0.01267  Uiso   1.00
H64    H     0.44843   0.16868   0.81465   0.01267  Uiso   1.00
H65    H     0.45716   0.16387   0.97096   0.01267  Uiso   1.00
H66    H     0.51708   0.26599   0.57554   0.01267  Uiso   1.00
