data_image0
_cell_length_a       14.914
_cell_length_b       23.507
_cell_length_c       9.261
_cell_angle_alpha    90
_cell_angle_beta     90
_cell_angle_gamma    90

_symmetry_space_group_name_H-M    "P 1"
_symmetry_int_tables_number       1

loop_
  _symmetry_equiv_pos_as_xyz
  'x, y, z'

loop_
  _atom_site_label
  _atom_site_occupancy
  _atom_site_fract_x
  _atom_site_fract_y
  _atom_site_fract_z
  _atom_site_thermal_displace_type
  _atom_site_B_iso_or_equiv
  _atom_site_type_symbol
  Fe1      1.0000 0.07694  0.44385  0.55071  Biso   1.000  Fe
  Cl1      1.0000 0.18137  0.50420  0.64460  Biso   1.000  Cl
  O1       1.0000 0.98310  0.37976  0.49560  Biso   1.000  O
  O2       1.0000 0.01700  0.43018  0.74590  Biso   1.000  O
  O3       1.0000 0.91260  0.37596  0.85290  Biso   1.000  O
  O4       1.0000 0.88320  0.32280  0.60330  Biso   1.000  O
  C1       1.0000 0.93990  0.36218  0.60280  Biso   1.000  C
  C2       1.0000 0.95730  0.39225  0.74710  Biso   1.000  C
  Fe2      1.0000 0.07694  0.94385  0.05071  Biso   1.000  Fe
  Cl2      1.0000 0.18137  0.00420  0.14460  Biso   1.000  Cl
  O5       1.0000 0.98310  0.87976  0.99560  Biso   1.000  O
  O6       1.0000 0.01700  0.93018  0.24590  Biso   1.000  O
  O7       1.0000 0.91260  0.87596  0.35290  Biso   1.000  O
  O8       1.0000 0.88320  0.82280  0.10330  Biso   1.000  O
  C3       1.0000 0.93990  0.86218  0.10280  Biso   1.000  C
  C4       1.0000 0.95730  0.89225  0.24710  Biso   1.000  C
  Fe3      1.0000 0.57694  0.44385  0.05071  Biso   1.000  Fe
  Cl3      1.0000 0.68137  0.50420  0.14460  Biso   1.000  Cl
  O9       1.0000 0.48310  0.37976  0.99560  Biso   1.000  O
  O10      1.0000 0.51700  0.43018  0.24590  Biso   1.000  O
  O11      1.0000 0.41260  0.37596  0.35290  Biso   1.000  O
  O12      1.0000 0.38320  0.32280  0.10330  Biso   1.000  O
  C5       1.0000 0.43990  0.36218  0.10280  Biso   1.000  C
  C6       1.0000 0.45730  0.39225  0.24710  Biso   1.000  C
  Fe4      1.0000 0.57694  0.94385  0.55071  Biso   1.000  Fe
  Cl4      1.0000 0.68137  0.00420  0.64460  Biso   1.000  Cl
  O13      1.0000 0.48310  0.87976  0.49560  Biso   1.000  O
  O14      1.0000 0.51700  0.93018  0.74590  Biso   1.000  O
  O15      1.0000 0.41260  0.87596  0.85290  Biso   1.000  O
  O16      1.0000 0.38320  0.82280  0.60330  Biso   1.000  O
  C7       1.0000 0.43990  0.86218  0.60280  Biso   1.000  C
  C8       1.0000 0.45730  0.89225  0.74710  Biso   1.000  C
  Fe5      1.0000 0.92306  0.55615  0.55071  Biso   1.000  Fe
  Cl5      1.0000 0.81863  0.49580  0.64460  Biso   1.000  Cl
  O17      1.0000 0.01690  0.62024  0.49560  Biso   1.000  O
  O18      1.0000 0.98300  0.56982  0.74590  Biso   1.000  O
  O19      1.0000 0.08740  0.62404  0.85290  Biso   1.000  O
  O20      1.0000 0.11680  0.67720  0.60330  Biso   1.000  O
  C9       1.0000 0.06010  0.63782  0.60280  Biso   1.000  C
  C10      1.0000 0.04270  0.60775  0.74710  Biso   1.000  C
  Fe6      1.0000 0.92306  0.05615  0.05071  Biso   1.000  Fe
  Cl6      1.0000 0.81863  0.99580  0.14460  Biso   1.000  Cl
  O21      1.0000 0.01690  0.12024  0.99560  Biso   1.000  O
  O22      1.0000 0.98300  0.06982  0.24590  Biso   1.000  O
  O23      1.0000 0.08740  0.12404  0.35290  Biso   1.000  O
  O24      1.0000 0.11680  0.17720  0.10330  Biso   1.000  O
  C11      1.0000 0.06010  0.13782  0.10280  Biso   1.000  C
  C12      1.0000 0.04270  0.10775  0.24710  Biso   1.000  C
  Fe7      1.0000 0.42306  0.55615  0.05071  Biso   1.000  Fe
  Cl7      1.0000 0.31863  0.49580  0.14460  Biso   1.000  Cl
  O25      1.0000 0.51690  0.62024  0.99560  Biso   1.000  O
  O26      1.0000 0.48300  0.56982  0.24590  Biso   1.000  O
  O27      1.0000 0.58740  0.62404  0.35290  Biso   1.000  O
  O28      1.0000 0.61680  0.67720  0.10330  Biso   1.000  O
  C13      1.0000 0.56010  0.63782  0.10280  Biso   1.000  C
  C14      1.0000 0.54270  0.60775  0.24710  Biso   1.000  C
  Fe8      1.0000 0.42306  0.05615  0.55071  Biso   1.000  Fe
  Cl8      1.0000 0.31863  0.99580  0.64460  Biso   1.000  Cl
  O29      1.0000 0.51690  0.12024  0.49560  Biso   1.000  O
  O30      1.0000 0.48300  0.06982  0.74590  Biso   1.000  O
  O31      1.0000 0.58740  0.12404  0.85290  Biso   1.000  O
  O32      1.0000 0.61680  0.17720  0.60330  Biso   1.000  O
  C15      1.0000 0.56010  0.13782  0.60280  Biso   1.000  C
  C16      1.0000 0.54270  0.10775  0.74710  Biso   1.000  C
  Fe9      1.0000 0.32694  0.80615  0.80071  Biso   1.000  Fe
  Cl9      1.0000 0.43137  0.74580  0.89460  Biso   1.000  Cl
  O33      1.0000 0.23310  0.87024  0.74560  Biso   1.000  O
  O34      1.0000 0.26700  0.81982  0.99590  Biso   1.000  O
  O35      1.0000 0.16260  0.87404  0.10290  Biso   1.000  O
  O36      1.0000 0.13320  0.92720  0.85330  Biso   1.000  O
  C17      1.0000 0.18990  0.88782  0.85280  Biso   1.000  C
  C18      1.0000 0.20730  0.85775  0.99710  Biso   1.000  C
  Fe10     1.0000 0.32694  0.30615  0.30071  Biso   1.000  Fe
  Cl10     1.0000 0.43137  0.24580  0.39460  Biso   1.000  Cl
  O37      1.0000 0.23310  0.37024  0.24560  Biso   1.000  O
  O38      1.0000 0.26700  0.31982  0.49590  Biso   1.000  O
  O39      1.0000 0.16260  0.37404  0.60290  Biso   1.000  O
  O40      1.0000 0.13320  0.42720  0.35330  Biso   1.000  O
  C19      1.0000 0.18990  0.38782  0.35280  Biso   1.000  C
  C20      1.0000 0.20730  0.35775  0.49710  Biso   1.000  C
  Fe11     1.0000 0.82694  0.80615  0.30071  Biso   1.000  Fe
  Cl11     1.0000 0.93137  0.74580  0.39460  Biso   1.000  Cl
  O41      1.0000 0.73310  0.87024  0.24560  Biso   1.000  O
  O42      1.0000 0.76700  0.81982  0.49590  Biso   1.000  O
  O43      1.0000 0.66260  0.87404  0.60290  Biso   1.000  O
  O44      1.0000 0.63320  0.92720  0.35330  Biso   1.000  O
  C21      1.0000 0.68990  0.88782  0.35280  Biso   1.000  C
  C22      1.0000 0.70730  0.85775  0.49710  Biso   1.000  C
  Fe12     1.0000 0.82694  0.30615  0.80071  Biso   1.000  Fe
  Cl12     1.0000 0.93137  0.24580  0.89460  Biso   1.000  Cl
  O45      1.0000 0.73310  0.37024  0.74560  Biso   1.000  O
  O46      1.0000 0.76700  0.31982  0.99590  Biso   1.000  O
  O47      1.0000 0.66260  0.37404  0.10290  Biso   1.000  O
  O48      1.0000 0.63320  0.42720  0.85330  Biso   1.000  O
  C23      1.0000 0.68990  0.38782  0.85280  Biso   1.000  C
  C24      1.0000 0.70730  0.35775  0.99710  Biso   1.000  C
  Fe13     1.0000 0.17306  0.69385  0.80071  Biso   1.000  Fe
  Cl13     1.0000 0.06863  0.75420  0.89460  Biso   1.000  Cl
  O49      1.0000 0.26690  0.62976  0.74560  Biso   1.000  O
  O50      1.0000 0.23300  0.68018  0.99590  Biso   1.000  O
  O51      1.0000 0.33740  0.62596  0.10290  Biso   1.000  O
  O52      1.0000 0.36680  0.57280  0.85330  Biso   1.000  O
  C25      1.0000 0.31010  0.61218  0.85280  Biso   1.000  C
  C26      1.0000 0.29270  0.64225  0.99710  Biso   1.000  C
  Fe14     1.0000 0.17306  0.19385  0.30071  Biso   1.000  Fe
  Cl14     1.0000 0.06863  0.25420  0.39460  Biso   1.000  Cl
  O53      1.0000 0.26690  0.12976  0.24560  Biso   1.000  O
  O54      1.0000 0.23300  0.18018  0.49590  Biso   1.000  O
  O55      1.0000 0.33740  0.12596  0.60290  Biso   1.000  O
  O56      1.0000 0.36680  0.07280  0.35330  Biso   1.000  O
  C27      1.0000 0.31010  0.11218  0.35280  Biso   1.000  C
  C28      1.0000 0.29270  0.14225  0.49710  Biso   1.000  C
  Fe15     1.0000 0.67306  0.69385  0.30071  Biso   1.000  Fe
  Cl15     1.0000 0.56863  0.75420  0.39460  Biso   1.000  Cl
  O57      1.0000 0.76690  0.62976  0.24560  Biso   1.000  O
  O58      1.0000 0.73300  0.68018  0.49590  Biso   1.000  O
  O59      1.0000 0.83740  0.62596  0.60290  Biso   1.000  O
  O60      1.0000 0.86680  0.57280  0.35330  Biso   1.000  O
  C29      1.0000 0.81010  0.61218  0.35280  Biso   1.000  C
  C30      1.0000 0.79270  0.64225  0.49710  Biso   1.000  C
  Fe16     1.0000 0.67306  0.19385  0.80071  Biso   1.000  Fe
  Cl16     1.0000 0.56863  0.25420  0.89460  Biso   1.000  Cl
  O61      1.0000 0.76690  0.12976  0.74560  Biso   1.000  O
  O62      1.0000 0.73300  0.18018  0.99590  Biso   1.000  O
  O63      1.0000 0.83740  0.12596  0.10290  Biso   1.000  O
  O64      1.0000 0.86680  0.07280  0.85330  Biso   1.000  O
  C31      1.0000 0.81010  0.11218  0.85280  Biso   1.000  C
  C32      1.0000 0.79270  0.14225  0.99710  Biso   1.000  C
  O65      1.0000 0.00000  0.50000  0.47030  Biso   1.000  O
  O66      1.0000 0.00000  0.00000  0.97030  Biso   1.000  O
  O67      1.0000 0.50000  0.50000  0.97030  Biso   1.000  O
  O68      1.0000 0.50000  0.00000  0.47030  Biso   1.000  O
  O69      1.0000 0.25000  0.75000  0.72030  Biso   1.000  O
  O70      1.0000 0.25000  0.25000  0.22030  Biso   1.000  O
  O71      1.0000 0.75000  0.75000  0.22030  Biso   1.000  O
  O72      1.0000 0.75000  0.25000  0.72030  Biso   1.000  O
