data_DANZEZ_charged
_audit_creation_date              2014-07-02
_audit_creation_method            'Materials Studio'
_symmetry_space_group_name_H-M    'P1'
_symmetry_Int_Tables_number       1
_symmetry_cell_setting            triclinic
loop_
_symmetry_equiv_pos_as_xyz
  x,y,z
_cell_length_a                    10.3718
_cell_length_b                    28.5050
_cell_length_c                    28.5050
_cell_angle_alpha                 90.0000
_cell_angle_beta                  90.0000
_cell_angle_gamma                 90.0000
loop_
_atom_site_label
_atom_site_type_symbol
_atom_site_fract_x
_atom_site_fract_y
_atom_site_fract_z
_atom_site_U_iso_or_equiv
_atom_site_adp_type
_atom_site_occupancy
Mn1    Mn    0.76724   0.49062   0.40171   0.01267  Uiso   1.00
Mn2    Mn    0.76724   0.00938   0.09829   0.01267  Uiso   1.00
Mn3    Mn    0.76724   0.09829   0.49062   0.01267  Uiso   1.00
Mn4    Mn    0.76724   0.40171   0.00938   0.01267  Uiso   1.00
Mn5    Mn    0.23276   0.50938   0.59829   0.01267  Uiso   1.00
Mn6    Mn    0.23276   0.99062   0.90171   0.01267  Uiso   1.00
Mn7    Mn    0.23276   0.90171   0.50938   0.01267  Uiso   1.00
Mn8    Mn    0.23276   0.59829   0.99062   0.01267  Uiso   1.00
Mn9    Mn    0.00000   0.50000   0.50000   0.01267  Uiso   1.00
Mn10   Mn    0.00000   0.00000   0.00000   0.01267  Uiso   1.00
Mn11   Mn    0.00000   0.00000   0.50000   0.01267  Uiso   1.00
Mn12   Mn    0.00000   0.50000   0.00000   0.01267  Uiso   1.00
H1     H     0.92930   0.49120   0.70130   0.01267  Uiso   1.00
H2     H     0.95970   0.50480   0.85510   0.01267  Uiso   1.00
H3     H     0.61850   0.42910   0.78030   0.01267  Uiso   1.00
H4     H     0.54540   0.47910   0.72130   0.01267  Uiso   1.00
H5     H     0.68700   0.50080   0.59050   0.01267  Uiso   1.00
H6     H     0.65980   0.41380   0.85860   0.01267  Uiso   1.00
H7     H     0.91750   0.51970   0.77640   0.01267  Uiso   1.00
H8     H     0.79700   0.41570   0.30610   0.01267  Uiso   1.00
H9     H     0.71480   0.37250   0.32580   0.01267  Uiso   1.00
H10    H     0.64730   0.42240   0.31800   0.01267  Uiso   1.00
H11    H     0.92930   0.00880   0.79870   0.01267  Uiso   1.00
H12    H     0.95970   0.99520   0.64490   0.01267  Uiso   1.00
H13    H     0.61850   0.07090   0.71970   0.01267  Uiso   1.00
H14    H     0.54540   0.02090   0.77870   0.01267  Uiso   1.00
H15    H     0.68700   0.99920   0.90950   0.01267  Uiso   1.00
H16    H     0.65980   0.08620   0.64140   0.01267  Uiso   1.00
H17    H     0.91750   0.98030   0.72360   0.01267  Uiso   1.00
H18    H     0.79700   0.08430   0.19390   0.01267  Uiso   1.00
H19    H     0.71480   0.12750   0.17420   0.01267  Uiso   1.00
H20    H     0.64730   0.07760   0.18200   0.01267  Uiso   1.00
H21    H     0.92930   0.79870   0.49120   0.01267  Uiso   1.00
H22    H     0.95970   0.64490   0.50480   0.01267  Uiso   1.00
H23    H     0.61850   0.71970   0.42910   0.01267  Uiso   1.00
H24    H     0.54540   0.77870   0.47910   0.01267  Uiso   1.00
H25    H     0.68700   0.90950   0.50080   0.01267  Uiso   1.00
H26    H     0.65980   0.64140   0.41380   0.01267  Uiso   1.00
H27    H     0.91750   0.72360   0.51970   0.01267  Uiso   1.00
H28    H     0.79700   0.19390   0.41570   0.01267  Uiso   1.00
H29    H     0.71480   0.17420   0.37250   0.01267  Uiso   1.00
H30    H     0.64730   0.18200   0.42240   0.01267  Uiso   1.00
H31    H     0.92930   0.70130   0.00880   0.01267  Uiso   1.00
H32    H     0.95970   0.85510   0.99520   0.01267  Uiso   1.00
H33    H     0.61850   0.78030   0.07090   0.01267  Uiso   1.00
H34    H     0.54540   0.72130   0.02090   0.01267  Uiso   1.00
H35    H     0.68700   0.59050   0.99920   0.01267  Uiso   1.00
H36    H     0.65980   0.85860   0.08620   0.01267  Uiso   1.00
H37    H     0.91750   0.77640   0.98030   0.01267  Uiso   1.00
H38    H     0.79700   0.30610   0.08430   0.01267  Uiso   1.00
H39    H     0.71480   0.32580   0.12750   0.01267  Uiso   1.00
H40    H     0.64730   0.31800   0.07760   0.01267  Uiso   1.00
H41    H     0.07070   0.50880   0.29870   0.01267  Uiso   1.00
H42    H     0.04030   0.49520   0.14490   0.01267  Uiso   1.00
H43    H     0.38150   0.57090   0.21970   0.01267  Uiso   1.00
H44    H     0.45460   0.52090   0.27870   0.01267  Uiso   1.00
H45    H     0.31300   0.49920   0.40950   0.01267  Uiso   1.00
H46    H     0.34020   0.58620   0.14140   0.01267  Uiso   1.00
H47    H     0.08250   0.48030   0.22360   0.01267  Uiso   1.00
H48    H     0.20300   0.58430   0.69390   0.01267  Uiso   1.00
H49    H     0.28520   0.62750   0.67420   0.01267  Uiso   1.00
H50    H     0.35270   0.57760   0.68200   0.01267  Uiso   1.00
H51    H     0.07070   0.99120   0.20130   0.01267  Uiso   1.00
H52    H     0.04030   0.00480   0.35510   0.01267  Uiso   1.00
H53    H     0.38150   0.92910   0.28030   0.01267  Uiso   1.00
H54    H     0.45460   0.97910   0.22130   0.01267  Uiso   1.00
H55    H     0.31300   0.00080   0.09050   0.01267  Uiso   1.00
H56    H     0.34020   0.91380   0.35860   0.01267  Uiso   1.00
H57    H     0.08250   0.01970   0.27640   0.01267  Uiso   1.00
H58    H     0.20300   0.91570   0.80610   0.01267  Uiso   1.00
H59    H     0.28520   0.87250   0.82580   0.01267  Uiso   1.00
H60    H     0.35270   0.92240   0.81800   0.01267  Uiso   1.00
H61    H     0.07070   0.20130   0.50880   0.01267  Uiso   1.00
H62    H     0.04030   0.35510   0.49520   0.01267  Uiso   1.00
H63    H     0.38150   0.28030   0.57090   0.01267  Uiso   1.00
H64    H     0.45460   0.22130   0.52090   0.01267  Uiso   1.00
H65    H     0.31300   0.09050   0.49920   0.01267  Uiso   1.00
H66    H     0.34020   0.35860   0.58620   0.01267  Uiso   1.00
H67    H     0.08250   0.27640   0.48030   0.01267  Uiso   1.00
H68    H     0.20300   0.80610   0.58430   0.01267  Uiso   1.00
H69    H     0.28520   0.82580   0.62750   0.01267  Uiso   1.00
H70    H     0.35270   0.81800   0.57760   0.01267  Uiso   1.00
H71    H     0.07070   0.29870   0.99120   0.01267  Uiso   1.00
H72    H     0.04030   0.14490   0.00480   0.01267  Uiso   1.00
H73    H     0.38150   0.21970   0.92910   0.01267  Uiso   1.00
H74    H     0.45460   0.27870   0.97910   0.01267  Uiso   1.00
H75    H     0.31300   0.40950   0.00080   0.01267  Uiso   1.00
H76    H     0.34020   0.14140   0.91380   0.01267  Uiso   1.00
H77    H     0.08250   0.22360   0.01970   0.01267  Uiso   1.00
H78    H     0.20300   0.69390   0.91570   0.01267  Uiso   1.00
H79    H     0.28520   0.67420   0.87250   0.01267  Uiso   1.00
H80    H     0.35270   0.68200   0.92240   0.01267  Uiso   1.00
C1     C     0.93990   0.50655   0.60976   0.01267  Uiso   1.00
C2     C     0.82530   0.49828   0.64132   0.01267  Uiso   1.00
C3     C     0.84410   0.49112   0.68906   0.01267  Uiso   1.00
C4     C     0.74050   0.48386   0.71945   0.01267  Uiso   1.00
C5     C     0.76450   0.47553   0.77002   0.01267  Uiso   1.00
C6     C     0.89040   0.48920   0.83988   0.01267  Uiso   1.00
C7     C     0.68850   0.44436   0.79541   0.01267  Uiso   1.00
C8     C     0.61700   0.48408   0.70119   0.01267  Uiso   1.00
C9     C     0.59680   0.49158   0.65323   0.01267  Uiso   1.00
C10    C     0.70070   0.49743   0.62325   0.01267  Uiso   1.00
C11    C     0.46190   0.49549   0.63344   0.01267  Uiso   1.00
C12    C     0.83880   0.44972   0.91619   0.01267  Uiso   1.00
C13    C     0.81510   0.45775   0.86476   0.01267  Uiso   1.00
C14    C     0.71260   0.43527   0.84195   0.01267  Uiso   1.00
C15    C     0.86520   0.49800   0.79306   0.01267  Uiso   1.00
C16    C     0.72700   0.40660   0.32730   0.01267  Uiso   1.00
C17    C     0.93990   0.99345   0.89024   0.01267  Uiso   1.00
C18    C     0.82530   0.00172   0.85868   0.01267  Uiso   1.00
C19    C     0.84410   0.00888   0.81094   0.01267  Uiso   1.00
C20    C     0.74050   0.01614   0.78055   0.01267  Uiso   1.00
C21    C     0.76450   0.02447   0.72998   0.01267  Uiso   1.00
C22    C     0.89040   0.01080   0.66012   0.01267  Uiso   1.00
C23    C     0.68850   0.05564   0.70459   0.01267  Uiso   1.00
C24    C     0.61700   0.01592   0.79881   0.01267  Uiso   1.00
C25    C     0.59680   0.00842   0.84677   0.01267  Uiso   1.00
C26    C     0.70070   0.00257   0.87675   0.01267  Uiso   1.00
C27    C     0.46190   0.00451   0.86656   0.01267  Uiso   1.00
C28    C     0.83880   0.05028   0.58381   0.01267  Uiso   1.00
C29    C     0.81510   0.04225   0.63524   0.01267  Uiso   1.00
C30    C     0.71260   0.06473   0.65805   0.01267  Uiso   1.00
C31    C     0.86520   0.00200   0.70694   0.01267  Uiso   1.00
C32    C     0.72700   0.09340   0.17270   0.01267  Uiso   1.00
C33    C     0.93990   0.89024   0.50655   0.01267  Uiso   1.00
C34    C     0.82530   0.85868   0.49828   0.01267  Uiso   1.00
C35    C     0.84410   0.81094   0.49112   0.01267  Uiso   1.00
C36    C     0.74050   0.78055   0.48386   0.01267  Uiso   1.00
C37    C     0.76450   0.72998   0.47553   0.01267  Uiso   1.00
C38    C     0.89040   0.66012   0.48920   0.01267  Uiso   1.00
C39    C     0.68850   0.70459   0.44436   0.01267  Uiso   1.00
C40    C     0.61700   0.79881   0.48408   0.01267  Uiso   1.00
C41    C     0.59680   0.84677   0.49158   0.01267  Uiso   1.00
C42    C     0.70070   0.87675   0.49743   0.01267  Uiso   1.00
C43    C     0.46190   0.86656   0.49549   0.01267  Uiso   1.00
C44    C     0.83880   0.58381   0.44972   0.01267  Uiso   1.00
C45    C     0.81510   0.63524   0.45775   0.01267  Uiso   1.00
C46    C     0.71260   0.65805   0.43527   0.01267  Uiso   1.00
C47    C     0.86520   0.70694   0.49800   0.01267  Uiso   1.00
C48    C     0.72700   0.17270   0.40660   0.01267  Uiso   1.00
C49    C     0.93990   0.60976   0.99345   0.01267  Uiso   1.00
C50    C     0.82530   0.64132   0.00172   0.01267  Uiso   1.00
C51    C     0.84410   0.68906   0.00888   0.01267  Uiso   1.00
C52    C     0.74050   0.71945   0.01614   0.01267  Uiso   1.00
C53    C     0.76450   0.77002   0.02447   0.01267  Uiso   1.00
C54    C     0.89040   0.83988   0.01080   0.01267  Uiso   1.00
C55    C     0.68850   0.79541   0.05564   0.01267  Uiso   1.00
C56    C     0.61700   0.70119   0.01592   0.01267  Uiso   1.00
C57    C     0.59680   0.65323   0.00842   0.01267  Uiso   1.00
C58    C     0.70070   0.62325   0.00257   0.01267  Uiso   1.00
C59    C     0.46190   0.63344   0.00451   0.01267  Uiso   1.00
C60    C     0.83880   0.91619   0.05028   0.01267  Uiso   1.00
C61    C     0.81510   0.86476   0.04225   0.01267  Uiso   1.00
C62    C     0.71260   0.84195   0.06473   0.01267  Uiso   1.00
C63    C     0.86520   0.79306   0.00200   0.01267  Uiso   1.00
C64    C     0.72700   0.32730   0.09340   0.01267  Uiso   1.00
C65    C     0.06010   0.49345   0.39024   0.01267  Uiso   1.00
C66    C     0.17470   0.50172   0.35868   0.01267  Uiso   1.00
C67    C     0.15590   0.50888   0.31094   0.01267  Uiso   1.00
C68    C     0.25950   0.51614   0.28055   0.01267  Uiso   1.00
C69    C     0.23550   0.52447   0.22998   0.01267  Uiso   1.00
C70    C     0.10960   0.51080   0.16012   0.01267  Uiso   1.00
C71    C     0.31150   0.55564   0.20459   0.01267  Uiso   1.00
C72    C     0.38300   0.51592   0.29881   0.01267  Uiso   1.00
C73    C     0.40320   0.50842   0.34677   0.01267  Uiso   1.00
C74    C     0.29930   0.50257   0.37675   0.01267  Uiso   1.00
C75    C     0.53810   0.50451   0.36656   0.01267  Uiso   1.00
C76    C     0.16120   0.55028   0.08381   0.01267  Uiso   1.00
C77    C     0.18490   0.54225   0.13524   0.01267  Uiso   1.00
C78    C     0.28740   0.56473   0.15805   0.01267  Uiso   1.00
C79    C     0.13480   0.50200   0.20694   0.01267  Uiso   1.00
C80    C     0.27300   0.59340   0.67270   0.01267  Uiso   1.00
C81    C     0.06010   0.00655   0.10976   0.01267  Uiso   1.00
C82    C     0.17470   0.99828   0.14132   0.01267  Uiso   1.00
C83    C     0.15590   0.99112   0.18906   0.01267  Uiso   1.00
C84    C     0.25950   0.98386   0.21945   0.01267  Uiso   1.00
C85    C     0.23550   0.97553   0.27002   0.01267  Uiso   1.00
C86    C     0.10960   0.98920   0.33988   0.01267  Uiso   1.00
C87    C     0.31150   0.94436   0.29541   0.01267  Uiso   1.00
C88    C     0.38300   0.98408   0.20119   0.01267  Uiso   1.00
C89    C     0.40320   0.99158   0.15323   0.01267  Uiso   1.00
C90    C     0.29930   0.99743   0.12325   0.01267  Uiso   1.00
C91    C     0.53810   0.99549   0.13344   0.01267  Uiso   1.00
C92    C     0.16120   0.94972   0.41619   0.01267  Uiso   1.00
C93    C     0.18490   0.95775   0.36476   0.01267  Uiso   1.00
C94    C     0.28740   0.93527   0.34195   0.01267  Uiso   1.00
C95    C     0.13480   0.99800   0.29306   0.01267  Uiso   1.00
C96    C     0.27300   0.90660   0.82730   0.01267  Uiso   1.00
C97    C     0.06010   0.10976   0.49345   0.01267  Uiso   1.00
C98    C     0.17470   0.14132   0.50172   0.01267  Uiso   1.00
C99    C     0.15590   0.18906   0.50888   0.01267  Uiso   1.00
C100   C     0.25950   0.21945   0.51614   0.01267  Uiso   1.00
C101   C     0.23550   0.27002   0.52447   0.01267  Uiso   1.00
C102   C     0.10960   0.33988   0.51080   0.01267  Uiso   1.00
C103   C     0.31150   0.29541   0.55564   0.01267  Uiso   1.00
C104   C     0.38300   0.20119   0.51592   0.01267  Uiso   1.00
C105   C     0.40320   0.15323   0.50842   0.01267  Uiso   1.00
C106   C     0.29930   0.12325   0.50257   0.01267  Uiso   1.00
C107   C     0.53810   0.13344   0.50451   0.01267  Uiso   1.00
C108   C     0.16120   0.41619   0.55028   0.01267  Uiso   1.00
C109   C     0.18490   0.36476   0.54225   0.01267  Uiso   1.00
C110   C     0.28740   0.34195   0.56473   0.01267  Uiso   1.00
C111   C     0.13480   0.29306   0.50200   0.01267  Uiso   1.00
C112   C     0.27300   0.82730   0.59340   0.01267  Uiso   1.00
C113   C     0.06010   0.39024   0.00655   0.01267  Uiso   1.00
C114   C     0.17470   0.35868   0.99828   0.01267  Uiso   1.00
C115   C     0.15590   0.31094   0.99112   0.01267  Uiso   1.00
C116   C     0.25950   0.28055   0.98386   0.01267  Uiso   1.00
C117   C     0.23550   0.22998   0.97553   0.01267  Uiso   1.00
C118   C     0.10960   0.16012   0.98920   0.01267  Uiso   1.00
C119   C     0.31150   0.20459   0.94436   0.01267  Uiso   1.00
C120   C     0.38300   0.29881   0.98408   0.01267  Uiso   1.00
C121   C     0.40320   0.34677   0.99158   0.01267  Uiso   1.00
C122   C     0.29930   0.37675   0.99743   0.01267  Uiso   1.00
C123   C     0.53810   0.36656   0.99549   0.01267  Uiso   1.00
C124   C     0.16120   0.08381   0.94972   0.01267  Uiso   1.00
C125   C     0.18490   0.13524   0.95775   0.01267  Uiso   1.00
C126   C     0.28740   0.15805   0.93527   0.01267  Uiso   1.00
C127   C     0.13480   0.20694   0.99800   0.01267  Uiso   1.00
C128   C     0.27300   0.67270   0.90660   0.01267  Uiso   1.00
Cl1    Cl    0.79107   0.45630   0.48056   0.01267  Uiso   1.00
Cl2    Cl    0.79107   0.04370   0.01944   0.01267  Uiso   1.00
Cl3    Cl    0.79107   0.01944   0.45630   0.01267  Uiso   1.00
Cl4    Cl    0.79107   0.48056   0.04370   0.01267  Uiso   1.00
Cl5    Cl    0.20893   0.54370   0.51944   0.01267  Uiso   1.00
Cl6    Cl    0.20893   0.95630   0.98056   0.01267  Uiso   1.00
Cl7    Cl    0.20893   0.98056   0.54370   0.01267  Uiso   1.00
Cl8    Cl    0.20893   0.51944   0.95630   0.01267  Uiso   1.00
O1     O     0.91670   0.51568   0.56749   0.01267  Uiso   1.00
O2     O     0.92230   0.47514   0.93531   0.01267  Uiso   1.00
O3     O     0.77530   0.41855   0.93590   0.01267  Uiso   1.00
O4     O     0.36680   0.48793   0.66003   0.01267  Uiso   1.00
O5     O     0.44820   0.50811   0.59205   0.01267  Uiso   1.00
O6     O     0.04820   0.50380   0.62825   0.01267  Uiso   1.00
O7     O     0.75820   0.41914   0.37210   0.01267  Uiso   1.00
O8     O     0.91670   0.98432   0.93251   0.01267  Uiso   1.00
O9     O     0.92230   0.02486   0.56469   0.01267  Uiso   1.00
O10    O     0.77530   0.08145   0.56410   0.01267  Uiso   1.00
O11    O     0.36680   0.01207   0.83997   0.01267  Uiso   1.00
O12    O     0.44820   0.99189   0.90795   0.01267  Uiso   1.00
O13    O     0.04820   0.99620   0.87175   0.01267  Uiso   1.00
O14    O     0.75820   0.08086   0.12790   0.01267  Uiso   1.00
O15    O     0.91670   0.93251   0.51568   0.01267  Uiso   1.00
O16    O     0.92230   0.56469   0.47514   0.01267  Uiso   1.00
O17    O     0.77530   0.56410   0.41855   0.01267  Uiso   1.00
O18    O     0.36680   0.83997   0.48793   0.01267  Uiso   1.00
O19    O     0.44820   0.90795   0.50811   0.01267  Uiso   1.00
O20    O     0.04820   0.87175   0.50380   0.01267  Uiso   1.00
O21    O     0.75820   0.12790   0.41914   0.01267  Uiso   1.00
O22    O     0.91670   0.56749   0.98432   0.01267  Uiso   1.00
O23    O     0.92230   0.93531   0.02486   0.01267  Uiso   1.00
O24    O     0.77530   0.93590   0.08145   0.01267  Uiso   1.00
O25    O     0.36680   0.66003   0.01207   0.01267  Uiso   1.00
O26    O     0.44820   0.59205   0.99189   0.01267  Uiso   1.00
O27    O     0.04820   0.62825   0.99620   0.01267  Uiso   1.00
O28    O     0.75820   0.37210   0.08086   0.01267  Uiso   1.00
O29    O     0.08330   0.48432   0.43251   0.01267  Uiso   1.00
O30    O     0.07770   0.52486   0.06469   0.01267  Uiso   1.00
O31    O     0.22470   0.58145   0.06410   0.01267  Uiso   1.00
O32    O     0.63320   0.51207   0.33997   0.01267  Uiso   1.00
O33    O     0.55180   0.49189   0.40795   0.01267  Uiso   1.00
O34    O     0.95180   0.49620   0.37175   0.01267  Uiso   1.00
O35    O     0.24180   0.58086   0.62790   0.01267  Uiso   1.00
O36    O     0.08330   0.01568   0.06749   0.01267  Uiso   1.00
O37    O     0.07770   0.97514   0.43531   0.01267  Uiso   1.00
O38    O     0.22470   0.91855   0.43590   0.01267  Uiso   1.00
O39    O     0.63320   0.98793   0.16003   0.01267  Uiso   1.00
O40    O     0.55180   0.00811   0.09205   0.01267  Uiso   1.00
O41    O     0.95180   0.00380   0.12825   0.01267  Uiso   1.00
O42    O     0.24180   0.91914   0.87210   0.01267  Uiso   1.00
O43    O     0.08330   0.06749   0.48432   0.01267  Uiso   1.00
O44    O     0.07770   0.43531   0.52486   0.01267  Uiso   1.00
O45    O     0.22470   0.43590   0.58145   0.01267  Uiso   1.00
O46    O     0.63320   0.16003   0.51207   0.01267  Uiso   1.00
O47    O     0.55180   0.09205   0.49189   0.01267  Uiso   1.00
O48    O     0.95180   0.12825   0.49620   0.01267  Uiso   1.00
O49    O     0.24180   0.87210   0.58086   0.01267  Uiso   1.00
O50    O     0.08330   0.43251   0.01568   0.01267  Uiso   1.00
O51    O     0.07770   0.06469   0.97514   0.01267  Uiso   1.00
O52    O     0.22470   0.06410   0.91855   0.01267  Uiso   1.00
O53    O     0.63320   0.33997   0.98793   0.01267  Uiso   1.00
O54    O     0.55180   0.40795   0.00811   0.01267  Uiso   1.00
O55    O     0.95180   0.37175   0.00380   0.01267  Uiso   1.00
O56    O     0.24180   0.62790   0.91914   0.01267  Uiso   1.00
Mn13   Mn    0.63637   0.75000   0.75000   0.01267  Uiso   1.00
H81    H     0.62730   0.57120   0.76480   0.01267  Uiso   1.00
H82    H     0.62680   0.58530   0.67950   0.01267  Uiso   1.00
H83    H     0.42530   0.59690   0.83130   0.01267  Uiso   1.00
H84    H     0.39450   0.53400   0.88150   0.01267  Uiso   1.00
H85    H     0.75640   0.54450   0.92660   0.01267  Uiso   1.00
H86    H     0.79180   0.60860   0.87940   0.01267  Uiso   1.00
H87    H     0.61660   0.49520   0.96490   0.01267  Uiso   1.00
H88    H     0.46530   0.49840   0.95450   0.01267  Uiso   1.00
H89    H     0.55550   0.46620   0.92240   0.01267  Uiso   1.00
H90    H     0.62730   0.92880   0.73520   0.01267  Uiso   1.00
H91    H     0.62680   0.91470   0.82050   0.01267  Uiso   1.00
H92    H     0.42530   0.90310   0.66870   0.01267  Uiso   1.00
H93    H     0.39450   0.96600   0.61850   0.01267  Uiso   1.00
H94    H     0.75640   0.95550   0.57340   0.01267  Uiso   1.00
H95    H     0.79180   0.89140   0.62060   0.01267  Uiso   1.00
H96    H     0.61660   0.00480   0.53510   0.01267  Uiso   1.00
H97    H     0.46530   0.00160   0.54550   0.01267  Uiso   1.00
H98    H     0.55550   0.03380   0.57760   0.01267  Uiso   1.00
H99    H     0.62730   0.73520   0.57120   0.01267  Uiso   1.00
H100   H     0.62680   0.82050   0.58530   0.01267  Uiso   1.00
H101   H     0.42530   0.66870   0.59690   0.01267  Uiso   1.00
H102   H     0.39450   0.61850   0.53400   0.01267  Uiso   1.00
H103   H     0.75640   0.57340   0.54450   0.01267  Uiso   1.00
H104   H     0.79180   0.62060   0.60860   0.01267  Uiso   1.00
H105   H     0.61660   0.53510   0.49520   0.01267  Uiso   1.00
H106   H     0.46530   0.54550   0.49840   0.01267  Uiso   1.00
H107   H     0.55550   0.57760   0.46620   0.01267  Uiso   1.00
H108   H     0.62730   0.76480   0.92880   0.01267  Uiso   1.00
H109   H     0.62680   0.67950   0.91470   0.01267  Uiso   1.00
H110   H     0.42530   0.83130   0.90310   0.01267  Uiso   1.00
H111   H     0.39450   0.88150   0.96600   0.01267  Uiso   1.00
H112   H     0.75640   0.92660   0.95550   0.01267  Uiso   1.00
H113   H     0.79180   0.87940   0.89140   0.01267  Uiso   1.00
H114   H     0.61660   0.96490   0.00480   0.01267  Uiso   1.00
H115   H     0.46530   0.95450   0.00160   0.01267  Uiso   1.00
H116   H     0.55550   0.92240   0.03380   0.01267  Uiso   1.00
C129   C     0.63020   0.64564   0.77187   0.01267  Uiso   1.00
C130   C     0.62970   0.65257   0.82009   0.01267  Uiso   1.00
C131   C     0.63290   0.65799   0.69610   0.01267  Uiso   1.00
C132   C     0.62850   0.60092   0.74970   0.01267  Uiso   1.00
C133   C     0.62880   0.60865   0.70334   0.01267  Uiso   1.00
C134   C     0.61240   0.61039   0.85058   0.01267  Uiso   1.00
C135   C     0.49320   0.58690   0.85130   0.01267  Uiso   1.00
C136   C     0.47520   0.54970   0.88060   0.01267  Uiso   1.00
C137   C     0.68840   0.55609   0.90750   0.01267  Uiso   1.00
C138   C     0.70990   0.59367   0.87940   0.01267  Uiso   1.00
C139   C     0.55090   0.49549   0.94024   0.01267  Uiso   1.00
C140   C     0.63020   0.85436   0.72813   0.01267  Uiso   1.00
C141   C     0.62970   0.84743   0.67991   0.01267  Uiso   1.00
C142   C     0.63290   0.84201   0.80390   0.01267  Uiso   1.00
C143   C     0.62850   0.89908   0.75030   0.01267  Uiso   1.00
C144   C     0.62880   0.89135   0.79666   0.01267  Uiso   1.00
C145   C     0.61240   0.88961   0.64942   0.01267  Uiso   1.00
C146   C     0.49320   0.91310   0.64870   0.01267  Uiso   1.00
C147   C     0.47520   0.95030   0.61940   0.01267  Uiso   1.00
C148   C     0.68840   0.94391   0.59250   0.01267  Uiso   1.00
C149   C     0.70990   0.90633   0.62060   0.01267  Uiso   1.00
C150   C     0.55090   0.00451   0.55976   0.01267  Uiso   1.00
C151   C     0.63020   0.72813   0.64564   0.01267  Uiso   1.00
C152   C     0.62970   0.67991   0.65257   0.01267  Uiso   1.00
C153   C     0.63290   0.80390   0.65799   0.01267  Uiso   1.00
C154   C     0.62850   0.75030   0.60092   0.01267  Uiso   1.00
C155   C     0.62880   0.79666   0.60865   0.01267  Uiso   1.00
C156   C     0.61240   0.64942   0.61039   0.01267  Uiso   1.00
C157   C     0.49320   0.64870   0.58690   0.01267  Uiso   1.00
C158   C     0.47520   0.61940   0.54970   0.01267  Uiso   1.00
C159   C     0.68840   0.59250   0.55609   0.01267  Uiso   1.00
C160   C     0.70990   0.62060   0.59367   0.01267  Uiso   1.00
C161   C     0.55090   0.55976   0.49549   0.01267  Uiso   1.00
C162   C     0.63020   0.77187   0.85436   0.01267  Uiso   1.00
C163   C     0.62970   0.82009   0.84743   0.01267  Uiso   1.00
C164   C     0.63290   0.69610   0.84201   0.01267  Uiso   1.00
C165   C     0.62850   0.74970   0.89908   0.01267  Uiso   1.00
C166   C     0.62880   0.70334   0.89135   0.01267  Uiso   1.00
C167   C     0.61240   0.85058   0.88961   0.01267  Uiso   1.00
C168   C     0.49320   0.85130   0.91310   0.01267  Uiso   1.00
C169   C     0.47520   0.88060   0.95030   0.01267  Uiso   1.00
C170   C     0.68840   0.90750   0.94391   0.01267  Uiso   1.00
C171   C     0.70990   0.87940   0.90633   0.01267  Uiso   1.00
C172   C     0.55090   0.94024   0.00451   0.01267  Uiso   1.00
N1     N     0.63440   0.68024   0.73870   0.01267  Uiso   1.00
N2     N     0.57360   0.53527   0.90877   0.01267  Uiso   1.00
N3     N     0.63440   0.81976   0.76130   0.01267  Uiso   1.00
N4     N     0.57360   0.96473   0.59123   0.01267  Uiso   1.00
N5     N     0.63440   0.76130   0.68024   0.01267  Uiso   1.00
N6     N     0.57360   0.59123   0.53527   0.01267  Uiso   1.00
N7     N     0.63440   0.73870   0.81976   0.01267  Uiso   1.00
N8     N     0.57360   0.90877   0.96473   0.01267  Uiso   1.00
O57    O     0.85090   0.75000   0.75000   0.01267  Uiso   1.00
O58    O     0.42190   0.75000   0.75000   0.01267  Uiso   1.00
Mn14   Mn    0.36363   0.25000   0.25000   0.01267  Uiso   1.00
H117   H     0.37270   0.42880   0.23520   0.01267  Uiso   1.00
H118   H     0.37320   0.41470   0.32050   0.01267  Uiso   1.00
H119   H     0.57470   0.40310   0.16870   0.01267  Uiso   1.00
H120   H     0.60550   0.46600   0.11850   0.01267  Uiso   1.00
H121   H     0.24360   0.45550   0.07340   0.01267  Uiso   1.00
H122   H     0.20820   0.39140   0.12060   0.01267  Uiso   1.00
H123   H     0.38340   0.50480   0.03510   0.01267  Uiso   1.00
H124   H     0.53470   0.50160   0.04550   0.01267  Uiso   1.00
H125   H     0.44450   0.53380   0.07760   0.01267  Uiso   1.00
H126   H     0.37270   0.07120   0.26480   0.01267  Uiso   1.00
H127   H     0.37320   0.08530   0.17950   0.01267  Uiso   1.00
H128   H     0.57470   0.09690   0.33130   0.01267  Uiso   1.00
H129   H     0.60550   0.03400   0.38150   0.01267  Uiso   1.00
H130   H     0.24360   0.04450   0.42660   0.01267  Uiso   1.00
H131   H     0.20820   0.10860   0.37940   0.01267  Uiso   1.00
H132   H     0.38340   0.99520   0.46490   0.01267  Uiso   1.00
H133   H     0.53470   0.99840   0.45450   0.01267  Uiso   1.00
H134   H     0.44450   0.96620   0.42240   0.01267  Uiso   1.00
H135   H     0.37270   0.26480   0.42880   0.01267  Uiso   1.00
H136   H     0.37320   0.17950   0.41470   0.01267  Uiso   1.00
H137   H     0.57470   0.33130   0.40310   0.01267  Uiso   1.00
H138   H     0.60550   0.38150   0.46600   0.01267  Uiso   1.00
H139   H     0.24360   0.42660   0.45550   0.01267  Uiso   1.00
H140   H     0.20820   0.37940   0.39140   0.01267  Uiso   1.00
H141   H     0.38340   0.46490   0.50480   0.01267  Uiso   1.00
H142   H     0.53470   0.45450   0.50160   0.01267  Uiso   1.00
H143   H     0.44450   0.42240   0.53380   0.01267  Uiso   1.00
H144   H     0.37270   0.23520   0.07120   0.01267  Uiso   1.00
H145   H     0.37320   0.32050   0.08530   0.01267  Uiso   1.00
H146   H     0.57470   0.16870   0.09690   0.01267  Uiso   1.00
H147   H     0.60550   0.11850   0.03400   0.01267  Uiso   1.00
H148   H     0.24360   0.07340   0.04450   0.01267  Uiso   1.00
H149   H     0.20820   0.12060   0.10860   0.01267  Uiso   1.00
H150   H     0.38340   0.03510   0.99520   0.01267  Uiso   1.00
H151   H     0.53470   0.04550   0.99840   0.01267  Uiso   1.00
H152   H     0.44450   0.07760   0.96620   0.01267  Uiso   1.00
C173   C     0.36980   0.35436   0.22813   0.01267  Uiso   1.00
C174   C     0.37030   0.34743   0.17991   0.01267  Uiso   1.00
C175   C     0.36710   0.34201   0.30390   0.01267  Uiso   1.00
C176   C     0.37150   0.39908   0.25030   0.01267  Uiso   1.00
C177   C     0.37120   0.39135   0.29666   0.01267  Uiso   1.00
C178   C     0.38760   0.38961   0.14942   0.01267  Uiso   1.00
C179   C     0.50680   0.41310   0.14870   0.01267  Uiso   1.00
C180   C     0.52480   0.45030   0.11940   0.01267  Uiso   1.00
C181   C     0.31160   0.44391   0.09250   0.01267  Uiso   1.00
C182   C     0.29010   0.40633   0.12060   0.01267  Uiso   1.00
C183   C     0.44910   0.50451   0.05976   0.01267  Uiso   1.00
C184   C     0.36980   0.14564   0.27187   0.01267  Uiso   1.00
C185   C     0.37030   0.15257   0.32009   0.01267  Uiso   1.00
C186   C     0.36710   0.15799   0.19610   0.01267  Uiso   1.00
C187   C     0.37150   0.10092   0.24970   0.01267  Uiso   1.00
C188   C     0.37120   0.10865   0.20334   0.01267  Uiso   1.00
C189   C     0.38760   0.11039   0.35058   0.01267  Uiso   1.00
C190   C     0.50680   0.08690   0.35130   0.01267  Uiso   1.00
C191   C     0.52480   0.04970   0.38060   0.01267  Uiso   1.00
C192   C     0.31160   0.05609   0.40750   0.01267  Uiso   1.00
C193   C     0.29010   0.09367   0.37940   0.01267  Uiso   1.00
C194   C     0.44910   0.99549   0.44024   0.01267  Uiso   1.00
C195   C     0.36980   0.27187   0.35436   0.01267  Uiso   1.00
C196   C     0.37030   0.32009   0.34743   0.01267  Uiso   1.00
C197   C     0.36710   0.19610   0.34201   0.01267  Uiso   1.00
C198   C     0.37150   0.24970   0.39908   0.01267  Uiso   1.00
C199   C     0.37120   0.20334   0.39135   0.01267  Uiso   1.00
C200   C     0.38760   0.35058   0.38961   0.01267  Uiso   1.00
C201   C     0.50680   0.35130   0.41310   0.01267  Uiso   1.00
C202   C     0.52480   0.38060   0.45030   0.01267  Uiso   1.00
C203   C     0.31160   0.40750   0.44391   0.01267  Uiso   1.00
C204   C     0.29010   0.37940   0.40633   0.01267  Uiso   1.00
C205   C     0.44910   0.44024   0.50451   0.01267  Uiso   1.00
C206   C     0.36980   0.22813   0.14564   0.01267  Uiso   1.00
C207   C     0.37030   0.17991   0.15257   0.01267  Uiso   1.00
C208   C     0.36710   0.30390   0.15799   0.01267  Uiso   1.00
C209   C     0.37150   0.25030   0.10092   0.01267  Uiso   1.00
C210   C     0.37120   0.29666   0.10865   0.01267  Uiso   1.00
C211   C     0.38760   0.14942   0.11039   0.01267  Uiso   1.00
C212   C     0.50680   0.14870   0.08690   0.01267  Uiso   1.00
C213   C     0.52480   0.11940   0.04970   0.01267  Uiso   1.00
C214   C     0.31160   0.09250   0.05609   0.01267  Uiso   1.00
C215   C     0.29010   0.12060   0.09367   0.01267  Uiso   1.00
C216   C     0.44910   0.05976   0.99549   0.01267  Uiso   1.00
N9     N     0.36560   0.31976   0.26130   0.01267  Uiso   1.00
N10    N     0.42640   0.46473   0.09123   0.01267  Uiso   1.00
N11    N     0.36560   0.18024   0.23870   0.01267  Uiso   1.00
N12    N     0.42640   0.03527   0.40877   0.01267  Uiso   1.00
N13    N     0.36560   0.23870   0.31976   0.01267  Uiso   1.00
N14    N     0.42640   0.40877   0.46473   0.01267  Uiso   1.00
N15    N     0.36560   0.26130   0.18024   0.01267  Uiso   1.00
N16    N     0.42640   0.09123   0.03527   0.01267  Uiso   1.00
O59    O     0.14910   0.25000   0.25000   0.01267  Uiso   1.00
O60    O     0.57810   0.25000   0.25000   0.01267  Uiso   1.00
