data_DANZAV_charged
_audit_creation_date              2014-07-02
_audit_creation_method            'Materials Studio'
_symmetry_space_group_name_H-M    'P1'
_symmetry_Int_Tables_number       1
_symmetry_cell_setting            triclinic
loop_
_symmetry_equiv_pos_as_xyz
  x,y,z
_cell_length_a                    10.3646
_cell_length_b                    28.9318
_cell_length_c                    28.9318
_cell_angle_alpha                 90.0000
_cell_angle_beta                  90.0000
_cell_angle_gamma                 90.0000
loop_
_atom_site_label
_atom_site_type_symbol
_atom_site_fract_x
_atom_site_fract_y
_atom_site_fract_z
_atom_site_U_iso_or_equiv
_atom_site_adp_type
_atom_site_occupancy
Cd1    Cd    0.23176   0.51158   0.90549   0.01267  Uiso   1.00
Cd2    Cd    0.23176   0.98842   0.59451   0.01267  Uiso   1.00
Cd3    Cd    0.23176   0.59451   0.51158   0.01267  Uiso   1.00
Cd4    Cd    0.23176   0.90549   0.98842   0.01267  Uiso   1.00
Cd5    Cd    0.76824   0.48842   0.09451   0.01267  Uiso   1.00
Cd6    Cd    0.76824   0.01158   0.40549   0.01267  Uiso   1.00
Cd7    Cd    0.76824   0.40549   0.48842   0.01267  Uiso   1.00
Cd8    Cd    0.76824   0.09451   0.01158   0.01267  Uiso   1.00
Cd9    Cd    0.00000   0.50000   0.00000   0.01267  Uiso   1.00
Cd10   Cd    0.00000   0.00000   0.50000   0.01267  Uiso   1.00
Cd11   Cd    0.00000   0.50000   0.50000   0.01267  Uiso   1.00
Cd12   Cd    0.00000   0.00000   0.00000   0.01267  Uiso   1.00
H1     H     0.67100   0.64370   0.08950   0.01267  Uiso   1.00
H2     H     0.62700   0.72120   0.07560   0.01267  Uiso   1.00
H3     H     0.89680   0.72260   0.97530   0.01267  Uiso   1.00
H4     H     0.93580   0.64480   0.98730   0.01267  Uiso   1.00
H5     H     0.92620   0.79630   0.00810   0.01267  Uiso   1.00
H6     H     0.69410   0.90740   0.99740   0.01267  Uiso   1.00
H7     H     0.54170   0.78020   0.01920   0.01267  Uiso   1.00
H8     H     0.67100   0.85630   0.41050   0.01267  Uiso   1.00
H9     H     0.62700   0.77880   0.42440   0.01267  Uiso   1.00
H10    H     0.89680   0.77740   0.52470   0.01267  Uiso   1.00
H11    H     0.93580   0.85520   0.51270   0.01267  Uiso   1.00
H12    H     0.92620   0.70370   0.49190   0.01267  Uiso   1.00
H13    H     0.69410   0.59260   0.50260   0.01267  Uiso   1.00
H14    H     0.54170   0.71980   0.48080   0.01267  Uiso   1.00
H15    H     0.67100   0.41050   0.64370   0.01267  Uiso   1.00
H16    H     0.62700   0.42440   0.72120   0.01267  Uiso   1.00
H17    H     0.89680   0.52470   0.72260   0.01267  Uiso   1.00
H18    H     0.93580   0.51270   0.64480   0.01267  Uiso   1.00
H19    H     0.92620   0.49190   0.79630   0.01267  Uiso   1.00
H20    H     0.69410   0.50260   0.90740   0.01267  Uiso   1.00
H21    H     0.54170   0.48080   0.78020   0.01267  Uiso   1.00
H22    H     0.67100   0.08950   0.85630   0.01267  Uiso   1.00
H23    H     0.62700   0.07560   0.77880   0.01267  Uiso   1.00
H24    H     0.89680   0.97530   0.77740   0.01267  Uiso   1.00
H25    H     0.93580   0.98730   0.85520   0.01267  Uiso   1.00
H26    H     0.92620   0.00810   0.70370   0.01267  Uiso   1.00
H27    H     0.69410   0.99740   0.59260   0.01267  Uiso   1.00
H28    H     0.54170   0.01920   0.71980   0.01267  Uiso   1.00
H29    H     0.32900   0.35630   0.91050   0.01267  Uiso   1.00
H30    H     0.37300   0.27880   0.92440   0.01267  Uiso   1.00
H31    H     0.10320   0.27740   0.02470   0.01267  Uiso   1.00
H32    H     0.06420   0.35520   0.01270   0.01267  Uiso   1.00
H33    H     0.07380   0.20370   0.99190   0.01267  Uiso   1.00
H34    H     0.30590   0.09260   0.00260   0.01267  Uiso   1.00
H35    H     0.45830   0.21980   0.98080   0.01267  Uiso   1.00
H36    H     0.32900   0.14370   0.58950   0.01267  Uiso   1.00
H37    H     0.37300   0.22120   0.57560   0.01267  Uiso   1.00
H38    H     0.10320   0.22260   0.47530   0.01267  Uiso   1.00
H39    H     0.06420   0.14480   0.48730   0.01267  Uiso   1.00
H40    H     0.07380   0.29630   0.50810   0.01267  Uiso   1.00
H41    H     0.30590   0.40740   0.49740   0.01267  Uiso   1.00
H42    H     0.45830   0.28020   0.51920   0.01267  Uiso   1.00
H43    H     0.32900   0.58950   0.35630   0.01267  Uiso   1.00
H44    H     0.37300   0.57560   0.27880   0.01267  Uiso   1.00
H45    H     0.10320   0.47530   0.27740   0.01267  Uiso   1.00
H46    H     0.06420   0.48730   0.35520   0.01267  Uiso   1.00
H47    H     0.07380   0.50810   0.20370   0.01267  Uiso   1.00
H48    H     0.30590   0.49740   0.09260   0.01267  Uiso   1.00
H49    H     0.45830   0.51920   0.21980   0.01267  Uiso   1.00
H50    H     0.32900   0.91050   0.14370   0.01267  Uiso   1.00
H51    H     0.37300   0.92440   0.22120   0.01267  Uiso   1.00
H52    H     0.10320   0.02470   0.22260   0.01267  Uiso   1.00
H53    H     0.06420   0.01270   0.14480   0.01267  Uiso   1.00
H54    H     0.07380   0.99190   0.29630   0.01267  Uiso   1.00
H55    H     0.30590   0.00260   0.40740   0.01267  Uiso   1.00
H56    H     0.45830   0.98080   0.28020   0.01267  Uiso   1.00
C1     C     0.83890   0.58620   0.04880   0.01267  Uiso   1.00
C2     C     0.81030   0.63680   0.04070   0.01267  Uiso   1.00
C3     C     0.71730   0.65980   0.06610   0.01267  Uiso   1.00
C4     C     0.69110   0.70590   0.05780   0.01267  Uiso   1.00
C5     C     0.75740   0.73020   0.02370   0.01267  Uiso   1.00
C6     C     0.84950   0.70660   0.99850   0.01267  Uiso   1.00
C7     C     0.87450   0.66040   0.00600   0.01267  Uiso   1.00
C8     C     0.73600   0.78040   0.01620   0.01267  Uiso   1.00
C9     C     0.84200   0.80930   0.00840   0.01267  Uiso   1.00
C10    C     0.82770   0.85610   0.00130   0.01267  Uiso   1.00
C11    C     0.70480   0.87500   0.00130   0.01267  Uiso   1.00
C12    C     0.59730   0.84710   0.00710   0.01267  Uiso   1.00
C13    C     0.61490   0.79950   0.01480   0.01267  Uiso   1.00
C14    C     0.46440   0.86700   0.00150   0.01267  Uiso   1.00
C15    C     0.94520   0.88580   0.99290   0.01267  Uiso   1.00
C16    C     0.83890   0.91380   0.45120   0.01267  Uiso   1.00
C17    C     0.81030   0.86320   0.45930   0.01267  Uiso   1.00
C18    C     0.71730   0.84020   0.43390   0.01267  Uiso   1.00
C19    C     0.69110   0.79410   0.44220   0.01267  Uiso   1.00
C20    C     0.75740   0.76980   0.47630   0.01267  Uiso   1.00
C21    C     0.84950   0.79340   0.50150   0.01267  Uiso   1.00
C22    C     0.87450   0.83960   0.49400   0.01267  Uiso   1.00
C23    C     0.73600   0.71960   0.48380   0.01267  Uiso   1.00
C24    C     0.84200   0.69070   0.49160   0.01267  Uiso   1.00
C25    C     0.82770   0.64390   0.49870   0.01267  Uiso   1.00
C26    C     0.70480   0.62500   0.49870   0.01267  Uiso   1.00
C27    C     0.59730   0.65290   0.49290   0.01267  Uiso   1.00
C28    C     0.61490   0.70050   0.48520   0.01267  Uiso   1.00
C29    C     0.46440   0.63300   0.49850   0.01267  Uiso   1.00
C30    C     0.94520   0.61420   0.50710   0.01267  Uiso   1.00
C31    C     0.83890   0.45120   0.58620   0.01267  Uiso   1.00
C32    C     0.81030   0.45930   0.63680   0.01267  Uiso   1.00
C33    C     0.71730   0.43390   0.65980   0.01267  Uiso   1.00
C34    C     0.69110   0.44220   0.70590   0.01267  Uiso   1.00
C35    C     0.75740   0.47630   0.73020   0.01267  Uiso   1.00
C36    C     0.84950   0.50150   0.70660   0.01267  Uiso   1.00
C37    C     0.87450   0.49400   0.66040   0.01267  Uiso   1.00
C38    C     0.73600   0.48380   0.78040   0.01267  Uiso   1.00
C39    C     0.84200   0.49160   0.80930   0.01267  Uiso   1.00
C40    C     0.82770   0.49870   0.85610   0.01267  Uiso   1.00
C41    C     0.70480   0.49870   0.87500   0.01267  Uiso   1.00
C42    C     0.59730   0.49290   0.84710   0.01267  Uiso   1.00
C43    C     0.61490   0.48520   0.79950   0.01267  Uiso   1.00
C44    C     0.46440   0.49850   0.86700   0.01267  Uiso   1.00
C45    C     0.94520   0.50710   0.88580   0.01267  Uiso   1.00
C46    C     0.83890   0.04880   0.91380   0.01267  Uiso   1.00
C47    C     0.81030   0.04070   0.86320   0.01267  Uiso   1.00
C48    C     0.71730   0.06610   0.84020   0.01267  Uiso   1.00
C49    C     0.69110   0.05780   0.79410   0.01267  Uiso   1.00
C50    C     0.75740   0.02370   0.76980   0.01267  Uiso   1.00
C51    C     0.84950   0.99850   0.79340   0.01267  Uiso   1.00
C52    C     0.87450   0.00600   0.83960   0.01267  Uiso   1.00
C53    C     0.73600   0.01620   0.71960   0.01267  Uiso   1.00
C54    C     0.84200   0.00840   0.69070   0.01267  Uiso   1.00
C55    C     0.82770   0.00130   0.64390   0.01267  Uiso   1.00
C56    C     0.70480   0.00130   0.62500   0.01267  Uiso   1.00
C57    C     0.59730   0.00710   0.65290   0.01267  Uiso   1.00
C58    C     0.61490   0.01480   0.70050   0.01267  Uiso   1.00
C59    C     0.46440   0.00150   0.63300   0.01267  Uiso   1.00
C60    C     0.94520   0.99290   0.61420   0.01267  Uiso   1.00
C61    C     0.16110   0.41380   0.95120   0.01267  Uiso   1.00
C62    C     0.18970   0.36320   0.95930   0.01267  Uiso   1.00
C63    C     0.28270   0.34020   0.93390   0.01267  Uiso   1.00
C64    C     0.30890   0.29410   0.94220   0.01267  Uiso   1.00
C65    C     0.24260   0.26980   0.97630   0.01267  Uiso   1.00
C66    C     0.15050   0.29340   0.00150   0.01267  Uiso   1.00
C67    C     0.12550   0.33960   0.99400   0.01267  Uiso   1.00
C68    C     0.26400   0.21960   0.98380   0.01267  Uiso   1.00
C69    C     0.15800   0.19070   0.99160   0.01267  Uiso   1.00
C70    C     0.17230   0.14390   0.99870   0.01267  Uiso   1.00
C71    C     0.29520   0.12500   0.99870   0.01267  Uiso   1.00
C72    C     0.40270   0.15290   0.99290   0.01267  Uiso   1.00
C73    C     0.38510   0.20050   0.98520   0.01267  Uiso   1.00
C74    C     0.53560   0.13300   0.99850   0.01267  Uiso   1.00
C75    C     0.05480   0.11420   0.00710   0.01267  Uiso   1.00
C76    C     0.16110   0.08620   0.54880   0.01267  Uiso   1.00
C77    C     0.18970   0.13680   0.54070   0.01267  Uiso   1.00
C78    C     0.28270   0.15980   0.56610   0.01267  Uiso   1.00
C79    C     0.30890   0.20590   0.55780   0.01267  Uiso   1.00
C80    C     0.24260   0.23020   0.52370   0.01267  Uiso   1.00
C81    C     0.15050   0.20660   0.49850   0.01267  Uiso   1.00
C82    C     0.12550   0.16040   0.50600   0.01267  Uiso   1.00
C83    C     0.26400   0.28040   0.51620   0.01267  Uiso   1.00
C84    C     0.15800   0.30930   0.50840   0.01267  Uiso   1.00
C85    C     0.17230   0.35610   0.50130   0.01267  Uiso   1.00
C86    C     0.29520   0.37500   0.50130   0.01267  Uiso   1.00
C87    C     0.40270   0.34710   0.50710   0.01267  Uiso   1.00
C88    C     0.38510   0.29950   0.51480   0.01267  Uiso   1.00
C89    C     0.53560   0.36700   0.50150   0.01267  Uiso   1.00
C90    C     0.05480   0.38580   0.49290   0.01267  Uiso   1.00
C91    C     0.16110   0.54880   0.41380   0.01267  Uiso   1.00
C92    C     0.18970   0.54070   0.36320   0.01267  Uiso   1.00
C93    C     0.28270   0.56610   0.34020   0.01267  Uiso   1.00
C94    C     0.30890   0.55780   0.29410   0.01267  Uiso   1.00
C95    C     0.24260   0.52370   0.26980   0.01267  Uiso   1.00
C96    C     0.15050   0.49850   0.29340   0.01267  Uiso   1.00
C97    C     0.12550   0.50600   0.33960   0.01267  Uiso   1.00
C98    C     0.26400   0.51620   0.21960   0.01267  Uiso   1.00
C99    C     0.15800   0.50840   0.19070   0.01267  Uiso   1.00
C100   C     0.17230   0.50130   0.14390   0.01267  Uiso   1.00
C101   C     0.29520   0.50130   0.12500   0.01267  Uiso   1.00
C102   C     0.40270   0.50710   0.15290   0.01267  Uiso   1.00
C103   C     0.38510   0.51480   0.20050   0.01267  Uiso   1.00
C104   C     0.53560   0.50150   0.13300   0.01267  Uiso   1.00
C105   C     0.05480   0.49290   0.11420   0.01267  Uiso   1.00
C106   C     0.16110   0.95120   0.08620   0.01267  Uiso   1.00
C107   C     0.18970   0.95930   0.13680   0.01267  Uiso   1.00
C108   C     0.28270   0.93390   0.15980   0.01267  Uiso   1.00
C109   C     0.30890   0.94220   0.20590   0.01267  Uiso   1.00
C110   C     0.24260   0.97630   0.23020   0.01267  Uiso   1.00
C111   C     0.15050   0.00150   0.20660   0.01267  Uiso   1.00
C112   C     0.12550   0.99400   0.16040   0.01267  Uiso   1.00
C113   C     0.26400   0.98380   0.28040   0.01267  Uiso   1.00
C114   C     0.15800   0.99160   0.30930   0.01267  Uiso   1.00
C115   C     0.17230   0.99870   0.35610   0.01267  Uiso   1.00
C116   C     0.29520   0.99870   0.37500   0.01267  Uiso   1.00
C117   C     0.40270   0.99290   0.34710   0.01267  Uiso   1.00
C118   C     0.38510   0.98520   0.29950   0.01267  Uiso   1.00
C119   C     0.53560   0.99850   0.36700   0.01267  Uiso   1.00
C120   C     0.05480   0.00710   0.38580   0.01267  Uiso   1.00
Cl1    Cl    0.22063   0.54006   0.98917   0.01267  Uiso   1.00
Cl2    Cl    0.22063   0.95994   0.51083   0.01267  Uiso   1.00
Cl3    Cl    0.22063   0.51083   0.54006   0.01267  Uiso   1.00
Cl4    Cl    0.22063   0.98917   0.95994   0.01267  Uiso   1.00
Cl5    Cl    0.77937   0.45994   0.01083   0.01267  Uiso   1.00
Cl6    Cl    0.77937   0.04006   0.48917   0.01267  Uiso   1.00
Cl7    Cl    0.77937   0.48917   0.45994   0.01267  Uiso   1.00
Cl8    Cl    0.77937   0.01083   0.04006   0.01267  Uiso   1.00
O1     O     0.77670   0.56610   0.07955   0.01267  Uiso   1.00
O2     O     0.92110   0.56839   0.02217   0.01267  Uiso   1.00
O3     O     0.05190   0.86610   0.99884   0.01267  Uiso   1.00
O4     O     0.92900   0.92688   0.98114   0.01267  Uiso   1.00
O5     O     0.20940   0.59060   0.88520   0.01267  Uiso   1.00
O6     O     0.36800   0.84120   0.00660   0.01267  Uiso   1.00
O7     O     0.45540   0.90939   0.99095   0.01267  Uiso   1.00
O8     O     0.77670   0.93390   0.42045   0.01267  Uiso   1.00
O9     O     0.92110   0.93161   0.47783   0.01267  Uiso   1.00
O10    O     0.05190   0.63390   0.50116   0.01267  Uiso   1.00
O11    O     0.92900   0.57312   0.51886   0.01267  Uiso   1.00
O12    O     0.20940   0.90940   0.61480   0.01267  Uiso   1.00
O13    O     0.36800   0.65880   0.49340   0.01267  Uiso   1.00
O14    O     0.45540   0.59061   0.50905   0.01267  Uiso   1.00
O15    O     0.77670   0.42045   0.56610   0.01267  Uiso   1.00
O16    O     0.92110   0.47783   0.56839   0.01267  Uiso   1.00
O17    O     0.05190   0.50116   0.86610   0.01267  Uiso   1.00
O18    O     0.92900   0.51886   0.92688   0.01267  Uiso   1.00
O19    O     0.20940   0.61480   0.59060   0.01267  Uiso   1.00
O20    O     0.36800   0.49340   0.84120   0.01267  Uiso   1.00
O21    O     0.45540   0.50905   0.90939   0.01267  Uiso   1.00
O22    O     0.77670   0.07955   0.93390   0.01267  Uiso   1.00
O23    O     0.92110   0.02217   0.93161   0.01267  Uiso   1.00
O24    O     0.05190   0.99884   0.63390   0.01267  Uiso   1.00
O25    O     0.92900   0.98114   0.57312   0.01267  Uiso   1.00
O26    O     0.20940   0.88520   0.90940   0.01267  Uiso   1.00
O27    O     0.36800   0.00660   0.65880   0.01267  Uiso   1.00
O28    O     0.45540   0.99095   0.59061   0.01267  Uiso   1.00
O29    O     0.22330   0.43390   0.92045   0.01267  Uiso   1.00
O30    O     0.07890   0.43161   0.97783   0.01267  Uiso   1.00
O31    O     0.94810   0.13390   0.00116   0.01267  Uiso   1.00
O32    O     0.07100   0.07312   0.01886   0.01267  Uiso   1.00
O33    O     0.79060   0.40940   0.11480   0.01267  Uiso   1.00
O34    O     0.63200   0.15880   0.99340   0.01267  Uiso   1.00
O35    O     0.54460   0.09061   0.00905   0.01267  Uiso   1.00
O36    O     0.22330   0.06610   0.57955   0.01267  Uiso   1.00
O37    O     0.07890   0.06839   0.52217   0.01267  Uiso   1.00
O38    O     0.94810   0.36610   0.49884   0.01267  Uiso   1.00
O39    O     0.07100   0.42688   0.48114   0.01267  Uiso   1.00
O40    O     0.79060   0.09060   0.38520   0.01267  Uiso   1.00
O41    O     0.63200   0.34120   0.50660   0.01267  Uiso   1.00
O42    O     0.54460   0.40939   0.49095   0.01267  Uiso   1.00
O43    O     0.22330   0.57955   0.43390   0.01267  Uiso   1.00
O44    O     0.07890   0.52217   0.43161   0.01267  Uiso   1.00
O45    O     0.94810   0.49884   0.13390   0.01267  Uiso   1.00
O46    O     0.07100   0.48114   0.07312   0.01267  Uiso   1.00
O47    O     0.79060   0.38520   0.40940   0.01267  Uiso   1.00
O48    O     0.63200   0.50660   0.15880   0.01267  Uiso   1.00
O49    O     0.54460   0.49095   0.09061   0.01267  Uiso   1.00
O50    O     0.22330   0.92045   0.06610   0.01267  Uiso   1.00
O51    O     0.07890   0.97783   0.06839   0.01267  Uiso   1.00
O52    O     0.94810   0.00116   0.36610   0.01267  Uiso   1.00
O53    O     0.07100   0.01886   0.42688   0.01267  Uiso   1.00
O54    O     0.79060   0.11480   0.09060   0.01267  Uiso   1.00
O55    O     0.63200   0.99340   0.34120   0.01267  Uiso   1.00
O56    O     0.54460   0.00905   0.40939   0.01267  Uiso   1.00
Cd13   Cd    0.74017   0.75000   0.75000   0.01267  Uiso   1.00
H57    H     0.62170   0.76660   0.57210   0.01267  Uiso   1.00
H58    H     0.61920   0.68170   0.58530   0.01267  Uiso   1.00
H59    H     0.40830   0.88300   0.53870   0.01267  Uiso   1.00
H60    H     0.43980   0.83280   0.60010   0.01267  Uiso   1.00
H61    H     0.80370   0.88050   0.61320   0.01267  Uiso   1.00
H62    H     0.76700   0.92840   0.54940   0.01267  Uiso   1.00
H63    H     0.62720   0.96600   0.50080   0.01267  Uiso   1.00
H64    H     0.56780   0.92430   0.47140   0.01267  Uiso   1.00
H65    H     0.47610   0.95500   0.50360   0.01267  Uiso   1.00
H66    H     0.62170   0.73340   0.92790   0.01267  Uiso   1.00
H67    H     0.61920   0.81830   0.91470   0.01267  Uiso   1.00
H68    H     0.40830   0.61700   0.96130   0.01267  Uiso   1.00
H69    H     0.43980   0.66720   0.89990   0.01267  Uiso   1.00
H70    H     0.80370   0.61950   0.88680   0.01267  Uiso   1.00
H71    H     0.76700   0.57160   0.95060   0.01267  Uiso   1.00
H72    H     0.62720   0.53400   0.99920   0.01267  Uiso   1.00
H73    H     0.56780   0.57570   0.02860   0.01267  Uiso   1.00
H74    H     0.47610   0.54500   0.99640   0.01267  Uiso   1.00
H75    H     0.62170   0.92790   0.76660   0.01267  Uiso   1.00
H76    H     0.61920   0.91470   0.68170   0.01267  Uiso   1.00
H77    H     0.40830   0.96130   0.88300   0.01267  Uiso   1.00
H78    H     0.43980   0.89990   0.83280   0.01267  Uiso   1.00
H79    H     0.80370   0.88680   0.88050   0.01267  Uiso   1.00
H80    H     0.76700   0.95060   0.92840   0.01267  Uiso   1.00
H81    H     0.62720   0.99920   0.96600   0.01267  Uiso   1.00
H82    H     0.56780   0.02860   0.92430   0.01267  Uiso   1.00
H83    H     0.47610   0.99640   0.95500   0.01267  Uiso   1.00
H84    H     0.62170   0.57210   0.73340   0.01267  Uiso   1.00
H85    H     0.61920   0.58530   0.81830   0.01267  Uiso   1.00
H86    H     0.40830   0.53870   0.61700   0.01267  Uiso   1.00
H87    H     0.43980   0.60010   0.66720   0.01267  Uiso   1.00
H88    H     0.80370   0.61320   0.61950   0.01267  Uiso   1.00
H89    H     0.76700   0.54940   0.57160   0.01267  Uiso   1.00
H90    H     0.62720   0.50080   0.53400   0.01267  Uiso   1.00
H91    H     0.56780   0.47140   0.57570   0.01267  Uiso   1.00
H92    H     0.47610   0.50360   0.54500   0.01267  Uiso   1.00
C121   C     0.64610   0.77290   0.64540   0.01267  Uiso   1.00
C122   C     0.63020   0.75130   0.60100   0.01267  Uiso   1.00
C123   C     0.62970   0.70490   0.60820   0.01267  Uiso   1.00
C124   C     0.64800   0.69740   0.65690   0.01267  Uiso   1.00
C125   C     0.64330   0.82070   0.65440   0.01267  Uiso   1.00
C126   C     0.48940   0.88200   0.55400   0.01267  Uiso   1.00
C127   C     0.50760   0.85270   0.59050   0.01267  Uiso   1.00
C128   C     0.62560   0.85200   0.61360   0.01267  Uiso   1.00
C129   C     0.72210   0.88030   0.59820   0.01267  Uiso   1.00
C130   C     0.69990   0.90900   0.56050   0.01267  Uiso   1.00
C131   C     0.56230   0.94140   0.50060   0.01267  Uiso   1.00
C132   C     0.64610   0.72710   0.85460   0.01267  Uiso   1.00
C133   C     0.63020   0.74870   0.89900   0.01267  Uiso   1.00
C134   C     0.62970   0.79510   0.89180   0.01267  Uiso   1.00
C135   C     0.64800   0.80260   0.84310   0.01267  Uiso   1.00
C136   C     0.64330   0.67930   0.84560   0.01267  Uiso   1.00
C137   C     0.48940   0.61800   0.94600   0.01267  Uiso   1.00
C138   C     0.50760   0.64730   0.90950   0.01267  Uiso   1.00
C139   C     0.62560   0.64800   0.88640   0.01267  Uiso   1.00
C140   C     0.72210   0.61970   0.90180   0.01267  Uiso   1.00
C141   C     0.69990   0.59100   0.93950   0.01267  Uiso   1.00
C142   C     0.56230   0.55860   0.99940   0.01267  Uiso   1.00
C143   C     0.64610   0.85460   0.77290   0.01267  Uiso   1.00
C144   C     0.63020   0.89900   0.75130   0.01267  Uiso   1.00
C145   C     0.62970   0.89180   0.70490   0.01267  Uiso   1.00
C146   C     0.64800   0.84310   0.69740   0.01267  Uiso   1.00
C147   C     0.64330   0.84560   0.82070   0.01267  Uiso   1.00
C148   C     0.48940   0.94600   0.88200   0.01267  Uiso   1.00
C149   C     0.50760   0.90950   0.85270   0.01267  Uiso   1.00
C150   C     0.62560   0.88640   0.85200   0.01267  Uiso   1.00
C151   C     0.72210   0.90180   0.88030   0.01267  Uiso   1.00
C152   C     0.69990   0.93950   0.90900   0.01267  Uiso   1.00
C153   C     0.56230   0.99940   0.94140   0.01267  Uiso   1.00
C154   C     0.64610   0.64540   0.72710   0.01267  Uiso   1.00
C155   C     0.63020   0.60100   0.74870   0.01267  Uiso   1.00
C156   C     0.62970   0.60820   0.79510   0.01267  Uiso   1.00
C157   C     0.64800   0.65690   0.80260   0.01267  Uiso   1.00
C158   C     0.64330   0.65440   0.67930   0.01267  Uiso   1.00
C159   C     0.48940   0.55400   0.61800   0.01267  Uiso   1.00
C160   C     0.50760   0.59050   0.64730   0.01267  Uiso   1.00
C161   C     0.62560   0.61360   0.64800   0.01267  Uiso   1.00
C162   C     0.72210   0.59820   0.61970   0.01267  Uiso   1.00
C163   C     0.69990   0.56050   0.59100   0.01267  Uiso   1.00
C164   C     0.56230   0.50060   0.55860   0.01267  Uiso   1.00
N1     N     0.65870   0.73924   0.67827   0.01267  Uiso   1.00
N2     N     0.58610   0.90940   0.53980   0.01267  Uiso   1.00
N3     N     0.65870   0.76076   0.82173   0.01267  Uiso   1.00
N4     N     0.58610   0.59060   0.96020   0.01267  Uiso   1.00
N5     N     0.65870   0.82173   0.73924   0.01267  Uiso   1.00
N6     N     0.58610   0.96020   0.90940   0.01267  Uiso   1.00
N7     N     0.65870   0.67827   0.76076   0.01267  Uiso   1.00
N8     N     0.58610   0.53980   0.59060   0.01267  Uiso   1.00
Cl9    Cl    0.97730   0.75000   0.75000   0.01267  Uiso   1.00
Cd14   Cd    0.25983   0.25000   0.25000   0.01267  Uiso   1.00
H93    H     0.37830   0.23340   0.42790   0.01267  Uiso   1.00
H94    H     0.38080   0.31830   0.41470   0.01267  Uiso   1.00
H95    H     0.59170   0.11700   0.46130   0.01267  Uiso   1.00
H96    H     0.56020   0.16720   0.39990   0.01267  Uiso   1.00
H97    H     0.19630   0.11950   0.38680   0.01267  Uiso   1.00
H98    H     0.23300   0.07160   0.45060   0.01267  Uiso   1.00
H99    H     0.37280   0.03400   0.49920   0.01267  Uiso   1.00
H100   H     0.43220   0.07570   0.52860   0.01267  Uiso   1.00
H101   H     0.52390   0.04500   0.49640   0.01267  Uiso   1.00
H102   H     0.37830   0.26660   0.07210   0.01267  Uiso   1.00
H103   H     0.38080   0.18170   0.08530   0.01267  Uiso   1.00
H104   H     0.59170   0.38300   0.03870   0.01267  Uiso   1.00
H105   H     0.56020   0.33280   0.10010   0.01267  Uiso   1.00
H106   H     0.19630   0.38050   0.11320   0.01267  Uiso   1.00
H107   H     0.23300   0.42840   0.04940   0.01267  Uiso   1.00
H108   H     0.37280   0.46600   0.00080   0.01267  Uiso   1.00
H109   H     0.43220   0.42430   0.97140   0.01267  Uiso   1.00
H110   H     0.52390   0.45500   0.00360   0.01267  Uiso   1.00
H111   H     0.37830   0.07210   0.23340   0.01267  Uiso   1.00
H112   H     0.38080   0.08530   0.31830   0.01267  Uiso   1.00
H113   H     0.59170   0.03870   0.11700   0.01267  Uiso   1.00
H114   H     0.56020   0.10010   0.16720   0.01267  Uiso   1.00
H115   H     0.19630   0.11320   0.11950   0.01267  Uiso   1.00
H116   H     0.23300   0.04940   0.07160   0.01267  Uiso   1.00
H117   H     0.37280   0.00080   0.03400   0.01267  Uiso   1.00
H118   H     0.43220   0.97140   0.07570   0.01267  Uiso   1.00
H119   H     0.52390   0.00360   0.04500   0.01267  Uiso   1.00
H120   H     0.37830   0.42790   0.26660   0.01267  Uiso   1.00
H121   H     0.38080   0.41470   0.18170   0.01267  Uiso   1.00
H122   H     0.59170   0.46130   0.38300   0.01267  Uiso   1.00
H123   H     0.56020   0.39990   0.33280   0.01267  Uiso   1.00
H124   H     0.19630   0.38680   0.38050   0.01267  Uiso   1.00
H125   H     0.23300   0.45060   0.42840   0.01267  Uiso   1.00
H126   H     0.37280   0.49920   0.46600   0.01267  Uiso   1.00
H127   H     0.43220   0.52860   0.42430   0.01267  Uiso   1.00
H128   H     0.52390   0.49640   0.45500   0.01267  Uiso   1.00
C165   C     0.35390   0.22710   0.35460   0.01267  Uiso   1.00
C166   C     0.36980   0.24870   0.39900   0.01267  Uiso   1.00
C167   C     0.37030   0.29510   0.39180   0.01267  Uiso   1.00
C168   C     0.35200   0.30260   0.34310   0.01267  Uiso   1.00
C169   C     0.35670   0.17930   0.34560   0.01267  Uiso   1.00
C170   C     0.51060   0.11800   0.44600   0.01267  Uiso   1.00
C171   C     0.49240   0.14730   0.40950   0.01267  Uiso   1.00
C172   C     0.37440   0.14800   0.38640   0.01267  Uiso   1.00
C173   C     0.27790   0.11970   0.40180   0.01267  Uiso   1.00
C174   C     0.30010   0.09100   0.43950   0.01267  Uiso   1.00
C175   C     0.43770   0.05860   0.49940   0.01267  Uiso   1.00
C176   C     0.35390   0.27290   0.14540   0.01267  Uiso   1.00
C177   C     0.36980   0.25130   0.10100   0.01267  Uiso   1.00
C178   C     0.37030   0.20490   0.10820   0.01267  Uiso   1.00
C179   C     0.35200   0.19740   0.15690   0.01267  Uiso   1.00
C180   C     0.35670   0.32070   0.15440   0.01267  Uiso   1.00
C181   C     0.51060   0.38200   0.05400   0.01267  Uiso   1.00
C182   C     0.49240   0.35270   0.09050   0.01267  Uiso   1.00
C183   C     0.37440   0.35200   0.11360   0.01267  Uiso   1.00
C184   C     0.27790   0.38030   0.09820   0.01267  Uiso   1.00
C185   C     0.30010   0.40900   0.06050   0.01267  Uiso   1.00
C186   C     0.43770   0.44140   0.00060   0.01267  Uiso   1.00
C187   C     0.35390   0.14540   0.22710   0.01267  Uiso   1.00
C188   C     0.36980   0.10100   0.24870   0.01267  Uiso   1.00
C189   C     0.37030   0.10820   0.29510   0.01267  Uiso   1.00
C190   C     0.35200   0.15690   0.30260   0.01267  Uiso   1.00
C191   C     0.35670   0.15440   0.17930   0.01267  Uiso   1.00
C192   C     0.51060   0.05400   0.11800   0.01267  Uiso   1.00
C193   C     0.49240   0.09050   0.14730   0.01267  Uiso   1.00
C194   C     0.37440   0.11360   0.14800   0.01267  Uiso   1.00
C195   C     0.27790   0.09820   0.11970   0.01267  Uiso   1.00
C196   C     0.30010   0.06050   0.09100   0.01267  Uiso   1.00
C197   C     0.43770   0.00060   0.05860   0.01267  Uiso   1.00
C198   C     0.35390   0.35460   0.27290   0.01267  Uiso   1.00
C199   C     0.36980   0.39900   0.25130   0.01267  Uiso   1.00
C200   C     0.37030   0.39180   0.20490   0.01267  Uiso   1.00
C201   C     0.35200   0.34310   0.19740   0.01267  Uiso   1.00
C202   C     0.35670   0.34560   0.32070   0.01267  Uiso   1.00
C203   C     0.51060   0.44600   0.38200   0.01267  Uiso   1.00
C204   C     0.49240   0.40950   0.35270   0.01267  Uiso   1.00
C205   C     0.37440   0.38640   0.35200   0.01267  Uiso   1.00
C206   C     0.27790   0.40180   0.38030   0.01267  Uiso   1.00
C207   C     0.30010   0.43950   0.40900   0.01267  Uiso   1.00
C208   C     0.43770   0.49940   0.44140   0.01267  Uiso   1.00
N9     N     0.34130   0.26076   0.32173   0.01267  Uiso   1.00
N10    N     0.41390   0.09060   0.46020   0.01267  Uiso   1.00
N11    N     0.34130   0.23924   0.17827   0.01267  Uiso   1.00
N12    N     0.41390   0.40940   0.03980   0.01267  Uiso   1.00
N13    N     0.34130   0.17827   0.26076   0.01267  Uiso   1.00
N14    N     0.41390   0.03980   0.09060   0.01267  Uiso   1.00
N15    N     0.34130   0.32173   0.23924   0.01267  Uiso   1.00
N16    N     0.41390   0.46020   0.40940   0.01267  Uiso   1.00
Cl10   Cl    0.02270   0.25000   0.25000   0.01267  Uiso   1.00
