data_image0
_cell_length_a       8.885
_cell_length_b       14.231
_cell_length_c       15.049
_cell_angle_alpha    90
_cell_angle_beta     94.957
_cell_angle_gamma    90

_symmetry_space_group_name_H-M    "P 1"
_symmetry_int_tables_number       1

loop_
  _symmetry_equiv_pos_as_xyz
  'x, y, z'

loop_
  _atom_site_label
  _atom_site_occupancy
  _atom_site_fract_x
  _atom_site_fract_y
  _atom_site_fract_z
  _atom_site_thermal_displace_type
  _atom_site_B_iso_or_equiv
  _atom_site_type_symbol
  Al1      1.0000 0.32124  0.94097  0.24364  Biso   1.000  Al
  Al2      1.0000 0.87886  0.94029  0.09008  Biso   1.000  Al
  Al3      1.0000 0.14067  0.57051  0.11507  Biso   1.000  Al
  Zn1      1.0000 0.92411  0.71420  0.83571  Biso   1.000  Zn
  Al4      1.0000 0.92411  0.78580  0.33571  Biso   1.000  Al
  O1       1.0000 0.99630  0.03790  0.12240  Biso   1.000  O
  O2       1.0000 0.20030  0.96070  0.50930  Biso   1.000  O
  P1       1.0000 0.09925  0.78182  0.16227  Biso   1.000  P
  O3       1.0000 0.20130  0.05310  0.02150  Biso   1.000  O
  O4       1.0000 0.26540  0.04670  0.18510  Biso   1.000  O
  P2       1.0000 0.14955  0.07982  0.11219  Biso   1.000  P
  O5       1.0000 0.73420  0.02460  0.30090  Biso   1.000  O
  P3       1.0000 0.14032  0.94420  0.41283  Biso   1.000  P
  O6       1.0000 0.14600  0.69270  0.11780  Biso   1.000  O
  O7       1.0000 0.04570  0.85500  0.40860  Biso   1.000  O
  P4       1.0000 0.68561  0.93384  0.25361  Biso   1.000  P
  O8       1.0000 0.72650  0.93630  0.15840  Biso   1.000  O
  O9       1.0000 0.04420  0.02640  0.37760  Biso   1.000  O
  O10      1.0000 0.27450  0.93440  0.35870  Biso   1.000  O
  O11      1.0000 0.98700  0.83450  0.09980  Biso   1.000  O
  O12      1.0000 0.76470  0.85270  0.30310  Biso   1.000  O
  O13      1.0000 0.51910  0.92040  0.25170  Biso   1.000  O
  O14      1.0000 0.02820  0.75590  0.24610  Biso   1.000  O
  O15      1.0000 0.13860  0.18590  0.11550  Biso   1.000  O
  O16      1.0000 0.23890  0.83950  0.18290  Biso   1.000  O
  Al5      1.0000 0.67876  0.44097  0.25636  Biso   1.000  Al
  Al6      1.0000 0.12114  0.44029  0.40992  Biso   1.000  Al
  Al7      1.0000 0.85933  0.07051  0.38493  Biso   1.000  Al
  Zn2      1.0000 0.07589  0.21420  0.66429  Biso   1.000  Zn
  Al8      1.0000 0.07589  0.28580  0.16429  Biso   1.000  Al
  O17      1.0000 0.00370  0.53790  0.37760  Biso   1.000  O
  O18      1.0000 0.79970  0.46070  0.99070  Biso   1.000  O
  P5       1.0000 0.90075  0.28182  0.33773  Biso   1.000  P
  O19      1.0000 0.79870  0.55310  0.47850  Biso   1.000  O
  O20      1.0000 0.73460  0.54670  0.31490  Biso   1.000  O
  P6       1.0000 0.85045  0.57982  0.38781  Biso   1.000  P
  O21      1.0000 0.26580  0.52460  0.19910  Biso   1.000  O
  P7       1.0000 0.85968  0.44420  0.08717  Biso   1.000  P
  O22      1.0000 0.85400  0.19270  0.38220  Biso   1.000  O
  O23      1.0000 0.95430  0.35500  0.09140  Biso   1.000  O
  P8       1.0000 0.31439  0.43384  0.24639  Biso   1.000  P
  O24      1.0000 0.27350  0.43630  0.34160  Biso   1.000  O
  O25      1.0000 0.95580  0.52640  0.12240  Biso   1.000  O
  O26      1.0000 0.72550  0.43440  0.14130  Biso   1.000  O
  O27      1.0000 0.01300  0.33450  0.40020  Biso   1.000  O
  O28      1.0000 0.23530  0.35270  0.19690  Biso   1.000  O
  O29      1.0000 0.48090  0.42040  0.24830  Biso   1.000  O
  O30      1.0000 0.97180  0.25590  0.25390  Biso   1.000  O
  O31      1.0000 0.86140  0.68590  0.38450  Biso   1.000  O
  O32      1.0000 0.76110  0.33950  0.31710  Biso   1.000  O
  Al9      1.0000 0.67876  0.05903  0.75636  Biso   1.000  Al
  Al10     1.0000 0.12114  0.05971  0.90992  Biso   1.000  Al
  Al11     1.0000 0.85933  0.42949  0.88493  Biso   1.000  Al
  O33      1.0000 0.00370  0.96210  0.87760  Biso   1.000  O
  O34      1.0000 0.79970  0.03930  0.49070  Biso   1.000  O
  P9       1.0000 0.90075  0.21818  0.83773  Biso   1.000  P
  O35      1.0000 0.79870  0.94690  0.97850  Biso   1.000  O
  O36      1.0000 0.73460  0.95330  0.81490  Biso   1.000  O
  P10      1.0000 0.85045  0.92018  0.88781  Biso   1.000  P
  O37      1.0000 0.26580  0.97540  0.69910  Biso   1.000  O
  P11      1.0000 0.85968  0.05580  0.58717  Biso   1.000  P
  O38      1.0000 0.85400  0.30730  0.88220  Biso   1.000  O
  O39      1.0000 0.95430  0.14500  0.59140  Biso   1.000  O
  P12      1.0000 0.31439  0.06616  0.74639  Biso   1.000  P
  O40      1.0000 0.27350  0.06370  0.84160  Biso   1.000  O
  O41      1.0000 0.95580  0.97360  0.62240  Biso   1.000  O
  O42      1.0000 0.72550  0.06560  0.64130  Biso   1.000  O
  O43      1.0000 0.01300  0.16550  0.90020  Biso   1.000  O
  O44      1.0000 0.23530  0.14730  0.69690  Biso   1.000  O
  O45      1.0000 0.48090  0.07960  0.74830  Biso   1.000  O
  O46      1.0000 0.97180  0.24410  0.75390  Biso   1.000  O
  O47      1.0000 0.86140  0.81410  0.88450  Biso   1.000  O
  O48      1.0000 0.76110  0.16050  0.81710  Biso   1.000  O
  Al12     1.0000 0.32124  0.55903  0.74364  Biso   1.000  Al
  Al13     1.0000 0.87886  0.55971  0.59008  Biso   1.000  Al
  Al14     1.0000 0.14067  0.92949  0.61507  Biso   1.000  Al
  O49      1.0000 0.99630  0.46210  0.62240  Biso   1.000  O
  O50      1.0000 0.20030  0.53930  0.00930  Biso   1.000  O
  P13      1.0000 0.09925  0.71818  0.66227  Biso   1.000  P
  O51      1.0000 0.20130  0.44690  0.52150  Biso   1.000  O
  O52      1.0000 0.26540  0.45330  0.68510  Biso   1.000  O
  P14      1.0000 0.14955  0.42018  0.61219  Biso   1.000  P
  O53      1.0000 0.73420  0.47540  0.80090  Biso   1.000  O
  P15      1.0000 0.14032  0.55580  0.91283  Biso   1.000  P
  O54      1.0000 0.14600  0.80730  0.61780  Biso   1.000  O
  O55      1.0000 0.04570  0.64500  0.90860  Biso   1.000  O
  P16      1.0000 0.68561  0.56616  0.75361  Biso   1.000  P
  O56      1.0000 0.72650  0.56370  0.65840  Biso   1.000  O
  O57      1.0000 0.04420  0.47360  0.87760  Biso   1.000  O
  O58      1.0000 0.27450  0.56560  0.85870  Biso   1.000  O
  O59      1.0000 0.98700  0.66550  0.59980  Biso   1.000  O
  O60      1.0000 0.76470  0.64730  0.80310  Biso   1.000  O
  O61      1.0000 0.51910  0.57960  0.75170  Biso   1.000  O
  O62      1.0000 0.02820  0.74410  0.74610  Biso   1.000  O
  O63      1.0000 0.13860  0.31410  0.61550  Biso   1.000  O
  O64      1.0000 0.23890  0.66050  0.68290  Biso   1.000  O
