data_image0
_cell_length_a       6.62
_cell_length_b       26.282
_cell_length_c       7.667
_cell_angle_alpha    90
_cell_angle_beta     90
_cell_angle_gamma    90

_symmetry_space_group_name_H-M    P 1
_symmetry_int_tables_number       1

loop_
  _symmetry_equiv_pos_as_xyz
  'x, y, z'

loop_
  _atom_site_label
  _atom_site_occupancy
  _atom_site_fract_x
  _atom_site_fract_y
  _atom_site_fract_z
  _atom_site_thermal_displace_type
  _atom_site_B_iso_or_equiv
  _atom_site_type_symbol
  Co1      1.0000 0.98584  0.28336  0.25071  Biso   1.000  Co
  Co2      1.0000 0.01416  0.71664  0.25071  Biso   1.000  Co
  Co3      1.0000 0.48584  0.21664  0.74929  Biso   1.000  Co
  Co4      1.0000 0.51416  0.78336  0.74929  Biso   1.000  Co
  H1       1.0000 0.97240  0.14830  0.41170  Biso   1.000  H
  H2       1.0000 0.08290  0.13510  0.13520  Biso   1.000  H
  H3       1.0000 0.27520  0.14210  0.25100  Biso   1.000  H
  H4       1.0000 0.96660  0.39490  0.38290  Biso   1.000  H
  H5       1.0000 0.16260  0.46720  0.40000  Biso   1.000  H
  H6       1.0000 0.61860  0.38900  0.18340  Biso   1.000  H
  H7       1.0000 0.40390  0.32020  0.16620  Biso   1.000  H
  H8       1.0000 0.02760  0.85170  0.41170  Biso   1.000  H
  H9       1.0000 0.91710  0.86490  0.13520  Biso   1.000  H
  H10      1.0000 0.72480  0.85790  0.25100  Biso   1.000  H
  H11      1.0000 0.03340  0.60510  0.38290  Biso   1.000  H
  H12      1.0000 0.83740  0.53280  0.40000  Biso   1.000  H
  H13      1.0000 0.38140  0.61100  0.18340  Biso   1.000  H
  H14      1.0000 0.59610  0.67980  0.16620  Biso   1.000  H
  H15      1.0000 0.47240  0.35170  0.58830  Biso   1.000  H
  H16      1.0000 0.58290  0.36490  0.86480  Biso   1.000  H
  H17      1.0000 0.77520  0.35790  0.74900  Biso   1.000  H
  H18      1.0000 0.46660  0.10510  0.61710  Biso   1.000  H
  H19      1.0000 0.66260  0.03280  0.60000  Biso   1.000  H
  H20      1.0000 0.11860  0.11100  0.81660  Biso   1.000  H
  H21      1.0000 0.90390  0.17980  0.83380  Biso   1.000  H
  H22      1.0000 0.52760  0.64830  0.58830  Biso   1.000  H
  H23      1.0000 0.41710  0.63510  0.86480  Biso   1.000  H
  H24      1.0000 0.22480  0.64210  0.74900  Biso   1.000  H
  H25      1.0000 0.53340  0.89490  0.61710  Biso   1.000  H
  H26      1.0000 0.33740  0.96720  0.60000  Biso   1.000  H
  H27      1.0000 0.88140  0.88900  0.81660  Biso   1.000  H
  H28      1.0000 0.09610  0.82020  0.83380  Biso   1.000  H
  C1       1.0000 0.14990  0.20840  0.48360  Biso   1.000  C
  C2       1.0000 0.02780  0.17820  0.35230  Biso   1.000  C
  C3       1.0000 0.15960  0.15970  0.20220  Biso   1.000  C
  C4       1.0000 0.23700  0.20060  0.07740  Biso   1.000  C
  C5       1.0000 0.09770  0.39400  0.33940  Biso   1.000  C
  C6       1.0000 0.21430  0.43770  0.35010  Biso   1.000  C
  C7       1.0000 0.40830  0.43650  0.28510  Biso   1.000  C
  C8       1.0000 0.48530  0.39160  0.22060  Biso   1.000  C
  C9       1.0000 0.35420  0.35030  0.21380  Biso   1.000  C
  C10      1.0000 0.85010  0.79160  0.48360  Biso   1.000  C
  C11      1.0000 0.97220  0.82180  0.35230  Biso   1.000  C
  C12      1.0000 0.84040  0.84030  0.20220  Biso   1.000  C
  C13      1.0000 0.76300  0.79940  0.07740  Biso   1.000  C
  C14      1.0000 0.90230  0.60600  0.33940  Biso   1.000  C
  C15      1.0000 0.78570  0.56230  0.35010  Biso   1.000  C
  C16      1.0000 0.59170  0.56350  0.28510  Biso   1.000  C
  C17      1.0000 0.51470  0.60840  0.22060  Biso   1.000  C
  C18      1.0000 0.64580  0.64970  0.21380  Biso   1.000  C
  C19      1.0000 0.64990  0.29160  0.51640  Biso   1.000  C
  C20      1.0000 0.52780  0.32180  0.64770  Biso   1.000  C
  C21      1.0000 0.65960  0.34030  0.79780  Biso   1.000  C
  C22      1.0000 0.73700  0.29940  0.92260  Biso   1.000  C
  C23      1.0000 0.59770  0.10600  0.66060  Biso   1.000  C
  C24      1.0000 0.71430  0.06230  0.64990  Biso   1.000  C
  C25      1.0000 0.90830  0.06350  0.71490  Biso   1.000  C
  C26      1.0000 0.98530  0.10840  0.77940  Biso   1.000  C
  C27      1.0000 0.85420  0.14970  0.78620  Biso   1.000  C
  C28      1.0000 0.35010  0.70840  0.51640  Biso   1.000  C
  C29      1.0000 0.47220  0.67820  0.64770  Biso   1.000  C
  C30      1.0000 0.34040  0.65970  0.79780  Biso   1.000  C
  C31      1.0000 0.26300  0.70060  0.92260  Biso   1.000  C
  C32      1.0000 0.40230  0.89400  0.66060  Biso   1.000  C
  C33      1.0000 0.28570  0.93770  0.64990  Biso   1.000  C
  C34      1.0000 0.09170  0.93650  0.71490  Biso   1.000  C
  C35      1.0000 0.01470  0.89160  0.77940  Biso   1.000  C
  C36      1.0000 0.14580  0.85030  0.78620  Biso   1.000  C
  N1       1.0000 0.16550  0.35000  0.26900  Biso   1.000  N
  N2       1.0000 0.54210  0.47920  0.28710  Biso   1.000  N
  N3       1.0000 0.83450  0.65000  0.26900  Biso   1.000  N
  N4       1.0000 0.45790  0.52080  0.28710  Biso   1.000  N
  N5       1.0000 0.66550  0.15000  0.73100  Biso   1.000  N
  N6       1.0000 0.04210  0.02080  0.71290  Biso   1.000  N
  N7       1.0000 0.33450  0.85000  0.73100  Biso   1.000  N
  N8       1.0000 0.95790  0.97920  0.71290  Biso   1.000  N
  O1       1.0000 0.12600  0.25641  0.47980  Biso   1.000  O
  O2       1.0000 0.86180  0.20657  0.27930  Biso   1.000  O
  O3       1.0000 0.20380  0.24696  0.10100  Biso   1.000  O
  O4       1.0000 0.34100  0.18336  0.95370  Biso   1.000  O
  O5       1.0000 0.26730  0.18460  0.57950  Biso   1.000  O
  O6       1.0000 0.87400  0.74359  0.47980  Biso   1.000  O
  O7       1.0000 0.13820  0.79343  0.27930  Biso   1.000  O
  O8       1.0000 0.79620  0.75304  0.10100  Biso   1.000  O
  O9       1.0000 0.65900  0.81664  0.95370  Biso   1.000  O
  O10      1.0000 0.73270  0.81540  0.57950  Biso   1.000  O
  O11      1.0000 0.62600  0.24359  0.52020  Biso   1.000  O
  O12      1.0000 0.36180  0.29343  0.72070  Biso   1.000  O
  O13      1.0000 0.70380  0.25304  0.89900  Biso   1.000  O
  O14      1.0000 0.84100  0.31664  0.04630  Biso   1.000  O
  O15      1.0000 0.76730  0.31540  0.42050  Biso   1.000  O
  O16      1.0000 0.37400  0.75641  0.52020  Biso   1.000  O
  O17      1.0000 0.63820  0.70657  0.72070  Biso   1.000  O
  O18      1.0000 0.29620  0.74696  0.89900  Biso   1.000  O
  O19      1.0000 0.15900  0.68336  0.04630  Biso   1.000  O
  O20      1.0000 0.23270  0.68460  0.42050  Biso   1.000  O
