data_image0
_cell_length_a       6.64
_cell_length_b       26.1792
_cell_length_c       7.6702
_cell_angle_alpha    90
_cell_angle_beta     90
_cell_angle_gamma    90

_symmetry_space_group_name_H-M    P 1
_symmetry_int_tables_number       1

loop_
  _symmetry_equiv_pos_as_xyz
  'x, y, z'

loop_
  _atom_site_label
  _atom_site_occupancy
  _atom_site_fract_x
  _atom_site_fract_y
  _atom_site_fract_z
  _atom_site_thermal_displace_type
  _atom_site_B_iso_or_equiv
  _atom_site_type_symbol
  Ni1      1.0000 0.00194  0.71677  0.75360  Biso   1.000  Ni
  Ni2      1.0000 0.99806  0.28323  0.75360  Biso   1.000  Ni
  Ni3      1.0000 0.50194  0.78323  0.24640  Biso   1.000  Ni
  Ni4      1.0000 0.49806  0.21677  0.24640  Biso   1.000  Ni
  H1       1.0000 0.38080  0.61110  0.68880  Biso   1.000  H
  H2       1.0000 0.01080  0.85130  0.90870  Biso   1.000  H
  H3       1.0000 0.90700  0.86320  0.63090  Biso   1.000  H
  H4       1.0000 0.71330  0.85650  0.74420  Biso   1.000  H
  H5       1.0000 0.58380  0.68180  0.67780  Biso   1.000  H
  H6       1.0000 0.03710  0.60560  0.86570  Biso   1.000  H
  H7       1.0000 0.84390  0.53160  0.87810  Biso   1.000  H
  H8       1.0000 0.61920  0.38890  0.68880  Biso   1.000  H
  H9       1.0000 0.98920  0.14870  0.90870  Biso   1.000  H
  H10      1.0000 0.09300  0.13680  0.63090  Biso   1.000  H
  H11      1.0000 0.28670  0.14350  0.74420  Biso   1.000  H
  H12      1.0000 0.41620  0.31820  0.67780  Biso   1.000  H
  H13      1.0000 0.96290  0.39440  0.86570  Biso   1.000  H
  H14      1.0000 0.15610  0.46840  0.87810  Biso   1.000  H
  H15      1.0000 0.88080  0.88890  0.31120  Biso   1.000  H
  H16      1.0000 0.51080  0.64870  0.09130  Biso   1.000  H
  H17      1.0000 0.40700  0.63680  0.36910  Biso   1.000  H
  H18      1.0000 0.21330  0.64350  0.25580  Biso   1.000  H
  H19      1.0000 0.08380  0.81820  0.32220  Biso   1.000  H
  H20      1.0000 0.53710  0.89440  0.13430  Biso   1.000  H
  H21      1.0000 0.34390  0.96840  0.12190  Biso   1.000  H
  H22      1.0000 0.11920  0.11110  0.31120  Biso   1.000  H
  H23      1.0000 0.48920  0.35130  0.09130  Biso   1.000  H
  H24      1.0000 0.59300  0.36320  0.36910  Biso   1.000  H
  H25      1.0000 0.78670  0.35650  0.25580  Biso   1.000  H
  H26      1.0000 0.91620  0.18180  0.32220  Biso   1.000  H
  H27      1.0000 0.46290  0.10560  0.13430  Biso   1.000  H
  H28      1.0000 0.65610  0.03160  0.12190  Biso   1.000  H
  C1       1.0000 0.51470  0.60890  0.72340  Biso   1.000  C
  C2       1.0000 0.95700  0.82110  0.84900  Biso   1.000  C
  C3       1.0000 0.82950  0.83860  0.69760  Biso   1.000  C
  C4       1.0000 0.83010  0.79050  0.97820  Biso   1.000  C
  C5       1.0000 0.75400  0.79780  0.57260  Biso   1.000  C
  C6       1.0000 0.63770  0.65110  0.71740  Biso   1.000  C
  C7       1.0000 0.59100  0.56420  0.78000  Biso   1.000  C
  C8       1.0000 0.90430  0.60650  0.82720  Biso   1.000  C
  C9       1.0000 0.78920  0.56190  0.83600  Biso   1.000  C
  C10      1.0000 0.48530  0.39110  0.72340  Biso   1.000  C
  C11      1.0000 0.04300  0.17890  0.84900  Biso   1.000  C
  C12      1.0000 0.17050  0.16140  0.69760  Biso   1.000  C
  C13      1.0000 0.16990  0.20950  0.97820  Biso   1.000  C
  C14      1.0000 0.24600  0.20220  0.57260  Biso   1.000  C
  C15      1.0000 0.36230  0.34890  0.71740  Biso   1.000  C
  C16      1.0000 0.40900  0.43580  0.78000  Biso   1.000  C
  C17      1.0000 0.09570  0.39350  0.82720  Biso   1.000  C
  C18      1.0000 0.21080  0.43810  0.83600  Biso   1.000  C
  C19      1.0000 0.01470  0.89110  0.27660  Biso   1.000  C
  C20      1.0000 0.45700  0.67890  0.15100  Biso   1.000  C
  C21      1.0000 0.32950  0.66140  0.30240  Biso   1.000  C
  C22      1.0000 0.33010  0.70950  0.02180  Biso   1.000  C
  C23      1.0000 0.25400  0.70220  0.42740  Biso   1.000  C
  C24      1.0000 0.13770  0.84890  0.28260  Biso   1.000  C
  C25      1.0000 0.09100  0.93580  0.22000  Biso   1.000  C
  C26      1.0000 0.40430  0.89350  0.17280  Biso   1.000  C
  C27      1.0000 0.28920  0.93810  0.16400  Biso   1.000  C
  C28      1.0000 0.98530  0.10890  0.27660  Biso   1.000  C
  C29      1.0000 0.54300  0.32110  0.15100  Biso   1.000  C
  C30      1.0000 0.67050  0.33860  0.30240  Biso   1.000  C
  C31      1.0000 0.66990  0.29050  0.02180  Biso   1.000  C
  C32      1.0000 0.74600  0.29780  0.42740  Biso   1.000  C
  C33      1.0000 0.86230  0.15110  0.28260  Biso   1.000  C
  C34      1.0000 0.90900  0.06420  0.22000  Biso   1.000  C
  C35      1.0000 0.59570  0.10650  0.17280  Biso   1.000  C
  C36      1.0000 0.71080  0.06190  0.16400  Biso   1.000  C
  N1       1.0000 0.83020  0.65017  0.76550  Biso   1.000  N
  N2       1.0000 0.45630  0.52100  0.78120  Biso   1.000  N
  N3       1.0000 0.16980  0.34983  0.76550  Biso   1.000  N
  N4       1.0000 0.54370  0.47900  0.78120  Biso   1.000  N
  N5       1.0000 0.33020  0.84983  0.23450  Biso   1.000  N
  N6       1.0000 0.95630  0.97900  0.21880  Biso   1.000  N
  N7       1.0000 0.66980  0.15017  0.23450  Biso   1.000  N
  N8       1.0000 0.04370  0.02100  0.21880  Biso   1.000  N
  O1       1.0000 0.71690  0.81417  0.07800  Biso   1.000  O
  O2       1.0000 0.79340  0.75133  0.59530  Biso   1.000  O
  O3       1.0000 0.65400  0.81496  0.44570  Biso   1.000  O
  O4       1.0000 0.85000  0.74224  0.97230  Biso   1.000  O
  O5       1.0000 0.12060  0.79219  0.78160  Biso   1.000  O
  O6       1.0000 0.28310  0.18583  0.07800  Biso   1.000  O
  O7       1.0000 0.20660  0.24867  0.59530  Biso   1.000  O
  O8       1.0000 0.34600  0.18504  0.44570  Biso   1.000  O
  O9       1.0000 0.15000  0.25776  0.97230  Biso   1.000  O
  O10      1.0000 0.87940  0.20781  0.78160  Biso   1.000  O
  O11      1.0000 0.21690  0.68583  0.92200  Biso   1.000  O
  O12      1.0000 0.29340  0.74867  0.40470  Biso   1.000  O
  O13      1.0000 0.15400  0.68504  0.55430  Biso   1.000  O
  O14      1.0000 0.35000  0.75776  0.02770  Biso   1.000  O
  O15      1.0000 0.62060  0.70781  0.21840  Biso   1.000  O
  O16      1.0000 0.78310  0.31417  0.92200  Biso   1.000  O
  O17      1.0000 0.70660  0.25133  0.40470  Biso   1.000  O
  O18      1.0000 0.84600  0.31496  0.55430  Biso   1.000  O
  O19      1.0000 0.65000  0.24224  0.02770  Biso   1.000  O
  O20      1.0000 0.37940  0.29219  0.21840  Biso   1.000  O
