data_image0
_cell_length_a       6.7002
_cell_length_b       27.1331
_cell_length_c       7.6817
_cell_angle_alpha    90
_cell_angle_beta     90
_cell_angle_gamma    90

_symmetry_space_group_name_H-M    P 1
_symmetry_int_tables_number       1

loop_
  _symmetry_equiv_pos_as_xyz
  'x, y, z'

loop_
  _atom_site_label
  _atom_site_occupancy
  _atom_site_fract_x
  _atom_site_fract_y
  _atom_site_fract_z
  _atom_site_thermal_displace_type
  _atom_site_B_iso_or_equiv
  _atom_site_type_symbol
  Co1      1.0000 0.99587  0.71742  0.24966  Biso   1.000  Co
  Co2      1.0000 0.00413  0.28258  0.24966  Biso   1.000  Co
  Co3      1.0000 0.49587  0.78258  0.75034  Biso   1.000  Co
  Co4      1.0000 0.50413  0.21742  0.75034  Biso   1.000  Co
  H1       1.0000 0.61630  0.61260  0.31050  Biso   1.000  H
  H2       1.0000 0.98960  0.84870  0.09040  Biso   1.000  H
  H3       1.0000 0.14790  0.53760  0.11660  Biso   1.000  H
  H4       1.0000 0.28440  0.85460  0.25570  Biso   1.000  H
  H5       1.0000 0.09290  0.86050  0.37010  Biso   1.000  H
  H6       1.0000 0.41300  0.68130  0.32170  Biso   1.000  H
  H7       1.0000 0.96820  0.61070  0.11670  Biso   1.000  H
  H8       1.0000 0.66900  0.52780  0.21620  Biso   1.000  H
  H9       1.0000 0.38370  0.38740  0.31050  Biso   1.000  H
  H10      1.0000 0.01040  0.15130  0.09040  Biso   1.000  H
  H11      1.0000 0.85210  0.46240  0.11660  Biso   1.000  H
  H12      1.0000 0.71560  0.14540  0.25570  Biso   1.000  H
  H13      1.0000 0.90710  0.13950  0.37010  Biso   1.000  H
  H14      1.0000 0.58700  0.31870  0.32170  Biso   1.000  H
  H15      1.0000 0.03180  0.38930  0.11670  Biso   1.000  H
  H16      1.0000 0.33100  0.47220  0.21620  Biso   1.000  H
  H17      1.0000 0.11630  0.88740  0.68950  Biso   1.000  H
  H18      1.0000 0.48960  0.65130  0.90960  Biso   1.000  H
  H19      1.0000 0.64790  0.96240  0.88340  Biso   1.000  H
  H20      1.0000 0.78440  0.64540  0.74430  Biso   1.000  H
  H21      1.0000 0.59290  0.63950  0.62990  Biso   1.000  H
  H22      1.0000 0.91300  0.81870  0.67830  Biso   1.000  H
  H23      1.0000 0.46820  0.88930  0.88330  Biso   1.000  H
  H24      1.0000 0.16900  0.97220  0.78380  Biso   1.000  H
  H25      1.0000 0.88370  0.11260  0.68950  Biso   1.000  H
  H26      1.0000 0.51040  0.34870  0.90960  Biso   1.000  H
  H27      1.0000 0.35210  0.03760  0.88340  Biso   1.000  H
  H28      1.0000 0.21560  0.35460  0.74430  Biso   1.000  H
  H29      1.0000 0.40710  0.36050  0.62990  Biso   1.000  H
  H30      1.0000 0.08700  0.18130  0.67830  Biso   1.000  H
  H31      1.0000 0.53180  0.11070  0.88330  Biso   1.000  H
  H32      1.0000 0.83100  0.02780  0.78380  Biso   1.000  H
  C1       1.0000 0.48400  0.61060  0.27470  Biso   1.000  C
  C2       1.0000 0.04220  0.81950  0.15030  Biso   1.000  C
  C3       1.0000 0.24680  0.79720  0.42510  Biso   1.000  C
  C4       1.0000 0.40610  0.56700  0.21460  Biso   1.000  C
  C5       1.0000 0.20590  0.56660  0.15720  Biso   1.000  C
  C6       1.0000 0.17030  0.83710  0.30240  Biso   1.000  C
  C7       1.0000 0.35930  0.65190  0.28070  Biso   1.000  C
  C8       1.0000 0.16660  0.79010  0.02040  Biso   1.000  C
  C9       1.0000 0.09660  0.61040  0.16270  Biso   1.000  C
  C10      1.0000 0.53160  0.52290  0.21550  Biso   1.000  C
  C11      1.0000 0.51600  0.38940  0.27470  Biso   1.000  C
  C12      1.0000 0.95780  0.18050  0.15030  Biso   1.000  C
  C13      1.0000 0.75320  0.20280  0.42510  Biso   1.000  C
  C14      1.0000 0.59390  0.43300  0.21460  Biso   1.000  C
  C15      1.0000 0.79410  0.43340  0.15720  Biso   1.000  C
  C16      1.0000 0.82970  0.16290  0.30240  Biso   1.000  C
  C17      1.0000 0.64070  0.34810  0.28070  Biso   1.000  C
  C18      1.0000 0.83340  0.20990  0.02040  Biso   1.000  C
  C19      1.0000 0.90340  0.38960  0.16270  Biso   1.000  C
  C20      1.0000 0.46840  0.47710  0.21550  Biso   1.000  C
  C21      1.0000 0.98400  0.88940  0.72530  Biso   1.000  C
  C22      1.0000 0.54220  0.68050  0.84970  Biso   1.000  C
  C23      1.0000 0.74680  0.70280  0.57490  Biso   1.000  C
  C24      1.0000 0.90610  0.93300  0.78540  Biso   1.000  C
  C25      1.0000 0.70590  0.93340  0.84280  Biso   1.000  C
  C26      1.0000 0.67030  0.66290  0.69760  Biso   1.000  C
  C27      1.0000 0.85930  0.84810  0.71930  Biso   1.000  C
  C28      1.0000 0.66660  0.70990  0.97960  Biso   1.000  C
  C29      1.0000 0.59660  0.88960  0.83730  Biso   1.000  C
  C30      1.0000 0.03160  0.97710  0.78450  Biso   1.000  C
  C31      1.0000 0.01600  0.11060  0.72530  Biso   1.000  C
  C32      1.0000 0.45780  0.31950  0.84970  Biso   1.000  C
  C33      1.0000 0.25320  0.29720  0.57490  Biso   1.000  C
  C34      1.0000 0.09390  0.06700  0.78540  Biso   1.000  C
  C35      1.0000 0.29410  0.06660  0.84280  Biso   1.000  C
  C36      1.0000 0.32970  0.33710  0.69760  Biso   1.000  C
  C37      1.0000 0.14070  0.15190  0.71930  Biso   1.000  C
  C38      1.0000 0.33340  0.29010  0.97960  Biso   1.000  C
  C39      1.0000 0.40340  0.11040  0.83730  Biso   1.000  C
  C40      1.0000 0.96840  0.02290  0.78450  Biso   1.000  C
  N1       1.0000 0.16950  0.65190  0.23170  Biso   1.000  N
  N2       1.0000 0.83050  0.34810  0.23170  Biso   1.000  N
  N3       1.0000 0.66950  0.84810  0.76830  Biso   1.000  N
  N4       1.0000 0.33050  0.15190  0.76830  Biso   1.000  N
  O1       1.0000 0.27770  0.81300  0.92190  Biso   1.000  O
  O2       1.0000 0.87580  0.79200  0.21840  Biso   1.000  O
  O3       1.0000 0.14350  0.74360  0.02450  Biso   1.000  O
  O4       1.0000 0.21030  0.75210  0.39980  Biso   1.000  O
  O5       1.0000 0.34160  0.81390  0.55110  Biso   1.000  O
  O6       1.0000 0.72230  0.18700  0.92190  Biso   1.000  O
  O7       1.0000 0.12420  0.20800  0.21840  Biso   1.000  O
  O8       1.0000 0.85650  0.25640  0.02450  Biso   1.000  O
  O9       1.0000 0.78970  0.24790  0.39980  Biso   1.000  O
  O10      1.0000 0.65840  0.18610  0.55110  Biso   1.000  O
  O11      1.0000 0.77770  0.68700  0.07810  Biso   1.000  O
  O12      1.0000 0.37580  0.70800  0.78160  Biso   1.000  O
  O13      1.0000 0.64350  0.75640  0.97550  Biso   1.000  O
  O14      1.0000 0.71030  0.74790  0.60020  Biso   1.000  O
  O15      1.0000 0.84160  0.68610  0.44890  Biso   1.000  O
  O16      1.0000 0.22230  0.31300  0.07810  Biso   1.000  O
  O17      1.0000 0.62420  0.29200  0.78160  Biso   1.000  O
  O18      1.0000 0.35650  0.24360  0.97550  Biso   1.000  O
  O19      1.0000 0.28970  0.25210  0.60020  Biso   1.000  O
  O20      1.0000 0.15840  0.31390  0.44890  Biso   1.000  O
