data_image0
_cell_length_a       6.6856
_cell_length_b       26.9967
_cell_length_c       7.6377
_cell_angle_alpha    90
_cell_angle_beta     90
_cell_angle_gamma    90

_symmetry_space_group_name_H-M    P 1
_symmetry_int_tables_number       1

loop_
  _symmetry_equiv_pos_as_xyz
  'x, y, z'

loop_
  _atom_site_label
  _atom_site_occupancy
  _atom_site_fract_x
  _atom_site_fract_y
  _atom_site_fract_z
  _atom_site_thermal_displace_type
  _atom_site_B_iso_or_equiv
  _atom_site_type_symbol
  Ni1      1.0000 0.49965  0.28242  0.74604  Biso   1.000  Ni
  Ni2      1.0000 0.50035  0.71758  0.74604  Biso   1.000  Ni
  Ni3      1.0000 0.99965  0.21758  0.25396  Biso   1.000  Ni
  Ni4      1.0000 0.00035  0.78242  0.25396  Biso   1.000  Ni
  H1       1.0000 0.35390  0.46130  0.61900  Biso   1.000  H
  H2       1.0000 0.50760  0.15140  0.59510  Biso   1.000  H
  H3       1.0000 0.88840  0.38650  0.80370  Biso   1.000  H
  H4       1.0000 0.53230  0.39020  0.62610  Biso   1.000  H
  H5       1.0000 0.08270  0.31790  0.82520  Biso   1.000  H
  H6       1.0000 0.83050  0.47170  0.71190  Biso   1.000  H
  H7       1.0000 0.40420  0.14110  0.87110  Biso   1.000  H
  H8       1.0000 0.21320  0.14760  0.75580  Biso   1.000  H
  H9       1.0000 0.64610  0.53870  0.61900  Biso   1.000  H
  H10      1.0000 0.49240  0.84860  0.59510  Biso   1.000  H
  H11      1.0000 0.11160  0.61350  0.80370  Biso   1.000  H
  H12      1.0000 0.46770  0.60980  0.62610  Biso   1.000  H
  H13      1.0000 0.91730  0.68210  0.82520  Biso   1.000  H
  H14      1.0000 0.16950  0.52830  0.71190  Biso   1.000  H
  H15      1.0000 0.59580  0.85890  0.87110  Biso   1.000  H
  H16      1.0000 0.78680  0.85240  0.75580  Biso   1.000  H
  H17      1.0000 0.85390  0.03870  0.38100  Biso   1.000  H
  H18      1.0000 0.00760  0.34860  0.40490  Biso   1.000  H
  H19      1.0000 0.38840  0.11350  0.19630  Biso   1.000  H
  H20      1.0000 0.03230  0.10980  0.37390  Biso   1.000  H
  H21      1.0000 0.58270  0.18210  0.17480  Biso   1.000  H
  H22      1.0000 0.33050  0.02830  0.28810  Biso   1.000  H
  H23      1.0000 0.90420  0.35890  0.12890  Biso   1.000  H
  H24      1.0000 0.71320  0.35240  0.24420  Biso   1.000  H
  H25      1.0000 0.14610  0.96130  0.38100  Biso   1.000  H
  H26      1.0000 0.99240  0.65140  0.40490  Biso   1.000  H
  H27      1.0000 0.61160  0.88650  0.19630  Biso   1.000  H
  H28      1.0000 0.96770  0.89020  0.37390  Biso   1.000  H
  H29      1.0000 0.41730  0.81790  0.17480  Biso   1.000  H
  H30      1.0000 0.66950  0.97170  0.28810  Biso   1.000  H
  H31      1.0000 0.09580  0.64110  0.12890  Biso   1.000  H
  H32      1.0000 0.28680  0.64760  0.24420  Biso   1.000  H
  C1       1.0000 0.09570  0.43220  0.71480  Biso   1.000  C
  C2       1.0000 0.29510  0.43230  0.66000  Biso   1.000  C
  C3       1.0000 0.45470  0.18090  0.65410  Biso   1.000  C
  C4       1.0000 0.02220  0.38850  0.77120  Biso   1.000  C
  C5       1.0000 0.40170  0.38980  0.66790  Biso   1.000  C
  C6       1.0000 0.13920  0.34690  0.78190  Biso   1.000  C
  C7       1.0000 0.25260  0.20390  0.92670  Biso   1.000  C
  C8       1.0000 0.96810  0.47670  0.71310  Biso   1.000  C
  C9       1.0000 0.32830  0.16490  0.80320  Biso   1.000  C
  C10      1.0000 0.32680  0.21120  0.52080  Biso   1.000  C
  C11      1.0000 0.90430  0.56780  0.71480  Biso   1.000  C
  C12      1.0000 0.70490  0.56770  0.66000  Biso   1.000  C
  C13      1.0000 0.54530  0.81910  0.65410  Biso   1.000  C
  C14      1.0000 0.97780  0.61150  0.77120  Biso   1.000  C
  C15      1.0000 0.59830  0.61020  0.66790  Biso   1.000  C
  C16      1.0000 0.86080  0.65310  0.78190  Biso   1.000  C
  C17      1.0000 0.74740  0.79610  0.92670  Biso   1.000  C
  C18      1.0000 0.03190  0.52330  0.71310  Biso   1.000  C
  C19      1.0000 0.67170  0.83510  0.80320  Biso   1.000  C
  C20      1.0000 0.67320  0.78880  0.52080  Biso   1.000  C
  C21      1.0000 0.59570  0.06780  0.28520  Biso   1.000  C
  C22      1.0000 0.79510  0.06770  0.34000  Biso   1.000  C
  C23      1.0000 0.95470  0.31910  0.34590  Biso   1.000  C
  C24      1.0000 0.52220  0.11150  0.22880  Biso   1.000  C
  C25      1.0000 0.90170  0.11020  0.33210  Biso   1.000  C
  C26      1.0000 0.63920  0.15310  0.21810  Biso   1.000  C
  C27      1.0000 0.75260  0.29610  0.07330  Biso   1.000  C
  C28      1.0000 0.46810  0.02330  0.28690  Biso   1.000  C
  C29      1.0000 0.82830  0.33510  0.19680  Biso   1.000  C
  C30      1.0000 0.82680  0.28880  0.47920  Biso   1.000  C
  C31      1.0000 0.40430  0.93220  0.28520  Biso   1.000  C
  C32      1.0000 0.20490  0.93230  0.34000  Biso   1.000  C
  C33      1.0000 0.04530  0.68090  0.34590  Biso   1.000  C
  C34      1.0000 0.47780  0.88850  0.22880  Biso   1.000  C
  C35      1.0000 0.09830  0.88980  0.33210  Biso   1.000  C
  C36      1.0000 0.36080  0.84690  0.21810  Biso   1.000  C
  C37      1.0000 0.24740  0.70390  0.07330  Biso   1.000  C
  C38      1.0000 0.53190  0.97670  0.28690  Biso   1.000  C
  C39      1.0000 0.17170  0.66490  0.19680  Biso   1.000  C
  C40      1.0000 0.17320  0.71120  0.47920  Biso   1.000  C
  N1       1.0000 0.32950  0.34640  0.73310  Biso   1.000  N
  N2       1.0000 0.67050  0.65360  0.73310  Biso   1.000  N
  N3       1.0000 0.82950  0.15360  0.26690  Biso   1.000  N
  N4       1.0000 0.17050  0.84640  0.26690  Biso   1.000  N
  O1       1.0000 0.61760  0.20940  0.71930  Biso   1.000  O
  O2       1.0000 0.29110  0.24870  0.90430  Biso   1.000  O
  O3       1.0000 0.21580  0.18800  0.42000  Biso   1.000  O
  O4       1.0000 0.34940  0.25760  0.52590  Biso   1.000  O
  O5       1.0000 0.15080  0.18720  0.05170  Biso   1.000  O
  O6       1.0000 0.38240  0.79060  0.71930  Biso   1.000  O
  O7       1.0000 0.70890  0.75130  0.90430  Biso   1.000  O
  O8       1.0000 0.78420  0.81200  0.42000  Biso   1.000  O
  O9       1.0000 0.65060  0.74240  0.52590  Biso   1.000  O
  O10      1.0000 0.84920  0.81280  0.05170  Biso   1.000  O
  O11      1.0000 0.11760  0.29060  0.28070  Biso   1.000  O
  O12      1.0000 0.79110  0.25130  0.09570  Biso   1.000  O
  O13      1.0000 0.71580  0.31200  0.58000  Biso   1.000  O
  O14      1.0000 0.84940  0.24240  0.47410  Biso   1.000  O
  O15      1.0000 0.65080  0.31280  0.94830  Biso   1.000  O
  O16      1.0000 0.88240  0.70940  0.28070  Biso   1.000  O
  O17      1.0000 0.20890  0.74870  0.09570  Biso   1.000  O
  O18      1.0000 0.28420  0.68800  0.58000  Biso   1.000  O
  O19      1.0000 0.15060  0.75760  0.47410  Biso   1.000  O
  O20      1.0000 0.34920  0.68720  0.94830  Biso   1.000  O
