data_image0
_cell_length_a       12.5879
_cell_length_b       12.5879
_cell_length_c       25.09
_cell_angle_alpha    90
_cell_angle_beta     90
_cell_angle_gamma    90

_symmetry_space_group_name_H-M    P 1
_symmetry_int_tables_number       1

loop_
  _symmetry_equiv_pos_as_xyz
  'x, y, z'

loop_
  _atom_site_label
  _atom_site_occupancy
  _atom_site_fract_x
  _atom_site_fract_y
  _atom_site_fract_z
  _atom_site_thermal_displace_type
  _atom_site_B_iso_or_equiv
  _atom_site_type_symbol
  Co1      1.0000 0.67718  0.25051  0.87543  Biso   1.000  Co
  Co2      1.0000 0.32282  0.74949  0.37543  Biso   1.000  Co
  Co3      1.0000 0.24949  0.17718  0.12543  Biso   1.000  Co
  Co4      1.0000 0.75051  0.82282  0.62543  Biso   1.000  Co
  Co5      1.0000 0.82282  0.75051  0.37457  Biso   1.000  Co
  Co6      1.0000 0.17718  0.24949  0.87457  Biso   1.000  Co
  Co7      1.0000 0.25051  0.67718  0.12457  Biso   1.000  Co
  Co8      1.0000 0.74949  0.32282  0.62457  Biso   1.000  Co
  Co9      1.0000 0.43081  0.56919  0.75000  Biso   1.000  Co
  Co10     1.0000 0.56919  0.43081  0.25000  Biso   1.000  Co
  Co11     1.0000 0.93081  0.93081  0.00000  Biso   1.000  Co
  Co12     1.0000 0.06919  0.06919  0.50000  Biso   1.000  Co
  H1       1.0000 0.45320  0.29910  0.06880  Biso   1.000  H
  H2       1.0000 0.49580  0.08530  0.91960  Biso   1.000  H
  H3       1.0000 0.37300  0.07100  0.91120  Biso   1.000  H
  H4       1.0000 0.28040  0.08020  0.00330  Biso   1.000  H
  H5       1.0000 0.54680  0.70090  0.56880  Biso   1.000  H
  H6       1.0000 0.50420  0.91470  0.41960  Biso   1.000  H
  H7       1.0000 0.62700  0.92900  0.41120  Biso   1.000  H
  H8       1.0000 0.71960  0.91980  0.50330  Biso   1.000  H
  H9       1.0000 0.20090  0.95320  0.31880  Biso   1.000  H
  H10      1.0000 0.41470  0.99580  0.16960  Biso   1.000  H
  H11      1.0000 0.42900  0.87300  0.16120  Biso   1.000  H
  H12      1.0000 0.41980  0.78040  0.25330  Biso   1.000  H
  H13      1.0000 0.79910  0.04680  0.81880  Biso   1.000  H
  H14      1.0000 0.58530  0.00420  0.66960  Biso   1.000  H
  H15      1.0000 0.57100  0.12700  0.66120  Biso   1.000  H
  H16      1.0000 0.58020  0.21960  0.75330  Biso   1.000  H
  H17      1.0000 0.04680  0.79910  0.18120  Biso   1.000  H
  H18      1.0000 0.00420  0.58530  0.33040  Biso   1.000  H
  H19      1.0000 0.12700  0.57100  0.33880  Biso   1.000  H
  H20      1.0000 0.21960  0.58020  0.24670  Biso   1.000  H
  H21      1.0000 0.95320  0.20090  0.68120  Biso   1.000  H
  H22      1.0000 0.99580  0.41470  0.83040  Biso   1.000  H
  H23      1.0000 0.87300  0.42900  0.83880  Biso   1.000  H
  H24      1.0000 0.78040  0.41980  0.74670  Biso   1.000  H
  H25      1.0000 0.29910  0.45320  0.93120  Biso   1.000  H
  H26      1.0000 0.08530  0.49580  0.08040  Biso   1.000  H
  H27      1.0000 0.07100  0.37300  0.08880  Biso   1.000  H
  H28      1.0000 0.08020  0.28040  0.99670  Biso   1.000  H
  H29      1.0000 0.70090  0.54680  0.43120  Biso   1.000  H
  H30      1.0000 0.91470  0.50420  0.58040  Biso   1.000  H
  H31      1.0000 0.92900  0.62700  0.58880  Biso   1.000  H
  H32      1.0000 0.91980  0.71960  0.49670  Biso   1.000  H
  C1       1.0000 0.56580  0.42440  0.82220  Biso   1.000  C
  C2       1.0000 0.48090  0.34930  0.83860  Biso   1.000  C
  C3       1.0000 0.42780  0.21150  0.88280  Biso   1.000  C
  C4       1.0000 0.28800  0.40880  0.81090  Biso   1.000  C
  C5       1.0000 0.37270  0.34380  0.83560  Biso   1.000  C
  C6       1.0000 0.42740  0.25000  0.04440  Biso   1.000  C
  C7       1.0000 0.42780  0.12150  0.92110  Biso   1.000  C
  C8       1.0000 0.33250  0.13110  0.00950  Biso   1.000  C
  C9       1.0000 0.43420  0.57560  0.32220  Biso   1.000  C
  C10      1.0000 0.51910  0.65070  0.33860  Biso   1.000  C
  C11      1.0000 0.57220  0.78850  0.38280  Biso   1.000  C
  C12      1.0000 0.71200  0.59120  0.31090  Biso   1.000  C
  C13      1.0000 0.62730  0.65620  0.33560  Biso   1.000  C
  C14      1.0000 0.57260  0.75000  0.54440  Biso   1.000  C
  C15      1.0000 0.57220  0.87850  0.42110  Biso   1.000  C
  C16      1.0000 0.66750  0.86890  0.50950  Biso   1.000  C
  C17      1.0000 0.07560  0.06580  0.07220  Biso   1.000  C
  C18      1.0000 0.15070  0.98090  0.08860  Biso   1.000  C
  C19      1.0000 0.28850  0.92780  0.13280  Biso   1.000  C
  C20      1.0000 0.09120  0.78800  0.06090  Biso   1.000  C
  C21      1.0000 0.15620  0.87270  0.08560  Biso   1.000  C
  C22      1.0000 0.25000  0.92740  0.29440  Biso   1.000  C
  C23      1.0000 0.37850  0.92780  0.17110  Biso   1.000  C
  C24      1.0000 0.36890  0.83250  0.25950  Biso   1.000  C
  C25      1.0000 0.92440  0.93420  0.57220  Biso   1.000  C
  C26      1.0000 0.84930  0.01910  0.58860  Biso   1.000  C
  C27      1.0000 0.71150  0.07220  0.63280  Biso   1.000  C
  C28      1.0000 0.90880  0.21200  0.56090  Biso   1.000  C
  C29      1.0000 0.84380  0.12730  0.58560  Biso   1.000  C
  C30      1.0000 0.75000  0.07260  0.79440  Biso   1.000  C
  C31      1.0000 0.62150  0.07220  0.67110  Biso   1.000  C
  C32      1.0000 0.63110  0.16750  0.75950  Biso   1.000  C
  C33      1.0000 0.93420  0.92440  0.42780  Biso   1.000  C
  C34      1.0000 0.01910  0.84930  0.41140  Biso   1.000  C
  C35      1.0000 0.07220  0.71150  0.36720  Biso   1.000  C
  C36      1.0000 0.21200  0.90880  0.43910  Biso   1.000  C
  C37      1.0000 0.12730  0.84380  0.41440  Biso   1.000  C
  C38      1.0000 0.07260  0.75000  0.20560  Biso   1.000  C
  C39      1.0000 0.07220  0.62150  0.32890  Biso   1.000  C
  C40      1.0000 0.16750  0.63110  0.24050  Biso   1.000  C
  C41      1.0000 0.06580  0.07560  0.92780  Biso   1.000  C
  C42      1.0000 0.98090  0.15070  0.91140  Biso   1.000  C
  C43      1.0000 0.92780  0.28850  0.86720  Biso   1.000  C
  C44      1.0000 0.78800  0.09120  0.93910  Biso   1.000  C
  C45      1.0000 0.87270  0.15620  0.91440  Biso   1.000  C
  C46      1.0000 0.92740  0.25000  0.70560  Biso   1.000  C
  C47      1.0000 0.92780  0.37850  0.82890  Biso   1.000  C
  C48      1.0000 0.83250  0.36890  0.74050  Biso   1.000  C
  C49      1.0000 0.42440  0.56580  0.17780  Biso   1.000  C
  C50      1.0000 0.34930  0.48090  0.16140  Biso   1.000  C
  C51      1.0000 0.21150  0.42780  0.11720  Biso   1.000  C
  C52      1.0000 0.40880  0.28800  0.18910  Biso   1.000  C
  C53      1.0000 0.34380  0.37270  0.16440  Biso   1.000  C
  C54      1.0000 0.25000  0.42740  0.95560  Biso   1.000  C
  C55      1.0000 0.12150  0.42780  0.07890  Biso   1.000  C
  C56      1.0000 0.13110  0.33250  0.99050  Biso   1.000  C
  C57      1.0000 0.57560  0.43420  0.67780  Biso   1.000  C
  C58      1.0000 0.65070  0.51910  0.66140  Biso   1.000  C
  C59      1.0000 0.78850  0.57220  0.61720  Biso   1.000  C
  C60      1.0000 0.59120  0.71200  0.68910  Biso   1.000  C
  C61      1.0000 0.65620  0.62730  0.66440  Biso   1.000  C
  C62      1.0000 0.75000  0.57260  0.45560  Biso   1.000  C
  C63      1.0000 0.87850  0.57220  0.57890  Biso   1.000  C
  C64      1.0000 0.86890  0.66750  0.49050  Biso   1.000  C
  N1       1.0000 0.33870  0.25770  0.86405  Biso   1.000  N
  N2       1.0000 0.51470  0.26280  0.86794  Biso   1.000  N
  N3       1.0000 0.34270  0.18780  0.05440  Biso   1.000  N
  N4       1.0000 0.40860  0.15880  0.97482  Biso   1.000  N
  N5       1.0000 0.47100  0.23560  0.99690  Biso   1.000  N
  N6       1.0000 0.66130  0.74230  0.36405  Biso   1.000  N
  N7       1.0000 0.48530  0.73720  0.36794  Biso   1.000  N
  N8       1.0000 0.65730  0.81220  0.55440  Biso   1.000  N
  N9       1.0000 0.59140  0.84120  0.47482  Biso   1.000  N
  N10      1.0000 0.52900  0.76440  0.49690  Biso   1.000  N
  N11      1.0000 0.24230  0.83870  0.11405  Biso   1.000  N
  N12      1.0000 0.23720  0.01470  0.11794  Biso   1.000  N
  N13      1.0000 0.31220  0.84270  0.30440  Biso   1.000  N
  N14      1.0000 0.34120  0.90860  0.22482  Biso   1.000  N
  N15      1.0000 0.26440  0.97100  0.24690  Biso   1.000  N
  N16      1.0000 0.75770  0.16130  0.61405  Biso   1.000  N
  N17      1.0000 0.76280  0.98530  0.61794  Biso   1.000  N
  N18      1.0000 0.68780  0.15730  0.80440  Biso   1.000  N
  N19      1.0000 0.65880  0.09140  0.72482  Biso   1.000  N
  N20      1.0000 0.73560  0.02900  0.74690  Biso   1.000  N
  N21      1.0000 0.16130  0.75770  0.38595  Biso   1.000  N
  N22      1.0000 0.98530  0.76280  0.38206  Biso   1.000  N
  N23      1.0000 0.15730  0.68780  0.19560  Biso   1.000  N
  N24      1.0000 0.09140  0.65880  0.27518  Biso   1.000  N
  N25      1.0000 0.02900  0.73560  0.25310  Biso   1.000  N
  N26      1.0000 0.83870  0.24230  0.88595  Biso   1.000  N
  N27      1.0000 0.01470  0.23720  0.88206  Biso   1.000  N
  N28      1.0000 0.84270  0.31220  0.69560  Biso   1.000  N
  N29      1.0000 0.90860  0.34120  0.77518  Biso   1.000  N
  N30      1.0000 0.97100  0.26440  0.75310  Biso   1.000  N
  N31      1.0000 0.25770  0.33870  0.13595  Biso   1.000  N
  N32      1.0000 0.26280  0.51470  0.13206  Biso   1.000  N
  N33      1.0000 0.18780  0.34270  0.94560  Biso   1.000  N
  N34      1.0000 0.15880  0.40860  0.02518  Biso   1.000  N
  N35      1.0000 0.23560  0.47100  0.00310  Biso   1.000  N
  N36      1.0000 0.74230  0.66130  0.63595  Biso   1.000  N
  N37      1.0000 0.73720  0.48530  0.63206  Biso   1.000  N
  N38      1.0000 0.81220  0.65730  0.44560  Biso   1.000  N
  N39      1.0000 0.84120  0.59140  0.52518  Biso   1.000  N
  N40      1.0000 0.76440  0.52900  0.50310  Biso   1.000  N
  O1       1.0000 0.66030  0.39540  0.83198  Biso   1.000  O
  O2       1.0000 0.19390  0.38740  0.82553  Biso   1.000  O
  O3       1.0000 0.54500  0.51280  0.80250  Biso   1.000  O
  O4       1.0000 0.30800  0.48170  0.77910  Biso   1.000  O
  O5       1.0000 0.65830  0.34000  0.95070  Biso   1.000  O
  O6       1.0000 0.38290  0.68630  0.80660  Biso   1.000  O
  O7       1.0000 0.33970  0.60460  0.33198  Biso   1.000  O
  O8       1.0000 0.80610  0.61260  0.32553  Biso   1.000  O
  O9       1.0000 0.45500  0.48720  0.30250  Biso   1.000  O
  O10      1.0000 0.69200  0.51830  0.27910  Biso   1.000  O
  O11      1.0000 0.34170  0.66000  0.45070  Biso   1.000  O
  O12      1.0000 0.61710  0.31370  0.30660  Biso   1.000  O
  O13      1.0000 0.10460  0.16030  0.08198  Biso   1.000  O
  O14      1.0000 0.11260  0.69390  0.07553  Biso   1.000  O
  O15      1.0000 0.98720  0.04500  0.05250  Biso   1.000  O
  O16      1.0000 0.01830  0.80800  0.02910  Biso   1.000  O
  O17      1.0000 0.16000  0.15830  0.20070  Biso   1.000  O
  O18      1.0000 0.81370  0.88290  0.05660  Biso   1.000  O
  O19      1.0000 0.89540  0.83970  0.58198  Biso   1.000  O
  O20      1.0000 0.88740  0.30610  0.57553  Biso   1.000  O
  O21      1.0000 0.01280  0.95500  0.55250  Biso   1.000  O
  O22      1.0000 0.98170  0.19200  0.52910  Biso   1.000  O
  O23      1.0000 0.84000  0.84170  0.70070  Biso   1.000  O
  O24      1.0000 0.18630  0.11710  0.55660  Biso   1.000  O
  O25      1.0000 0.83970  0.89540  0.41802  Biso   1.000  O
  O26      1.0000 0.30610  0.88740  0.42447  Biso   1.000  O
  O27      1.0000 0.95500  0.01280  0.44750  Biso   1.000  O
  O28      1.0000 0.19200  0.98170  0.47090  Biso   1.000  O
  O29      1.0000 0.84170  0.84000  0.29930  Biso   1.000  O
  O30      1.0000 0.11710  0.18630  0.44340  Biso   1.000  O
  O31      1.0000 0.16030  0.10460  0.91802  Biso   1.000  O
  O32      1.0000 0.69390  0.11260  0.92447  Biso   1.000  O
  O33      1.0000 0.04500  0.98720  0.94750  Biso   1.000  O
  O34      1.0000 0.80800  0.01830  0.97090  Biso   1.000  O
  O35      1.0000 0.15830  0.16000  0.79930  Biso   1.000  O
  O36      1.0000 0.88290  0.81370  0.94340  Biso   1.000  O
  O37      1.0000 0.39540  0.66030  0.16802  Biso   1.000  O
  O38      1.0000 0.38740  0.19390  0.17447  Biso   1.000  O
  O39      1.0000 0.51280  0.54500  0.19750  Biso   1.000  O
  O40      1.0000 0.48170  0.30800  0.22090  Biso   1.000  O
  O41      1.0000 0.34000  0.65830  0.04930  Biso   1.000  O
  O42      1.0000 0.68630  0.38290  0.19340  Biso   1.000  O
  O43      1.0000 0.60460  0.33970  0.66802  Biso   1.000  O
  O44      1.0000 0.61260  0.80610  0.67447  Biso   1.000  O
  O45      1.0000 0.48720  0.45500  0.69750  Biso   1.000  O
  O46      1.0000 0.51830  0.69200  0.72090  Biso   1.000  O
  O47      1.0000 0.66000  0.34170  0.54930  Biso   1.000  O
  O48      1.0000 0.31370  0.61710  0.69340  Biso   1.000  O
