data_image0
_cell_length_a       12.078
_cell_length_b       12.087
_cell_length_c       13.6846
_cell_angle_alpha    98.8821
_cell_angle_beta     116.187
_cell_angle_gamma    69.52

_symmetry_space_group_name_H-M    P 1
_symmetry_int_tables_number       1

loop_
  _symmetry_equiv_pos_as_xyz
  'x, y, z'

loop_
  _atom_site_label
  _atom_site_occupancy
  _atom_site_fract_x
  _atom_site_fract_y
  _atom_site_fract_z
  _atom_site_thermal_displace_type
  _atom_site_B_iso_or_equiv
  _atom_site_type_symbol
  Fe1      1.0000 0.00000  0.00000  0.00000  Biso   1.000  Fe
  Fe2      1.0000 0.10439  0.25846  0.00000  Biso   1.000  Fe
  Fe3      1.0000 0.89561  0.74154  0.00000  Biso   1.000  Fe
  H1       1.0000 0.28580  0.27480  0.95020  Biso   1.000  H
  H2       1.0000 0.90220  0.91910  0.57080  Biso   1.000  H
  H3       1.0000 0.12910  0.11460  0.60600  Biso   1.000  H
  H4       1.0000 0.66440  0.72520  0.95020  Biso   1.000  H
  H5       1.0000 0.66860  0.08090  0.57080  Biso   1.000  H
  H6       1.0000 0.47690  0.88540  0.60600  Biso   1.000  H
  H7       1.0000 0.71420  0.72520  0.04980  Biso   1.000  H
  H8       1.0000 0.09780  0.08090  0.42920  Biso   1.000  H
  H9       1.0000 0.87090  0.88540  0.39400  Biso   1.000  H
  H10      1.0000 0.33560  0.27480  0.04980  Biso   1.000  H
  H11      1.0000 0.33140  0.91910  0.42920  Biso   1.000  H
  H12      1.0000 0.52310  0.11460  0.39400  Biso   1.000  H
  H13      1.0000 0.52830  0.29260  1.00000  Biso   1.000  H
  H14      1.0000 0.66340  0.56040  0.00000  Biso   1.000  H
  H15      1.0000 0.47170  0.70740  0.00000  Biso   1.000  H
  H16      1.0000 0.33660  0.43960  0.00000  Biso   1.000  H
  C1       1.0000 0.94280  0.95180  0.54220  Biso   1.000  C
  C2       1.0000 0.02240  0.01930  0.61000  Biso   1.000  C
  C3       1.0000 0.07660  0.06700  0.56280  Biso   1.000  C
  C4       1.0000 0.03940  0.04230  0.72280  Biso   1.000  C
  C5       1.0000 0.59940  0.04820  0.54220  Biso   1.000  C
  C6       1.0000 0.58760  0.98070  0.61000  Biso   1.000  C
  C7       1.0000 0.48620  0.93300  0.56280  Biso   1.000  C
  C8       1.0000 0.68340  0.95770  0.72280  Biso   1.000  C
  C9       1.0000 0.05720  0.04820  0.45780  Biso   1.000  C
  C10      1.0000 0.97760  0.98070  0.39000  Biso   1.000  C
  C11      1.0000 0.92340  0.93300  0.43720  Biso   1.000  C
  C12      1.0000 0.96060  0.95770  0.27720  Biso   1.000  C
  C13      1.0000 0.40060  0.95180  0.45780  Biso   1.000  C
  C14      1.0000 0.41240  0.01930  0.39000  Biso   1.000  C
  C15      1.0000 0.51380  0.06700  0.43720  Biso   1.000  C
  C16      1.0000 0.31660  0.04230  0.27720  Biso   1.000  C
  C17      1.0000 0.51740  0.37440  1.00000  Biso   1.000  C
  C18      1.0000 0.61640  0.41720  0.00000  Biso   1.000  C
  C19      1.0000 0.59660  0.53620  0.00000  Biso   1.000  C
  C20      1.0000 0.73580  0.33220  0.00000  Biso   1.000  C
  C21      1.0000 0.48260  0.62560  0.00000  Biso   1.000  C
  C22      1.0000 0.38360  0.58280  0.00000  Biso   1.000  C
  C23      1.0000 0.40340  0.46380  0.00000  Biso   1.000  C
  C24      1.0000 0.26420  0.66780  1.00000  Biso   1.000  C
  C25      1.0000 0.96940  0.50000  0.93880  Biso   1.000  C
  C26      1.0000 0.03060  0.50000  0.06120  Biso   1.000  C
  N1       1.0000 0.01944  0.97930  0.78188  Biso   1.000  N
  N2       1.0000 0.04046  0.03700  0.87712  Biso   1.000  N
  N3       1.0000 0.07386  0.12620  0.87552  Biso   1.000  N
  N4       1.0000 0.07600  0.13260  0.77980  Biso   1.000  N
  N5       1.0000 0.76244  0.02070  0.78188  Biso   1.000  N
  N6       1.0000 0.83666  0.96300  0.87712  Biso   1.000  N
  N7       1.0000 0.80166  0.87380  0.87552  Biso   1.000  N
  N8       1.0000 0.70380  0.86740  0.77980  Biso   1.000  N
  N9       1.0000 0.98056  0.02070  0.21812  Biso   1.000  N
  N10      1.0000 0.95954  0.96300  0.12288  Biso   1.000  N
  N11      1.0000 0.92614  0.87380  0.12448  Biso   1.000  N
  N12      1.0000 0.92400  0.86740  0.22020  Biso   1.000  N
  N13      1.0000 0.23756  0.97930  0.21812  Biso   1.000  N
  N14      1.0000 0.16334  0.03700  0.12288  Biso   1.000  N
  N15      1.0000 0.19834  0.12620  0.12448  Biso   1.000  N
  N16      1.0000 0.29620  0.13260  0.22020  Biso   1.000  N
  N17      1.0000 0.76730  0.21510  0.00000  Biso   1.000  N
  N18      1.0000 0.88610  0.17460  0.00000  Biso   1.000  N
  N19      1.0000 0.92040  0.26470  0.00000  Biso   1.000  N
  N20      1.0000 0.83130  0.36280  0.00000  Biso   1.000  N
  N21      1.0000 0.23270  0.78490  0.00000  Biso   1.000  N
  N22      1.0000 0.11390  0.82540  0.00000  Biso   1.000  N
  N23      1.0000 0.07960  0.73530  1.00000  Biso   1.000  N
  N24      1.0000 0.16870  0.63720  1.00000  Biso   1.000  N
  O1       1.0000 0.99712  0.40210  0.89064  Biso   1.000  O
  O2       1.0000 0.89352  0.59790  0.89064  Biso   1.000  O
  O3       1.0000 0.00288  0.59790  0.10936  Biso   1.000  O
  O4       1.0000 0.10648  0.40210  0.10936  Biso   1.000  O
  O5       1.0000 0.28900  0.23710  1.00000  Biso   1.000  O
  O6       1.0000 0.71100  0.76290  0.00000  Biso   1.000  O
