data_image0
_cell_length_a       12.106
_cell_length_b       12.118
_cell_length_c       13.7208
_cell_angle_alpha    98.9628
_cell_angle_beta     116.178
_cell_angle_gamma    69.32

_symmetry_space_group_name_H-M    P 1
_symmetry_int_tables_number       1

loop_
  _symmetry_equiv_pos_as_xyz
  'x, y, z'

loop_
  _atom_site_label
  _atom_site_occupancy
  _atom_site_fract_x
  _atom_site_fract_y
  _atom_site_fract_z
  _atom_site_thermal_displace_type
  _atom_site_B_iso_or_equiv
  _atom_site_type_symbol
  Fe1      1.0000 0.00000  0.00000  0.00000  Biso   1.000  Fe
  Fe2      1.0000 0.10403  0.25705  0.00000  Biso   1.000  Fe
  Fe3      1.0000 0.89597  0.74295  1.00000  Biso   1.000  Fe
  H1       1.0000 0.27810  0.28480  0.95020  Biso   1.000  H
  H2       1.0000 0.90920  0.91260  0.57200  Biso   1.000  H
  H3       1.0000 0.11690  0.12600  0.60460  Biso   1.000  H
  H4       1.0000 0.67210  0.71520  0.95020  Biso   1.000  H
  H5       1.0000 0.66280  0.08740  0.57200  Biso   1.000  H
  H6       1.0000 0.48770  0.87400  0.60460  Biso   1.000  H
  H7       1.0000 0.72190  0.71520  0.04980  Biso   1.000  H
  H8       1.0000 0.09080  0.08740  0.42800  Biso   1.000  H
  H9       1.0000 0.88310  0.87400  0.39540  Biso   1.000  H
  H10      1.0000 0.32790  0.28480  0.04980  Biso   1.000  H
  H11      1.0000 0.33720  0.91260  0.42800  Biso   1.000  H
  H12      1.0000 0.51230  0.12600  0.39540  Biso   1.000  H
  H13      1.0000 0.52950  0.30180  0.00000  Biso   1.000  H
  H14      1.0000 0.66290  0.55830  0.00000  Biso   1.000  H
  H15      1.0000 0.47050  0.69820  0.00000  Biso   1.000  H
  H16      1.0000 0.33710  0.44170  0.00000  Biso   1.000  H
  C1       1.0000 0.94730  0.94770  0.54320  Biso   1.000  C
  C2       1.0000 0.01790  0.01830  0.60880  Biso   1.000  C
  C3       1.0000 0.07010  0.07410  0.56200  Biso   1.000  C
  C4       1.0000 0.03930  0.04330  0.72220  Biso   1.000  C
  C5       1.0000 0.59590  0.05230  0.54320  Biso   1.000  C
  C6       1.0000 0.59090  0.98170  0.60880  Biso   1.000  C
  C7       1.0000 0.49190  0.92590  0.56200  Biso   1.000  C
  C8       1.0000 0.68290  0.95670  0.72220  Biso   1.000  C
  C9       1.0000 0.05270  0.05230  0.45680  Biso   1.000  C
  C10      1.0000 0.98210  0.98170  0.39120  Biso   1.000  C
  C11      1.0000 0.92990  0.92590  0.43800  Biso   1.000  C
  C12      1.0000 0.96070  0.95670  0.27780  Biso   1.000  C
  C13      1.0000 0.40410  0.94770  0.45680  Biso   1.000  C
  C14      1.0000 0.40910  0.01830  0.39120  Biso   1.000  C
  C15      1.0000 0.50810  0.07410  0.43800  Biso   1.000  C
  C16      1.0000 0.31710  0.04330  0.27780  Biso   1.000  C
  C17      1.0000 0.51890  0.38330  0.00000  Biso   1.000  C
  C18      1.0000 0.61440  0.41460  0.00000  Biso   1.000  C
  C19      1.0000 0.59710  0.53290  0.00000  Biso   1.000  C
  C20      1.0000 0.73660  0.33240  0.00000  Biso   1.000  C
  C21      1.0000 0.48110  0.61670  0.00000  Biso   1.000  C
  C22      1.0000 0.38560  0.58540  0.00000  Biso   1.000  C
  C23      1.0000 0.40290  0.46710  0.00000  Biso   1.000  C
  C24      1.0000 0.26340  0.66760  0.00000  Biso   1.000  C
  C25      1.0000 0.96820  0.50000  0.93640  Biso   1.000  C
  C26      1.0000 0.03180  0.50000  0.06360  Biso   1.000  C
  N1       1.0000 0.01840  0.97990  0.78040  Biso   1.000  N
  N2       1.0000 0.04078  0.03580  0.87716  Biso   1.000  N
  N3       1.0000 0.07700  0.12510  0.87560  Biso   1.000  N
  N4       1.0000 0.07460  0.13540  0.78000  Biso   1.000  N
  N5       1.0000 0.76200  0.02010  0.78040  Biso   1.000  N
  N6       1.0000 0.83638  0.96420  0.87716  Biso   1.000  N
  N7       1.0000 0.79860  0.87490  0.87560  Biso   1.000  N
  N8       1.0000 0.70540  0.86460  0.78000  Biso   1.000  N
  N9       1.0000 0.98160  0.02010  0.21960  Biso   1.000  N
  N10      1.0000 0.95922  0.96420  0.12284  Biso   1.000  N
  N11      1.0000 0.92300  0.87490  0.12440  Biso   1.000  N
  N12      1.0000 0.92540  0.86460  0.22000  Biso   1.000  N
  N13      1.0000 0.23800  0.97990  0.21960  Biso   1.000  N
  N14      1.0000 0.16362  0.03580  0.12284  Biso   1.000  N
  N15      1.0000 0.20140  0.12510  0.12440  Biso   1.000  N
  N16      1.0000 0.29460  0.13540  0.22000  Biso   1.000  N
  N17      1.0000 0.76940  0.21200  0.00000  Biso   1.000  N
  N18      1.0000 0.88760  0.17570  0.00000  Biso   1.000  N
  N19      1.0000 0.92140  0.26480  0.00000  Biso   1.000  N
  N20      1.0000 0.82960  0.36450  0.00000  Biso   1.000  N
  N21      1.0000 0.23060  0.78800  0.00000  Biso   1.000  N
  N22      1.0000 0.11240  0.82430  1.00000  Biso   1.000  N
  N23      1.0000 0.07860  0.73520  0.00000  Biso   1.000  N
  N24      1.0000 0.17040  0.63550  0.00000  Biso   1.000  N
  O1       1.0000 0.99529  0.40280  0.88918  Biso   1.000  O
  O2       1.0000 0.89389  0.59720  0.88918  Biso   1.000  O
  O3       1.0000 0.00471  0.59720  0.11082  Biso   1.000  O
  O4       1.0000 0.10611  0.40280  0.11082  Biso   1.000  O
  O5       1.0000 0.28130  0.24710  0.00000  Biso   1.000  O
  O6       1.0000 0.71870  0.75290  1.00000  Biso   1.000  O
