data_image0
_cell_length_a       12.0115
_cell_length_b       12.102
_cell_length_c       13.6788
_cell_angle_alpha    98.6833
_cell_angle_beta     116.044
_cell_angle_gamma    69.8879

_symmetry_space_group_name_H-M    P 1
_symmetry_int_tables_number       1

loop_
  _symmetry_equiv_pos_as_xyz
  'x, y, z'

loop_
  _atom_site_label
  _atom_site_occupancy
  _atom_site_fract_x
  _atom_site_fract_y
  _atom_site_fract_z
  _atom_site_thermal_displace_type
  _atom_site_B_iso_or_equiv
  _atom_site_type_symbol
  Fe1      1.0000 0.00000  0.00000  0.00000  Biso   1.000  Fe
  Fe2      1.0000 0.10664  0.25873  0.00000  Biso   1.000  Fe
  Fe3      1.0000 0.89336  0.74127  0.00000  Biso   1.000  Fe
  H1       1.0000 0.28330  0.28090  0.95060  Biso   1.000  H
  H2       1.0000 0.90520  0.92010  0.57540  Biso   1.000  H
  H3       1.0000 0.13450  0.11170  0.60760  Biso   1.000  H
  H4       1.0000 0.66730  0.71910  0.95060  Biso   1.000  H
  H5       1.0000 0.67020  0.07990  0.57540  Biso   1.000  H
  H6       1.0000 0.47310  0.88830  0.60760  Biso   1.000  H
  H7       1.0000 0.71670  0.71910  0.04940  Biso   1.000  H
  H8       1.0000 0.09480  0.07990  0.42460  Biso   1.000  H
  H9       1.0000 0.86550  0.88830  0.39240  Biso   1.000  H
  H10      1.0000 0.33270  0.28090  0.04940  Biso   1.000  H
  H11      1.0000 0.32980  0.92010  0.42460  Biso   1.000  H
  H12      1.0000 0.52690  0.11170  0.39240  Biso   1.000  H
  H13      1.0000 0.52780  0.30090  0.00000  Biso   1.000  H
  H14      1.0000 0.66460  0.55920  0.00000  Biso   1.000  H
  H15      1.0000 0.47220  0.69910  0.00000  Biso   1.000  H
  H16      1.0000 0.33540  0.44080  1.00000  Biso   1.000  H
  C1       1.0000 0.94415  0.95320  0.54490  Biso   1.000  C
  C2       1.0000 0.02258  0.01930  0.60936  Biso   1.000  C
  C3       1.0000 0.07931  0.06620  0.56402  Biso   1.000  C
  C4       1.0000 0.04409  0.04240  0.72418  Biso   1.000  C
  C5       1.0000 0.60075  0.04680  0.54490  Biso   1.000  C
  C6       1.0000 0.58678  0.98070  0.60936  Biso   1.000  C
  C7       1.0000 0.48471  0.93380  0.56402  Biso   1.000  C
  C8       1.0000 0.68009  0.95760  0.72418  Biso   1.000  C
  C9       1.0000 0.05585  0.04680  0.45510  Biso   1.000  C
  C10      1.0000 0.97742  0.98070  0.39064  Biso   1.000  C
  C11      1.0000 0.92069  0.93380  0.43598  Biso   1.000  C
  C12      1.0000 0.95591  0.95760  0.27582  Biso   1.000  C
  C13      1.0000 0.39925  0.95320  0.45510  Biso   1.000  C
  C14      1.0000 0.41322  0.01930  0.39064  Biso   1.000  C
  C15      1.0000 0.51529  0.06620  0.43598  Biso   1.000  C
  C16      1.0000 0.31991  0.04240  0.27582  Biso   1.000  C
  C17      1.0000 0.51720  0.38230  0.00000  Biso   1.000  C
  C18      1.0000 0.61450  0.41730  0.00000  Biso   1.000  C
  C19      1.0000 0.59790  0.53390  0.00000  Biso   1.000  C
  C20      1.0000 0.73650  0.33060  0.00000  Biso   1.000  C
  C21      1.0000 0.48280  0.61770  0.00000  Biso   1.000  C
  C22      1.0000 0.38550  0.58270  1.00000  Biso   1.000  C
  C23      1.0000 0.40210  0.46610  0.00000  Biso   1.000  C
  C24      1.0000 0.26350  0.66940  0.00000  Biso   1.000  C
  C25      1.0000 0.96864  0.50000  0.93728  Biso   1.000  C
  C26      1.0000 0.03136  0.50000  0.06272  Biso   1.000  C
  N1       1.0000 0.02139  0.98020  0.78198  Biso   1.000  N
  N2       1.0000 0.04248  0.03630  0.87716  Biso   1.000  N
  N3       1.0000 0.07694  0.12830  0.87528  Biso   1.000  N
  N4       1.0000 0.07874  0.13510  0.77968  Biso   1.000  N
  N5       1.0000 0.76059  0.01980  0.78198  Biso   1.000  N
  N6       1.0000 0.83468  0.96370  0.87716  Biso   1.000  N
  N7       1.0000 0.79834  0.87170  0.87528  Biso   1.000  N
  N8       1.0000 0.70094  0.86490  0.77968  Biso   1.000  N
  N9       1.0000 0.97861  0.01980  0.21802  Biso   1.000  N
  N10      1.0000 0.95752  0.96370  0.12284  Biso   1.000  N
  N11      1.0000 0.92306  0.87170  0.12472  Biso   1.000  N
  N12      1.0000 0.92126  0.86490  0.22032  Biso   1.000  N
  N13      1.0000 0.23941  0.98020  0.21802  Biso   1.000  N
  N14      1.0000 0.16532  0.03630  0.12284  Biso   1.000  N
  N15      1.0000 0.20166  0.12830  0.12472  Biso   1.000  N
  N16      1.0000 0.29906  0.13510  0.22032  Biso   1.000  N
  N17      1.0000 0.76650  0.21270  0.00000  Biso   1.000  N
  N18      1.0000 0.88620  0.17370  0.00000  Biso   1.000  N
  N19      1.0000 0.92390  0.26310  0.00000  Biso   1.000  N
  N20      1.0000 0.83150  0.36410  0.00000  Biso   1.000  N
  N21      1.0000 0.23350  0.78730  0.00000  Biso   1.000  N
  N22      1.0000 0.11380  0.82630  0.00000  Biso   1.000  N
  N23      1.0000 0.07610  0.73690  0.00000  Biso   1.000  N
  N24      1.0000 0.16850  0.63590  0.00000  Biso   1.000  N
  O1       1.0000 0.99697  0.40361  0.89032  Biso   1.000  O
  O2       1.0000 0.89335  0.59639  0.89032  Biso   1.000  O
  O3       1.0000 0.00303  0.59639  0.10968  Biso   1.000  O
  O4       1.0000 0.10665  0.40361  0.10968  Biso   1.000  O
  O5       1.0000 0.28640  0.24350  0.00000  Biso   1.000  O
  O6       1.0000 0.71360  0.75650  0.00000  Biso   1.000  O
