data_image0
_cell_length_a       22.6476
_cell_length_b       22.6476
_cell_length_c       7.4471
_cell_angle_alpha    90
_cell_angle_beta     90
_cell_angle_gamma    120

_symmetry_space_group_name_H-M    "P 1"
_symmetry_int_tables_number       1

loop_
  _symmetry_equiv_pos_as_xyz
  'x, y, z'

loop_
  _atom_site_label
  _atom_site_occupancy
  _atom_site_fract_x
  _atom_site_fract_y
  _atom_site_fract_z
  _atom_site_thermal_displace_type
  _atom_site_B_iso_or_equiv
  _atom_site_type_symbol
  C1       1.0000 0.78790  0.14910  0.52520  Biso   1.000  C
  H1       1.0000 0.75670  0.13690  0.42640  Biso   1.000  H
  C2       1.0000 0.78290  0.15760  0.78330  Biso   1.000  C
  H2       1.0000 0.74730  0.15110  0.86480  Biso   1.000  H
  C3       1.0000 0.45457  0.48243  0.85853  Biso   1.000  C
  H3       1.0000 0.42337  0.47023  0.75973  Biso   1.000  H
  C4       1.0000 0.44957  0.49093  0.11663  Biso   1.000  C
  H4       1.0000 0.41397  0.48443  0.19813  Biso   1.000  H
  C5       1.0000 0.12123  0.81577  0.19187  Biso   1.000  C
  H5       1.0000 0.09003  0.80357  0.09307  Biso   1.000  H
  C6       1.0000 0.11623  0.82427  0.44997  Biso   1.000  C
  H6       1.0000 0.08063  0.81777  0.53147  Biso   1.000  H
  C7       1.0000 0.85090  0.63880  0.52520  Biso   1.000  C
  H7       1.0000 0.86310  0.61980  0.42640  Biso   1.000  H
  C8       1.0000 0.84240  0.62530  0.78330  Biso   1.000  C
  H8       1.0000 0.84890  0.59620  0.86480  Biso   1.000  H
  C9       1.0000 0.51757  0.97213  0.85853  Biso   1.000  C
  H9       1.0000 0.52977  0.95313  0.75973  Biso   1.000  H
  C10      1.0000 0.50907  0.95863  0.11663  Biso   1.000  C
  H10      1.0000 0.51557  0.92953  0.19813  Biso   1.000  H
  C11      1.0000 0.18423  0.30547  0.19187  Biso   1.000  C
  H11      1.0000 0.19643  0.28647  0.09307  Biso   1.000  H
  C12      1.0000 0.17573  0.29197  0.44997  Biso   1.000  C
  H12      1.0000 0.18223  0.26287  0.53147  Biso   1.000  H
  C13      1.0000 0.36120  0.21210  0.52520  Biso   1.000  C
  H13      1.0000 0.38020  0.24330  0.42640  Biso   1.000  H
  C14      1.0000 0.37470  0.21710  0.78330  Biso   1.000  C
  H14      1.0000 0.40380  0.25270  0.86480  Biso   1.000  H
  C15      1.0000 0.02787  0.54543  0.85853  Biso   1.000  C
  H15      1.0000 0.04687  0.57663  0.75973  Biso   1.000  H
  C16      1.0000 0.04137  0.55043  0.11663  Biso   1.000  C
  H16      1.0000 0.07047  0.58603  0.19813  Biso   1.000  H
  C17      1.0000 0.69453  0.87877  0.19187  Biso   1.000  C
  H17      1.0000 0.71353  0.90997  0.09307  Biso   1.000  H
  C18      1.0000 0.70803  0.88377  0.44997  Biso   1.000  C
  H18      1.0000 0.73713  0.91937  0.53147  Biso   1.000  H
  C19      1.0000 0.14910  0.78790  0.47480  Biso   1.000  C
  H19      1.0000 0.13690  0.75670  0.57360  Biso   1.000  H
  C20      1.0000 0.15760  0.78290  0.21670  Biso   1.000  C
  H20      1.0000 0.15110  0.74730  0.13520  Biso   1.000  H
  C21      1.0000 0.81577  0.12123  0.80813  Biso   1.000  C
  H21      1.0000 0.80357  0.09003  0.90693  Biso   1.000  H
  C22      1.0000 0.82427  0.11623  0.55003  Biso   1.000  C
  H22      1.0000 0.81777  0.08063  0.46853  Biso   1.000  H
  C23      1.0000 0.48243  0.45457  0.14147  Biso   1.000  C
  H23      1.0000 0.47023  0.42337  0.24027  Biso   1.000  H
  C24      1.0000 0.49093  0.44957  0.88337  Biso   1.000  C
  H24      1.0000 0.48443  0.41397  0.80187  Biso   1.000  H
  C25      1.0000 0.63880  0.85090  0.47480  Biso   1.000  C
  H25      1.0000 0.61980  0.86310  0.57360  Biso   1.000  H
  C26      1.0000 0.62530  0.84240  0.21670  Biso   1.000  C
  H26      1.0000 0.59620  0.84890  0.13520  Biso   1.000  H
  C27      1.0000 0.30547  0.18423  0.80813  Biso   1.000  C
  H27      1.0000 0.28647  0.19643  0.90693  Biso   1.000  H
  C28      1.0000 0.29197  0.17573  0.55003  Biso   1.000  C
  H28      1.0000 0.26287  0.18223  0.46853  Biso   1.000  H
  C29      1.0000 0.97213  0.51757  0.14147  Biso   1.000  C
  H29      1.0000 0.95313  0.52977  0.24027  Biso   1.000  H
  C30      1.0000 0.95863  0.50907  0.88337  Biso   1.000  C
  H30      1.0000 0.92953  0.51557  0.80187  Biso   1.000  H
  C31      1.0000 0.21210  0.36120  0.47480  Biso   1.000  C
  H31      1.0000 0.24330  0.38020  0.57360  Biso   1.000  H
  C32      1.0000 0.21710  0.37470  0.21670  Biso   1.000  C
  H32      1.0000 0.25270  0.40380  0.13520  Biso   1.000  H
  C33      1.0000 0.87877  0.69453  0.80813  Biso   1.000  C
  H33      1.0000 0.90997  0.71353  0.90693  Biso   1.000  H
  C34      1.0000 0.88377  0.70803  0.55003  Biso   1.000  C
  H34      1.0000 0.91937  0.73713  0.46853  Biso   1.000  H
  C35      1.0000 0.54543  0.02787  0.14147  Biso   1.000  C
  H35      1.0000 0.57663  0.04687  0.24027  Biso   1.000  H
  C36      1.0000 0.55043  0.04137  0.88337  Biso   1.000  C
  H36      1.0000 0.58603  0.07047  0.80187  Biso   1.000  H
  C37      1.0000 0.21210  0.85090  0.47480  Biso   1.000  C
  H37      1.0000 0.24330  0.86310  0.57360  Biso   1.000  H
  C38      1.0000 0.21710  0.84240  0.21670  Biso   1.000  C
  H38      1.0000 0.25270  0.84890  0.13520  Biso   1.000  H
  C39      1.0000 0.87877  0.18423  0.80813  Biso   1.000  C
  H39      1.0000 0.90997  0.19643  0.90693  Biso   1.000  H
  C40      1.0000 0.88377  0.17573  0.55003  Biso   1.000  C
  H40      1.0000 0.91937  0.18223  0.46853  Biso   1.000  H
  C41      1.0000 0.54543  0.51757  0.14147  Biso   1.000  C
  H41      1.0000 0.57663  0.52977  0.24027  Biso   1.000  H
  C42      1.0000 0.55043  0.50907  0.88337  Biso   1.000  C
  H42      1.0000 0.58603  0.51557  0.80187  Biso   1.000  H
  C43      1.0000 0.14910  0.36120  0.47480  Biso   1.000  C
  H43      1.0000 0.13690  0.38020  0.57360  Biso   1.000  H
  C44      1.0000 0.15760  0.37470  0.21670  Biso   1.000  C
  H44      1.0000 0.15110  0.40380  0.13520  Biso   1.000  H
  C45      1.0000 0.81577  0.69453  0.80813  Biso   1.000  C
  H45      1.0000 0.80357  0.71353  0.90693  Biso   1.000  H
  C46      1.0000 0.82427  0.70803  0.55003  Biso   1.000  C
  H46      1.0000 0.81777  0.73713  0.46853  Biso   1.000  H
  C47      1.0000 0.48243  0.02787  0.14147  Biso   1.000  C
  H47      1.0000 0.47023  0.04687  0.24027  Biso   1.000  H
  C48      1.0000 0.49093  0.04137  0.88337  Biso   1.000  C
  H48      1.0000 0.48443  0.07047  0.80187  Biso   1.000  H
  C49      1.0000 0.63880  0.78790  0.47480  Biso   1.000  C
  H49      1.0000 0.61980  0.75670  0.57360  Biso   1.000  H
  C50      1.0000 0.62530  0.78290  0.21670  Biso   1.000  C
  H50      1.0000 0.59620  0.74730  0.13520  Biso   1.000  H
  C51      1.0000 0.30547  0.12123  0.80813  Biso   1.000  C
  H51      1.0000 0.28647  0.09003  0.90693  Biso   1.000  H
  C52      1.0000 0.29197  0.11623  0.55003  Biso   1.000  C
  H52      1.0000 0.26287  0.08063  0.46853  Biso   1.000  H
  C53      1.0000 0.97213  0.45457  0.14147  Biso   1.000  C
  H53      1.0000 0.95313  0.42337  0.24027  Biso   1.000  H
  C54      1.0000 0.95863  0.44957  0.88337  Biso   1.000  C
  H54      1.0000 0.92953  0.41397  0.80187  Biso   1.000  H
  C55      1.0000 0.85090  0.21210  0.52520  Biso   1.000  C
  H55      1.0000 0.86310  0.24330  0.42640  Biso   1.000  H
  C56      1.0000 0.84240  0.21710  0.78330  Biso   1.000  C
  H56      1.0000 0.84890  0.25270  0.86480  Biso   1.000  H
  C57      1.0000 0.51757  0.54543  0.85853  Biso   1.000  C
  H57      1.0000 0.52977  0.57663  0.75973  Biso   1.000  H
  C58      1.0000 0.50907  0.55043  0.11663  Biso   1.000  C
  H58      1.0000 0.51557  0.58603  0.19813  Biso   1.000  H
  C59      1.0000 0.18423  0.87877  0.19187  Biso   1.000  C
  H59      1.0000 0.19643  0.90997  0.09307  Biso   1.000  H
  C60      1.0000 0.17573  0.88377  0.44997  Biso   1.000  C
  H60      1.0000 0.18223  0.91937  0.53147  Biso   1.000  H
  C61      1.0000 0.36120  0.14910  0.52520  Biso   1.000  C
  H61      1.0000 0.38020  0.13690  0.42640  Biso   1.000  H
  C62      1.0000 0.37470  0.15760  0.78330  Biso   1.000  C
  H62      1.0000 0.40380  0.15110  0.86480  Biso   1.000  H
  C63      1.0000 0.02787  0.48243  0.85853  Biso   1.000  C
  H63      1.0000 0.04687  0.47023  0.75973  Biso   1.000  H
  C64      1.0000 0.04137  0.49093  0.11663  Biso   1.000  C
  H64      1.0000 0.07047  0.48443  0.19813  Biso   1.000  H
  C65      1.0000 0.69453  0.81577  0.19187  Biso   1.000  C
  H65      1.0000 0.71353  0.80357  0.09307  Biso   1.000  H
  C66      1.0000 0.70803  0.82427  0.44997  Biso   1.000  C
  H66      1.0000 0.73713  0.81777  0.53147  Biso   1.000  H
  C67      1.0000 0.78790  0.63880  0.52520  Biso   1.000  C
  H67      1.0000 0.75670  0.61980  0.42640  Biso   1.000  H
  C68      1.0000 0.78290  0.62530  0.78330  Biso   1.000  C
  H68      1.0000 0.74730  0.59620  0.86480  Biso   1.000  H
  C69      1.0000 0.45457  0.97213  0.85853  Biso   1.000  C
  H69      1.0000 0.42337  0.95313  0.75973  Biso   1.000  H
  C70      1.0000 0.44957  0.95863  0.11663  Biso   1.000  C
  H70      1.0000 0.41397  0.92953  0.19813  Biso   1.000  H
  C71      1.0000 0.12123  0.30547  0.19187  Biso   1.000  C
  H71      1.0000 0.09003  0.28647  0.09307  Biso   1.000  H
  C72      1.0000 0.11623  0.29197  0.44997  Biso   1.000  C
  H72      1.0000 0.08063  0.26287  0.53147  Biso   1.000  H
  Fe1      1.0000 0.66667  0.33333  0.33333  Biso   1.000  Fe
  Fe2      1.0000 0.33333  0.66667  0.66667  Biso   1.000  Fe
  Fe3      1.0000 0.00000  0.00000  0.00000  Biso   1.000  Fe
  Fe4      1.0000 0.66667  0.33333  0.83333  Biso   1.000  Fe
  Fe5      1.0000 0.33333  0.66667  0.16667  Biso   1.000  Fe
  Fe6      1.0000 0.00000  0.00000  0.50000  Biso   1.000  Fe
  N1       1.0000 0.74337  0.25663  0.46280  Biso   1.000  N
  N2       1.0000 0.71067  0.28933  0.50950  Biso   1.000  N
  N3       1.0000 0.70817  0.29183  0.68650  Biso   1.000  N
  N4       1.0000 0.73922  0.26078  0.75970  Biso   1.000  N
  C73      1.0000 0.79807  0.20193  0.64140  Biso   1.000  C
  C74      1.0000 0.76057  0.23943  0.61840  Biso   1.000  C
  N5       1.0000 0.41004  0.58996  0.79613  Biso   1.000  N
  N6       1.0000 0.37734  0.62266  0.84283  Biso   1.000  N
  N7       1.0000 0.37484  0.62516  0.01983  Biso   1.000  N
  N8       1.0000 0.40589  0.59411  0.09303  Biso   1.000  N
  C75      1.0000 0.46474  0.53526  0.97473  Biso   1.000  C
  C76      1.0000 0.42724  0.57276  0.95173  Biso   1.000  C
  N9       1.0000 0.07670  0.92330  0.12947  Biso   1.000  N
  N10      1.0000 0.04400  0.95600  0.17617  Biso   1.000  N
  N11      1.0000 0.04150  0.95850  0.35317  Biso   1.000  N
  N12      1.0000 0.07255  0.92745  0.42637  Biso   1.000  N
  C77      1.0000 0.13140  0.86860  0.30807  Biso   1.000  C
  C78      1.0000 0.09390  0.90610  0.28507  Biso   1.000  C
  N13      1.0000 0.74337  0.48674  0.46280  Biso   1.000  N
  N14      1.0000 0.71067  0.42134  0.50950  Biso   1.000  N
  N15      1.0000 0.70817  0.41634  0.68650  Biso   1.000  N
  N16      1.0000 0.73922  0.47844  0.75970  Biso   1.000  N
  C79      1.0000 0.79807  0.59614  0.64140  Biso   1.000  C
  C80      1.0000 0.76057  0.52114  0.61840  Biso   1.000  C
  N17      1.0000 0.41004  0.82007  0.79613  Biso   1.000  N
  N18      1.0000 0.37734  0.75467  0.84283  Biso   1.000  N
  N19      1.0000 0.37484  0.74967  0.01983  Biso   1.000  N
  N20      1.0000 0.40589  0.81177  0.09303  Biso   1.000  N
  C81      1.0000 0.46474  0.92947  0.97473  Biso   1.000  C
  C82      1.0000 0.42724  0.85447  0.95173  Biso   1.000  C
  N21      1.0000 0.07670  0.15341  0.12947  Biso   1.000  N
  N22      1.0000 0.04400  0.08801  0.17617  Biso   1.000  N
  N23      1.0000 0.04150  0.08301  0.35317  Biso   1.000  N
  N24      1.0000 0.07255  0.14511  0.42637  Biso   1.000  N
  C83      1.0000 0.13140  0.26281  0.30807  Biso   1.000  C
  C84      1.0000 0.09390  0.18781  0.28507  Biso   1.000  C
  N25      1.0000 0.51326  0.25663  0.46280  Biso   1.000  N
  N26      1.0000 0.57866  0.28933  0.50950  Biso   1.000  N
  N27      1.0000 0.58366  0.29183  0.68650  Biso   1.000  N
  N28      1.0000 0.52156  0.26078  0.75970  Biso   1.000  N
  C85      1.0000 0.40386  0.20193  0.64140  Biso   1.000  C
  C86      1.0000 0.47886  0.23943  0.61840  Biso   1.000  C
  N29      1.0000 0.17993  0.58996  0.79613  Biso   1.000  N
  N30      1.0000 0.24533  0.62266  0.84283  Biso   1.000  N
  N31      1.0000 0.25033  0.62516  0.01983  Biso   1.000  N
  N32      1.0000 0.18823  0.59411  0.09303  Biso   1.000  N
  C87      1.0000 0.07053  0.53526  0.97473  Biso   1.000  C
  C88      1.0000 0.14553  0.57276  0.95173  Biso   1.000  C
  N33      1.0000 0.84659  0.92330  0.12947  Biso   1.000  N
  N34      1.0000 0.91199  0.95600  0.17617  Biso   1.000  N
  N35      1.0000 0.91699  0.95850  0.35317  Biso   1.000  N
  N36      1.0000 0.85489  0.92745  0.42637  Biso   1.000  N
  C89      1.0000 0.73719  0.86860  0.30807  Biso   1.000  C
  C90      1.0000 0.81219  0.90610  0.28507  Biso   1.000  C
  N37      1.0000 0.25663  0.74337  0.53720  Biso   1.000  N
  N38      1.0000 0.28933  0.71067  0.49050  Biso   1.000  N
  N39      1.0000 0.29183  0.70817  0.31350  Biso   1.000  N
  N40      1.0000 0.26078  0.73922  0.24030  Biso   1.000  N
  C91      1.0000 0.20193  0.79807  0.35860  Biso   1.000  C
  C92      1.0000 0.23943  0.76057  0.38160  Biso   1.000  C
  N41      1.0000 0.92330  0.07670  0.87053  Biso   1.000  N
  N42      1.0000 0.95600  0.04400  0.82383  Biso   1.000  N
  N43      1.0000 0.95850  0.04150  0.64683  Biso   1.000  N
  N44      1.0000 0.92745  0.07255  0.57363  Biso   1.000  N
  C93      1.0000 0.86860  0.13140  0.69193  Biso   1.000  C
  C94      1.0000 0.90610  0.09390  0.71493  Biso   1.000  C
  N45      1.0000 0.58996  0.41004  0.20387  Biso   1.000  N
  N46      1.0000 0.62266  0.37734  0.15717  Biso   1.000  N
  N47      1.0000 0.62516  0.37484  0.98017  Biso   1.000  N
  N48      1.0000 0.59411  0.40589  0.90697  Biso   1.000  N
  C95      1.0000 0.53526  0.46474  0.02527  Biso   1.000  C
  C96      1.0000 0.57276  0.42724  0.04827  Biso   1.000  C
  N49      1.0000 0.48674  0.74337  0.53720  Biso   1.000  N
  N50      1.0000 0.42134  0.71067  0.49050  Biso   1.000  N
  N51      1.0000 0.41634  0.70817  0.31350  Biso   1.000  N
  N52      1.0000 0.47844  0.73922  0.24030  Biso   1.000  N
  C97      1.0000 0.59614  0.79807  0.35860  Biso   1.000  C
  C98      1.0000 0.52114  0.76057  0.38160  Biso   1.000  C
  N53      1.0000 0.15341  0.07670  0.87053  Biso   1.000  N
  N54      1.0000 0.08801  0.04400  0.82383  Biso   1.000  N
  N55      1.0000 0.08301  0.04150  0.64683  Biso   1.000  N
  N56      1.0000 0.14511  0.07255  0.57363  Biso   1.000  N
  C99      1.0000 0.26281  0.13140  0.69193  Biso   1.000  C
  C100     1.0000 0.18781  0.09390  0.71493  Biso   1.000  C
  N57      1.0000 0.82007  0.41004  0.20387  Biso   1.000  N
  N58      1.0000 0.75467  0.37734  0.15717  Biso   1.000  N
  N59      1.0000 0.74967  0.37484  0.98017  Biso   1.000  N
  N60      1.0000 0.81177  0.40589  0.90697  Biso   1.000  N
  C101     1.0000 0.92947  0.46474  0.02527  Biso   1.000  C
  C102     1.0000 0.85447  0.42724  0.04827  Biso   1.000  C
  N61      1.0000 0.25663  0.51326  0.53720  Biso   1.000  N
  N62      1.0000 0.28933  0.57866  0.49050  Biso   1.000  N
  N63      1.0000 0.29183  0.58366  0.31350  Biso   1.000  N
  N64      1.0000 0.26078  0.52156  0.24030  Biso   1.000  N
  C103     1.0000 0.20193  0.40386  0.35860  Biso   1.000  C
  C104     1.0000 0.23943  0.47886  0.38160  Biso   1.000  C
  N65      1.0000 0.92330  0.84659  0.87053  Biso   1.000  N
  N66      1.0000 0.95600  0.91199  0.82383  Biso   1.000  N
  N67      1.0000 0.95850  0.91699  0.64683  Biso   1.000  N
  N68      1.0000 0.92745  0.85489  0.57363  Biso   1.000  N
  C105     1.0000 0.86860  0.73719  0.69193  Biso   1.000  C
  C106     1.0000 0.90610  0.81219  0.71493  Biso   1.000  C
  N69      1.0000 0.58996  0.17993  0.20387  Biso   1.000  N
  N70      1.0000 0.62266  0.24533  0.15717  Biso   1.000  N
  N71      1.0000 0.62516  0.25033  0.98017  Biso   1.000  N
  N72      1.0000 0.59411  0.18823  0.90697  Biso   1.000  N
  C107     1.0000 0.53526  0.07053  0.02527  Biso   1.000  C
  C108     1.0000 0.57276  0.14553  0.04827  Biso   1.000  C
  H73      1.0000 0.08545  0.17090  0.01770  Biso   1.000  H
  H74      1.0000 0.07800  0.15600  0.54370  Biso   1.000  H
  H75      1.0000 0.75212  0.50423  0.35103  Biso   1.000  H
  H76      1.0000 0.74467  0.48933  0.87703  Biso   1.000  H
  H77      1.0000 0.41878  0.83757  0.68437  Biso   1.000  H
  H78      1.0000 0.41133  0.82267  0.21037  Biso   1.000  H
  H79      1.0000 0.82910  0.91455  0.01770  Biso   1.000  H
  H80      1.0000 0.84400  0.92200  0.54370  Biso   1.000  H
  H81      1.0000 0.49577  0.24788  0.35103  Biso   1.000  H
  H82      1.0000 0.51067  0.25533  0.87703  Biso   1.000  H
  H83      1.0000 0.16243  0.58122  0.68437  Biso   1.000  H
  H84      1.0000 0.17733  0.58867  0.21037  Biso   1.000  H
  H85      1.0000 0.08545  0.91455  0.01770  Biso   1.000  H
  H86      1.0000 0.07800  0.92200  0.54370  Biso   1.000  H
  H87      1.0000 0.75212  0.24788  0.35103  Biso   1.000  H
  H88      1.0000 0.74467  0.25533  0.87703  Biso   1.000  H
  H89      1.0000 0.41878  0.58122  0.68437  Biso   1.000  H
  H90      1.0000 0.41133  0.58867  0.21037  Biso   1.000  H
  H91      1.0000 0.17090  0.08545  0.98230  Biso   1.000  H
  H92      1.0000 0.15600  0.07800  0.45630  Biso   1.000  H
  H93      1.0000 0.83757  0.41878  0.31563  Biso   1.000  H
  H94      1.0000 0.82267  0.41133  0.78963  Biso   1.000  H
  H95      1.0000 0.50423  0.75212  0.64897  Biso   1.000  H
  H96      1.0000 0.48933  0.74467  0.12297  Biso   1.000  H
  H97      1.0000 0.91455  0.82910  0.98230  Biso   1.000  H
  H98      1.0000 0.92200  0.84400  0.45630  Biso   1.000  H
  H99      1.0000 0.58122  0.16243  0.31563  Biso   1.000  H
  H100     1.0000 0.58867  0.17733  0.78963  Biso   1.000  H
  H101     1.0000 0.24788  0.49577  0.64897  Biso   1.000  H
  H102     1.0000 0.25533  0.51067  0.12297  Biso   1.000  H
  H103     1.0000 0.91455  0.08545  0.98230  Biso   1.000  H
  H104     1.0000 0.92200  0.07800  0.45630  Biso   1.000  H
  H105     1.0000 0.58122  0.41878  0.31563  Biso   1.000  H
  H106     1.0000 0.58867  0.41133  0.78963  Biso   1.000  H
  H107     1.0000 0.24788  0.75212  0.64897  Biso   1.000  H
  H108     1.0000 0.25533  0.74467  0.12297  Biso   1.000  H
