data_DAXKOE_charged
_audit_creation_date              2014-07-02
_audit_creation_method            'Materials Studio'
_symmetry_space_group_name_H-M    'P1'
_symmetry_Int_Tables_number       1
_symmetry_cell_setting            triclinic
loop_
_symmetry_equiv_pos_as_xyz
  x,y,z
_cell_length_a                    10.1149
_cell_length_b                    10.1149
_cell_length_c                    11.4670
_cell_angle_alpha                 98.9204
_cell_angle_beta                  98.9204
_cell_angle_gamma                 115.2780
loop_
_atom_site_label
_atom_site_type_symbol
_atom_site_fract_x
_atom_site_fract_y
_atom_site_fract_z
_atom_site_U_iso_or_equiv
_atom_site_adp_type
_atom_site_occupancy
In1    In    0.36303   0.63697   0.25000   0.01267  Uiso   1.00
In2    In    0.63697   0.36303   0.75000   0.01267  Uiso   1.00
H1     H     0.41860   0.78620   0.56800   0.01267  Uiso   1.00
H2     H     0.58370   0.75390   0.05770   0.01267  Uiso   1.00
H3     H     0.21380   0.58140   0.93200   0.01267  Uiso   1.00
H4     H     0.24610   0.41630   0.44230   0.01267  Uiso   1.00
H5     H     0.58140   0.21380   0.43200   0.01267  Uiso   1.00
H6     H     0.41630   0.24610   0.94230   0.01267  Uiso   1.00
H7     H     0.78620   0.41860   0.06800   0.01267  Uiso   1.00
H8     H     0.75390   0.58370   0.55770   0.01267  Uiso   1.00
C1     C     0.45130   0.87250   0.53860   0.01267  Uiso   1.00
C2     C     0.54890   0.65010   0.03510   0.01267  Uiso   1.00
C3     C     0.60630   0.58890   0.95060   0.01267  Uiso   1.00
C4     C     0.48650   0.98670   0.38040   0.01267  Uiso   1.00
C5     C     0.46600   0.96820   0.24390   0.01267  Uiso   1.00
C6     C     0.72250   0.68450   0.89100   0.01267  Uiso   1.00
C7     C     0.12750   0.54870   0.96140   0.01267  Uiso   1.00
C8     C     0.34990   0.45110   0.46490   0.01267  Uiso   1.00
C9     C     0.41110   0.39370   0.54940   0.01267  Uiso   1.00
C10    C     0.01330   0.51350   0.11960   0.01267  Uiso   1.00
C11    C     0.03180   0.53400   0.25610   0.01267  Uiso   1.00
C12    C     0.31550   0.27750   0.60900   0.01267  Uiso   1.00
C13    C     0.54870   0.12750   0.46140   0.01267  Uiso   1.00
C14    C     0.45110   0.34990   0.96490   0.01267  Uiso   1.00
C15    C     0.39370   0.41110   0.04940   0.01267  Uiso   1.00
C16    C     0.51350   0.01330   0.61960   0.01267  Uiso   1.00
C17    C     0.53400   0.03180   0.75610   0.01267  Uiso   1.00
C18    C     0.27750   0.31550   0.10900   0.01267  Uiso   1.00
C19    C     0.87250   0.45130   0.03860   0.01267  Uiso   1.00
C20    C     0.65010   0.54890   0.53510   0.01267  Uiso   1.00
C21    C     0.58890   0.60630   0.45060   0.01267  Uiso   1.00
C22    C     0.98670   0.48650   0.88040   0.01267  Uiso   1.00
C23    C     0.96820   0.46600   0.74390   0.01267  Uiso   1.00
C24    C     0.68450   0.72250   0.39100   0.01267  Uiso   1.00
N1     N     0.43790   0.85930   0.41910   0.01267  Uiso   1.00
N2     N     0.44393   0.55927   0.08350   0.01267  Uiso   1.00
N3     N     0.14070   0.56210   0.08090   0.01267  Uiso   1.00
N4     N     0.44073   0.55607   0.41650   0.01267  Uiso   1.00
N5     N     0.56210   0.14070   0.58090   0.01267  Uiso   1.00
N6     N     0.55607   0.44073   0.91650   0.01267  Uiso   1.00
N7     N     0.85930   0.43790   0.91910   0.01267  Uiso   1.00
N8     N     0.55927   0.44393   0.58350   0.01267  Uiso   1.00
O1     O     0.40872   0.83348   0.17860   0.01267  Uiso   1.00
O2     O     0.50160   0.08060   0.20460   0.01267  Uiso   1.00
O3     O     0.74989   0.61411   0.80540   0.01267  Uiso   1.00
O4     O     0.78350   0.82330   0.93130   0.01267  Uiso   1.00
O5     O     0.16652   0.59128   0.32140   0.01267  Uiso   1.00
O6     O     0.91940   0.49840   0.29540   0.01267  Uiso   1.00
O7     O     0.38589   0.25011   0.69460   0.01267  Uiso   1.00
O8     O     0.17670   0.21650   0.56870   0.01267  Uiso   1.00
O9     O     0.59128   0.16652   0.82140   0.01267  Uiso   1.00
O10    O     0.49840   0.91940   0.79540   0.01267  Uiso   1.00
O11    O     0.25011   0.38589   0.19460   0.01267  Uiso   1.00
O12    O     0.21650   0.17670   0.06870   0.01267  Uiso   1.00
O13    O     0.83348   0.40872   0.67860   0.01267  Uiso   1.00
O14    O     0.08060   0.50160   0.70460   0.01267  Uiso   1.00
O15    O     0.61411   0.74989   0.30540   0.01267  Uiso   1.00
O16    O     0.82330   0.78350   0.43130   0.01267  Uiso   1.00
