data_image0
_cell_length_a       16.4025
_cell_length_b       16.4025
_cell_length_c       25.4701
_cell_angle_alpha    90
_cell_angle_beta     90
_cell_angle_gamma    120

_symmetry_space_group_name_H-M    P 1
_symmetry_int_tables_number       1

loop_
  _symmetry_equiv_pos_as_xyz
  'x, y, z'

loop_
  _atom_site_label
  _atom_site_occupancy
  _atom_site_fract_x
  _atom_site_fract_y
  _atom_site_fract_z
  _atom_site_thermal_displace_type
  _atom_site_B_iso_or_equiv
  _atom_site_type_symbol
  Zn1      1.0000 0.57628  0.28814  0.83333  Biso   1.000  Zn
  Zn2      1.0000 0.71186  0.42372  0.16667  Biso   1.000  Zn
  Zn3      1.0000 0.71186  0.28814  0.50000  Biso   1.000  Zn
  Zn4      1.0000 0.42372  0.71186  0.83333  Biso   1.000  Zn
  Zn5      1.0000 0.28814  0.57628  0.16667  Biso   1.000  Zn
  Zn6      1.0000 0.28814  0.71186  0.50000  Biso   1.000  Zn
  H1       1.0000 0.35940  0.41430  0.79920  Biso   1.000  H
  H2       1.0000 0.28790  0.45960  0.86250  Biso   1.000  H
  H3       1.0000 0.45760  0.35850  0.77950  Biso   1.000  H
  H4       1.0000 0.50340  0.33160  0.92640  Biso   1.000  H
  H5       1.0000 0.40330  0.38640  0.95360  Biso   1.000  H
  H6       1.0000 0.17690  0.46980  0.86250  Biso   1.000  H
  H7       1.0000 0.17700  0.46300  0.01660  Biso   1.000  H
  H8       1.0000 0.77320  0.17250  0.92320  Biso   1.000  H
  H9       1.0000 0.05490  0.64060  0.13253  Biso   1.000  H
  H10      1.0000 0.17170  0.71210  0.19583  Biso   1.000  H
  H11      1.0000 0.90090  0.54240  0.11283  Biso   1.000  H
  H12      1.0000 0.82820  0.49660  0.25973  Biso   1.000  H
  H13      1.0000 0.98310  0.59670  0.28693  Biso   1.000  H
  H14      1.0000 0.29290  0.82310  0.19583  Biso   1.000  H
  H15      1.0000 0.28600  0.82300  0.34993  Biso   1.000  H
  H16      1.0000 0.39930  0.22680  0.25653  Biso   1.000  H
  H17      1.0000 0.58570  0.94510  0.46587  Biso   1.000  H
  H18      1.0000 0.54040  0.82830  0.52917  Biso   1.000  H
  H19      1.0000 0.64150  0.09910  0.44617  Biso   1.000  H
  H20      1.0000 0.66840  0.17180  0.59307  Biso   1.000  H
  H21      1.0000 0.61360  0.01690  0.62027  Biso   1.000  H
  H22      1.0000 0.53020  0.70710  0.52917  Biso   1.000  H
  H23      1.0000 0.53700  0.71400  0.68327  Biso   1.000  H
  H24      1.0000 0.82750  0.60070  0.58987  Biso   1.000  H
  H25      1.0000 0.64060  0.58570  0.79920  Biso   1.000  H
  H26      1.0000 0.71210  0.54040  0.86250  Biso   1.000  H
  H27      1.0000 0.54240  0.64150  0.77950  Biso   1.000  H
  H28      1.0000 0.49660  0.66840  0.92640  Biso   1.000  H
  H29      1.0000 0.59670  0.61360  0.95360  Biso   1.000  H
  H30      1.0000 0.82310  0.53020  0.86250  Biso   1.000  H
  H31      1.0000 0.82300  0.53700  0.01660  Biso   1.000  H
  H32      1.0000 0.22680  0.82750  0.92320  Biso   1.000  H
  H33      1.0000 0.94510  0.35940  0.13253  Biso   1.000  H
  H34      1.0000 0.82830  0.28790  0.19583  Biso   1.000  H
  H35      1.0000 0.09910  0.45760  0.11283  Biso   1.000  H
  H36      1.0000 0.17180  0.50340  0.25973  Biso   1.000  H
  H37      1.0000 0.01690  0.40330  0.28693  Biso   1.000  H
  H38      1.0000 0.70710  0.17690  0.19583  Biso   1.000  H
  H39      1.0000 0.71400  0.17700  0.34993  Biso   1.000  H
  H40      1.0000 0.60070  0.77320  0.25653  Biso   1.000  H
  H41      1.0000 0.41430  0.05490  0.46587  Biso   1.000  H
  H42      1.0000 0.45960  0.17170  0.52917  Biso   1.000  H
  H43      1.0000 0.35850  0.90090  0.44617  Biso   1.000  H
  H44      1.0000 0.33160  0.82820  0.59307  Biso   1.000  H
  H45      1.0000 0.38640  0.98310  0.62027  Biso   1.000  H
  H46      1.0000 0.46980  0.29290  0.52917  Biso   1.000  H
  H47      1.0000 0.46300  0.28600  0.68327  Biso   1.000  H
  H48      1.0000 0.17250  0.39930  0.58987  Biso   1.000  H
  H49      1.0000 0.94510  0.58570  0.53413  Biso   1.000  H
  H50      1.0000 0.82830  0.54040  0.47083  Biso   1.000  H
  H51      1.0000 0.09910  0.64150  0.55383  Biso   1.000  H
  H52      1.0000 0.17180  0.66840  0.40693  Biso   1.000  H
  H53      1.0000 0.01690  0.61360  0.37973  Biso   1.000  H
  H54      1.0000 0.70710  0.53020  0.47083  Biso   1.000  H
  H55      1.0000 0.71400  0.53700  0.31673  Biso   1.000  H
  H56      1.0000 0.60070  0.82750  0.41013  Biso   1.000  H
  H57      1.0000 0.41430  0.35940  0.20080  Biso   1.000  H
  H58      1.0000 0.45960  0.28790  0.13750  Biso   1.000  H
  H59      1.0000 0.35850  0.45760  0.22050  Biso   1.000  H
  H60      1.0000 0.33160  0.50340  0.07360  Biso   1.000  H
  H61      1.0000 0.38640  0.40330  0.04640  Biso   1.000  H
  H62      1.0000 0.46980  0.17690  0.13750  Biso   1.000  H
  H63      1.0000 0.46300  0.17700  0.98340  Biso   1.000  H
  H64      1.0000 0.17250  0.77320  0.07680  Biso   1.000  H
  H65      1.0000 0.64060  0.05490  0.86747  Biso   1.000  H
  H66      1.0000 0.71210  0.17170  0.80417  Biso   1.000  H
  H67      1.0000 0.54240  0.90090  0.88717  Biso   1.000  H
  H68      1.0000 0.49660  0.82820  0.74027  Biso   1.000  H
  H69      1.0000 0.59670  0.98310  0.71307  Biso   1.000  H
  H70      1.0000 0.82310  0.29290  0.80417  Biso   1.000  H
  H71      1.0000 0.82300  0.28600  0.65007  Biso   1.000  H
  H72      1.0000 0.22680  0.39930  0.74347  Biso   1.000  H
  H73      1.0000 0.05490  0.41430  0.53413  Biso   1.000  H
  H74      1.0000 0.17170  0.45960  0.47083  Biso   1.000  H
  H75      1.0000 0.90090  0.35850  0.55383  Biso   1.000  H
  H76      1.0000 0.82820  0.33160  0.40693  Biso   1.000  H
  H77      1.0000 0.98310  0.38640  0.37973  Biso   1.000  H
  H78      1.0000 0.29290  0.46980  0.47083  Biso   1.000  H
  H79      1.0000 0.28600  0.46300  0.31673  Biso   1.000  H
  H80      1.0000 0.39930  0.17250  0.41013  Biso   1.000  H
  H81      1.0000 0.58570  0.64060  0.20080  Biso   1.000  H
  H82      1.0000 0.54040  0.71210  0.13750  Biso   1.000  H
  H83      1.0000 0.64150  0.54240  0.22050  Biso   1.000  H
  H84      1.0000 0.66840  0.49660  0.07360  Biso   1.000  H
  H85      1.0000 0.61360  0.59670  0.04640  Biso   1.000  H
  H86      1.0000 0.53020  0.82310  0.13750  Biso   1.000  H
  H87      1.0000 0.53700  0.82300  0.98340  Biso   1.000  H
  H88      1.0000 0.82750  0.22680  0.07680  Biso   1.000  H
  H89      1.0000 0.35940  0.94510  0.86747  Biso   1.000  H
  H90      1.0000 0.28790  0.82830  0.80417  Biso   1.000  H
  H91      1.0000 0.45760  0.09910  0.88717  Biso   1.000  H
  H92      1.0000 0.50340  0.17180  0.74027  Biso   1.000  H
  H93      1.0000 0.40330  0.01690  0.71307  Biso   1.000  H
  H94      1.0000 0.17690  0.70710  0.80417  Biso   1.000  H
  H95      1.0000 0.17700  0.71400  0.65007  Biso   1.000  H
  H96      1.0000 0.77320  0.60070  0.74347  Biso   1.000  H
  H97      1.0000 0.67590  0.32410  0.00000  Biso   1.000  H
  H98      1.0000 0.84230  0.15770  0.00000  Biso   1.000  H
  H99      1.0000 0.64820  0.32410  0.33333  Biso   1.000  H
  H100     1.0000 0.31540  0.15770  0.33333  Biso   1.000  H
  H101     1.0000 0.67590  0.35180  0.66667  Biso   1.000  H
  H102     1.0000 0.84230  0.68460  0.66667  Biso   1.000  H
  H103     1.0000 0.32410  0.67590  0.00000  Biso   1.000  H
  H104     1.0000 0.15770  0.84230  0.00000  Biso   1.000  H
  H105     1.0000 0.35180  0.67590  0.33333  Biso   1.000  H
  H106     1.0000 0.68460  0.84230  0.33333  Biso   1.000  H
  H107     1.0000 0.32410  0.64820  0.66667  Biso   1.000  H
  H108     1.0000 0.15770  0.31540  0.66667  Biso   1.000  H
  C1       1.0000 0.36680  0.40680  0.87910  Biso   1.000  C
  C2       1.0000 0.38710  0.39740  0.82680  Biso   1.000  C
  C3       1.0000 0.04080  0.49280  0.94070  Biso   1.000  C
  C4       1.0000 0.26580  0.43850  0.93880  Biso   1.000  C
  C5       1.0000 0.44600  0.36450  0.81540  Biso   1.000  C
  C6       1.0000 0.18990  0.46190  0.93760  Biso   1.000  C
  C7       1.0000 0.47300  0.34860  0.90050  Biso   1.000  C
  C8       1.0000 0.41290  0.38140  0.91720  Biso   1.000  C
  C9       1.0000 0.15230  0.47400  0.89550  Biso   1.000  C
  C10      1.0000 0.68330  0.26350  0.90360  Biso   1.000  C
  C11      1.0000 0.15130  0.46910  0.98440  Biso   1.000  C
  C12      1.0000 0.71770  0.24990  0.95310  Biso   1.000  C
  C13      1.0000 0.76760  0.20050  0.95460  Biso   1.000  C
  C14      1.0000 0.04000  0.63320  0.21243  Biso   1.000  C
  C15      1.0000 0.01030  0.61290  0.16013  Biso   1.000  C
  C16      1.0000 0.45200  0.95920  0.27403  Biso   1.000  C
  C17      1.0000 0.17270  0.73420  0.27213  Biso   1.000  C
  C18      1.0000 0.91850  0.55400  0.14873  Biso   1.000  C
  C19      1.0000 0.27200  0.81010  0.27093  Biso   1.000  C
  C20      1.0000 0.87560  0.52700  0.23383  Biso   1.000  C
  C21      1.0000 0.96850  0.58710  0.25053  Biso   1.000  C
  C22      1.0000 0.32170  0.84770  0.22883  Biso   1.000  C
  C23      1.0000 0.58020  0.31670  0.23693  Biso   1.000  C
  C24      1.0000 0.31780  0.84870  0.31773  Biso   1.000  C
  C25      1.0000 0.53220  0.28230  0.28643  Biso   1.000  C
  C26      1.0000 0.43290  0.23240  0.28793  Biso   1.000  C
  C27      1.0000 0.59320  0.96000  0.54577  Biso   1.000  C
  C28      1.0000 0.60260  0.98970  0.49347  Biso   1.000  C
  C29      1.0000 0.50720  0.54800  0.60737  Biso   1.000  C
  C30      1.0000 0.56150  0.82730  0.60547  Biso   1.000  C
  C31      1.0000 0.63550  0.08150  0.48207  Biso   1.000  C
  C32      1.0000 0.53810  0.72800  0.60427  Biso   1.000  C
  C33      1.0000 0.65140  0.12440  0.56717  Biso   1.000  C
  C34      1.0000 0.61860  0.03150  0.58387  Biso   1.000  C
  C35      1.0000 0.52600  0.67830  0.56217  Biso   1.000  C
  C36      1.0000 0.73650  0.41980  0.57027  Biso   1.000  C
  C37      1.0000 0.53090  0.68220  0.65107  Biso   1.000  C
  C38      1.0000 0.75010  0.46780  0.61977  Biso   1.000  C
  C39      1.0000 0.79950  0.56710  0.62127  Biso   1.000  C
  C40      1.0000 0.63320  0.59320  0.87910  Biso   1.000  C
  C41      1.0000 0.61290  0.60260  0.82680  Biso   1.000  C
  C42      1.0000 0.95920  0.50720  0.94070  Biso   1.000  C
  C43      1.0000 0.73420  0.56150  0.93880  Biso   1.000  C
  C44      1.0000 0.55400  0.63550  0.81540  Biso   1.000  C
  C45      1.0000 0.81010  0.53810  0.93760  Biso   1.000  C
  C46      1.0000 0.52700  0.65140  0.90050  Biso   1.000  C
  C47      1.0000 0.58710  0.61860  0.91720  Biso   1.000  C
  C48      1.0000 0.84770  0.52600  0.89550  Biso   1.000  C
  C49      1.0000 0.31670  0.73650  0.90360  Biso   1.000  C
  C50      1.0000 0.84870  0.53090  0.98440  Biso   1.000  C
  C51      1.0000 0.28230  0.75010  0.95310  Biso   1.000  C
  C52      1.0000 0.23240  0.79950  0.95460  Biso   1.000  C
  C53      1.0000 0.96000  0.36680  0.21243  Biso   1.000  C
  C54      1.0000 0.98970  0.38710  0.16013  Biso   1.000  C
  C55      1.0000 0.54800  0.04080  0.27403  Biso   1.000  C
  C56      1.0000 0.82730  0.26580  0.27213  Biso   1.000  C
  C57      1.0000 0.08150  0.44600  0.14873  Biso   1.000  C
  C58      1.0000 0.72800  0.18990  0.27093  Biso   1.000  C
  C59      1.0000 0.12440  0.47300  0.23383  Biso   1.000  C
  C60      1.0000 0.03150  0.41290  0.25053  Biso   1.000  C
  C61      1.0000 0.67830  0.15230  0.22883  Biso   1.000  C
  C62      1.0000 0.41980  0.68330  0.23693  Biso   1.000  C
  C63      1.0000 0.68220  0.15130  0.31773  Biso   1.000  C
  C64      1.0000 0.46780  0.71770  0.28643  Biso   1.000  C
  C65      1.0000 0.56710  0.76760  0.28793  Biso   1.000  C
  C66      1.0000 0.40680  0.04000  0.54577  Biso   1.000  C
  C67      1.0000 0.39740  0.01030  0.49347  Biso   1.000  C
  C68      1.0000 0.49280  0.45200  0.60737  Biso   1.000  C
  C69      1.0000 0.43850  0.17270  0.60547  Biso   1.000  C
  C70      1.0000 0.36450  0.91850  0.48207  Biso   1.000  C
  C71      1.0000 0.46190  0.27200  0.60427  Biso   1.000  C
  C72      1.0000 0.34860  0.87560  0.56717  Biso   1.000  C
  C73      1.0000 0.38140  0.96850  0.58387  Biso   1.000  C
  C74      1.0000 0.47400  0.32170  0.56217  Biso   1.000  C
  C75      1.0000 0.26350  0.58020  0.57027  Biso   1.000  C
  C76      1.0000 0.46910  0.31780  0.65107  Biso   1.000  C
  C77      1.0000 0.24990  0.53220  0.61977  Biso   1.000  C
  C78      1.0000 0.20050  0.43290  0.62127  Biso   1.000  C
  C79      1.0000 0.96000  0.59320  0.45423  Biso   1.000  C
  C80      1.0000 0.98970  0.60260  0.50653  Biso   1.000  C
  C81      1.0000 0.54800  0.50720  0.39263  Biso   1.000  C
  C82      1.0000 0.82730  0.56150  0.39453  Biso   1.000  C
  C83      1.0000 0.08150  0.63550  0.51793  Biso   1.000  C
  C84      1.0000 0.72800  0.53810  0.39573  Biso   1.000  C
  C85      1.0000 0.12440  0.65140  0.43283  Biso   1.000  C
  C86      1.0000 0.03150  0.61860  0.41613  Biso   1.000  C
  C87      1.0000 0.67830  0.52600  0.43783  Biso   1.000  C
  C88      1.0000 0.41980  0.73650  0.42973  Biso   1.000  C
  C89      1.0000 0.68220  0.53090  0.34893  Biso   1.000  C
  C90      1.0000 0.46780  0.75010  0.38023  Biso   1.000  C
  C91      1.0000 0.56710  0.79950  0.37873  Biso   1.000  C
  C92      1.0000 0.40680  0.36680  0.12090  Biso   1.000  C
  C93      1.0000 0.39740  0.38710  0.17320  Biso   1.000  C
  C94      1.0000 0.49280  0.04080  0.05930  Biso   1.000  C
  C95      1.0000 0.43850  0.26580  0.06120  Biso   1.000  C
  C96      1.0000 0.36450  0.44600  0.18460  Biso   1.000  C
  C97      1.0000 0.46190  0.18990  0.06240  Biso   1.000  C
  C98      1.0000 0.34860  0.47300  0.09950  Biso   1.000  C
  C99      1.0000 0.38140  0.41290  0.08280  Biso   1.000  C
  C100     1.0000 0.47400  0.15230  0.10450  Biso   1.000  C
  C101     1.0000 0.26350  0.68330  0.09640  Biso   1.000  C
  C102     1.0000 0.46910  0.15130  0.01560  Biso   1.000  C
  C103     1.0000 0.24990  0.71770  0.04690  Biso   1.000  C
  C104     1.0000 0.20050  0.76760  0.04540  Biso   1.000  C
  C105     1.0000 0.63320  0.04000  0.78757  Biso   1.000  C
  C106     1.0000 0.61290  0.01030  0.83987  Biso   1.000  C
  C107     1.0000 0.95920  0.45200  0.72597  Biso   1.000  C
  C108     1.0000 0.73420  0.17270  0.72787  Biso   1.000  C
  C109     1.0000 0.55400  0.91850  0.85127  Biso   1.000  C
  C110     1.0000 0.81010  0.27200  0.72907  Biso   1.000  C
  C111     1.0000 0.52700  0.87560  0.76617  Biso   1.000  C
  C112     1.0000 0.58710  0.96850  0.74947  Biso   1.000  C
  C113     1.0000 0.84770  0.32170  0.77117  Biso   1.000  C
  C114     1.0000 0.31670  0.58020  0.76307  Biso   1.000  C
  C115     1.0000 0.84870  0.31780  0.68227  Biso   1.000  C
  C116     1.0000 0.28230  0.53220  0.71357  Biso   1.000  C
  C117     1.0000 0.23240  0.43290  0.71207  Biso   1.000  C
  C118     1.0000 0.04000  0.40680  0.45423  Biso   1.000  C
  C119     1.0000 0.01030  0.39740  0.50653  Biso   1.000  C
  C120     1.0000 0.45200  0.49280  0.39263  Biso   1.000  C
  C121     1.0000 0.17270  0.43850  0.39453  Biso   1.000  C
  C122     1.0000 0.91850  0.36450  0.51793  Biso   1.000  C
  C123     1.0000 0.27200  0.46190  0.39573  Biso   1.000  C
  C124     1.0000 0.87560  0.34860  0.43283  Biso   1.000  C
  C125     1.0000 0.96850  0.38140  0.41613  Biso   1.000  C
  C126     1.0000 0.32170  0.47400  0.43783  Biso   1.000  C
  C127     1.0000 0.58020  0.26350  0.42973  Biso   1.000  C
  C128     1.0000 0.31780  0.46910  0.34893  Biso   1.000  C
  C129     1.0000 0.53220  0.24990  0.38023  Biso   1.000  C
  C130     1.0000 0.43290  0.20050  0.37873  Biso   1.000  C
  C131     1.0000 0.59320  0.63320  0.12090  Biso   1.000  C
  C132     1.0000 0.60260  0.61290  0.17320  Biso   1.000  C
  C133     1.0000 0.50720  0.95920  0.05930  Biso   1.000  C
  C134     1.0000 0.56150  0.73420  0.06120  Biso   1.000  C
  C135     1.0000 0.63550  0.55400  0.18460  Biso   1.000  C
  C136     1.0000 0.53810  0.81010  0.06240  Biso   1.000  C
  C137     1.0000 0.65140  0.52700  0.09950  Biso   1.000  C
  C138     1.0000 0.61860  0.58710  0.08280  Biso   1.000  C
  C139     1.0000 0.52600  0.84770  0.10450  Biso   1.000  C
  C140     1.0000 0.73650  0.31670  0.09640  Biso   1.000  C
  C141     1.0000 0.53090  0.84870  0.01560  Biso   1.000  C
  C142     1.0000 0.75010  0.28230  0.04690  Biso   1.000  C
  C143     1.0000 0.79950  0.23240  0.04540  Biso   1.000  C
  C144     1.0000 0.36680  0.96000  0.78757  Biso   1.000  C
  C145     1.0000 0.38710  0.98970  0.83987  Biso   1.000  C
  C146     1.0000 0.04080  0.54800  0.72597  Biso   1.000  C
  C147     1.0000 0.26580  0.82730  0.72787  Biso   1.000  C
  C148     1.0000 0.44600  0.08150  0.85127  Biso   1.000  C
  C149     1.0000 0.18990  0.72800  0.72907  Biso   1.000  C
  C150     1.0000 0.47300  0.12440  0.76617  Biso   1.000  C
  C151     1.0000 0.41290  0.03150  0.74947  Biso   1.000  C
  C152     1.0000 0.15230  0.67830  0.77117  Biso   1.000  C
  C153     1.0000 0.68330  0.41980  0.76307  Biso   1.000  C
  C154     1.0000 0.15130  0.68220  0.68227  Biso   1.000  C
  C155     1.0000 0.71770  0.46780  0.71357  Biso   1.000  C
  C156     1.0000 0.76760  0.56710  0.71207  Biso   1.000  C
  C157     1.0000 0.70935  0.29065  0.00000  Biso   1.000  C
  C158     1.0000 0.80885  0.19115  0.00000  Biso   1.000  C
  C159     1.0000 0.58130  0.29065  0.33333  Biso   1.000  C
  C160     1.0000 0.38230  0.19115  0.33333  Biso   1.000  C
  C161     1.0000 0.70935  0.41870  0.66667  Biso   1.000  C
  C162     1.0000 0.80885  0.61770  0.66667  Biso   1.000  C
  C163     1.0000 0.29065  0.70935  0.00000  Biso   1.000  C
  C164     1.0000 0.19115  0.80885  0.00000  Biso   1.000  C
  C165     1.0000 0.41870  0.70935  0.33333  Biso   1.000  C
  C166     1.0000 0.61770  0.80885  0.33333  Biso   1.000  C
  C167     1.0000 0.29065  0.58130  0.66667  Biso   1.000  C
  C168     1.0000 0.19115  0.38230  0.66667  Biso   1.000  C
  N1       1.0000 0.48910  0.34000  0.85160  Biso   1.000  N
  N2       1.0000 0.30500  0.43780  0.88930  Biso   1.000  N
  N3       1.0000 0.07660  0.49330  0.89550  Biso   1.000  N
  N4       1.0000 0.07630  0.48460  0.98540  Biso   1.000  N
  N5       1.0000 0.85090  0.51090  0.18493  Biso   1.000  N
  N6       1.0000 0.13280  0.69500  0.22263  Biso   1.000  N
  N7       1.0000 0.41670  0.92340  0.22883  Biso   1.000  N
  N8       1.0000 0.40830  0.92370  0.31873  Biso   1.000  N
  N9       1.0000 0.66000  0.14910  0.51827  Biso   1.000  N
  N10      1.0000 0.56220  0.86720  0.55597  Biso   1.000  N
  N11      1.0000 0.50670  0.58330  0.56217  Biso   1.000  N
  N12      1.0000 0.51540  0.59170  0.65207  Biso   1.000  N
  N13      1.0000 0.51090  0.66000  0.85160  Biso   1.000  N
  N14      1.0000 0.69500  0.56220  0.88930  Biso   1.000  N
  N15      1.0000 0.92340  0.50670  0.89550  Biso   1.000  N
  N16      1.0000 0.92370  0.51540  0.98540  Biso   1.000  N
  N17      1.0000 0.14910  0.48910  0.18493  Biso   1.000  N
  N18      1.0000 0.86720  0.30500  0.22263  Biso   1.000  N
  N19      1.0000 0.58330  0.07660  0.22883  Biso   1.000  N
  N20      1.0000 0.59170  0.07630  0.31873  Biso   1.000  N
  N21      1.0000 0.34000  0.85090  0.51827  Biso   1.000  N
  N22      1.0000 0.43780  0.13280  0.55597  Biso   1.000  N
  N23      1.0000 0.49330  0.41670  0.56217  Biso   1.000  N
  N24      1.0000 0.48460  0.40830  0.65207  Biso   1.000  N
  N25      1.0000 0.14910  0.66000  0.48173  Biso   1.000  N
  N26      1.0000 0.86720  0.56220  0.44403  Biso   1.000  N
  N27      1.0000 0.58330  0.50670  0.43783  Biso   1.000  N
  N28      1.0000 0.59170  0.51540  0.34793  Biso   1.000  N
  N29      1.0000 0.34000  0.48910  0.14840  Biso   1.000  N
  N30      1.0000 0.43780  0.30500  0.11070  Biso   1.000  N
  N31      1.0000 0.49330  0.07660  0.10450  Biso   1.000  N
  N32      1.0000 0.48460  0.07630  0.01460  Biso   1.000  N
  N33      1.0000 0.51090  0.85090  0.81507  Biso   1.000  N
  N34      1.0000 0.69500  0.13280  0.77737  Biso   1.000  N
  N35      1.0000 0.92340  0.41670  0.77117  Biso   1.000  N
  N36      1.0000 0.92370  0.40830  0.68127  Biso   1.000  N
  N37      1.0000 0.85090  0.34000  0.48173  Biso   1.000  N
  N38      1.0000 0.13280  0.43780  0.44403  Biso   1.000  N
  N39      1.0000 0.41670  0.49330  0.43783  Biso   1.000  N
  N40      1.0000 0.40830  0.48460  0.34793  Biso   1.000  N
  N41      1.0000 0.66000  0.51090  0.14840  Biso   1.000  N
  N42      1.0000 0.56220  0.69500  0.11070  Biso   1.000  N
  N43      1.0000 0.50670  0.92340  0.10450  Biso   1.000  N
  N44      1.0000 0.51540  0.92370  0.01460  Biso   1.000  N
  N45      1.0000 0.48910  0.14910  0.81507  Biso   1.000  N
  N46      1.0000 0.30500  0.86720  0.77737  Biso   1.000  N
  N47      1.0000 0.07660  0.58330  0.77117  Biso   1.000  N
  N48      1.0000 0.07630  0.59170  0.68127  Biso   1.000  N
  O1       1.0000 0.62180  0.29150  0.90630  Biso   1.000  O
  O2       1.0000 0.69690  0.23600  0.86320  Biso   1.000  O
  O3       1.0000 0.29270  0.41920  0.97960  Biso   1.000  O
  O4       1.0000 0.66970  0.37820  0.23963  Biso   1.000  O
  O5       1.0000 0.53910  0.30310  0.19653  Biso   1.000  O
  O6       1.0000 0.12650  0.70730  0.31293  Biso   1.000  O
  O7       1.0000 0.70850  0.33030  0.57297  Biso   1.000  O
  O8       1.0000 0.76400  0.46090  0.52987  Biso   1.000  O
  O9       1.0000 0.58080  0.87350  0.64627  Biso   1.000  O
  O10      1.0000 0.37820  0.70850  0.90630  Biso   1.000  O
  O11      1.0000 0.30310  0.76400  0.86320  Biso   1.000  O
  O12      1.0000 0.70730  0.58080  0.97960  Biso   1.000  O
  O13      1.0000 0.33030  0.62180  0.23963  Biso   1.000  O
  O14      1.0000 0.46090  0.69690  0.19653  Biso   1.000  O
  O15      1.0000 0.87350  0.29270  0.31293  Biso   1.000  O
  O16      1.0000 0.29150  0.66970  0.57297  Biso   1.000  O
  O17      1.0000 0.23600  0.53910  0.52987  Biso   1.000  O
  O18      1.0000 0.41920  0.12650  0.64627  Biso   1.000  O
  O19      1.0000 0.33030  0.70850  0.42703  Biso   1.000  O
  O20      1.0000 0.46090  0.76400  0.47013  Biso   1.000  O
  O21      1.0000 0.87350  0.58080  0.35373  Biso   1.000  O
  O22      1.0000 0.29150  0.62180  0.09370  Biso   1.000  O
  O23      1.0000 0.23600  0.69690  0.13680  Biso   1.000  O
  O24      1.0000 0.41920  0.29270  0.02040  Biso   1.000  O
  O25      1.0000 0.37820  0.66970  0.76037  Biso   1.000  O
  O26      1.0000 0.30310  0.53910  0.80347  Biso   1.000  O
  O27      1.0000 0.70730  0.12650  0.68707  Biso   1.000  O
  O28      1.0000 0.66970  0.29150  0.42703  Biso   1.000  O
  O29      1.0000 0.53910  0.23600  0.47013  Biso   1.000  O
  O30      1.0000 0.12650  0.41920  0.35373  Biso   1.000  O
  O31      1.0000 0.70850  0.37820  0.09370  Biso   1.000  O
  O32      1.0000 0.76400  0.30310  0.13680  Biso   1.000  O
  O33      1.0000 0.58080  0.70730  0.02040  Biso   1.000  O
  O34      1.0000 0.62180  0.33030  0.76037  Biso   1.000  O
  O35      1.0000 0.69690  0.46090  0.80347  Biso   1.000  O
  O36      1.0000 0.29270  0.87350  0.68707  Biso   1.000  O
