data_image0
_cell_length_a       5.022
_cell_length_b       12.34
_cell_length_c       15.4389
_cell_angle_alpha    90
_cell_angle_beta     91.867
_cell_angle_gamma    90

_symmetry_space_group_name_H-M    P 1
_symmetry_int_tables_number       1

loop_
  _symmetry_equiv_pos_as_xyz
  'x, y, z'

loop_
  _atom_site_label
  _atom_site_occupancy
  _atom_site_fract_x
  _atom_site_fract_y
  _atom_site_fract_z
  _atom_site_thermal_displace_type
  _atom_site_B_iso_or_equiv
  _atom_site_type_symbol
  Cu1      1.0000 0.52910  0.13530  0.88280  Biso   1.000  Cu
  Cu2      1.0000 0.97090  0.63530  0.61720  Biso   1.000  Cu
  Cu3      1.0000 0.47090  0.86470  0.11720  Biso   1.000  Cu
  Cu4      1.0000 0.02910  0.36470  0.38280  Biso   1.000  Cu
  Cu5      1.0000 0.00000  0.00000  0.00000  Biso   1.000  Cu
  Cu6      1.0000 0.50000  0.50000  0.50000  Biso   1.000  Cu
  P1       1.0000 0.50080  0.89230  0.92010  Biso   1.000  P
  P2       1.0000 0.99920  0.39230  0.57990  Biso   1.000  P
  P3       1.0000 0.49920  0.10770  0.07990  Biso   1.000  P
  P4       1.0000 0.00080  0.60770  0.42010  Biso   1.000  P
  H1       1.0000 0.43700  0.70600  0.90300  Biso   1.000  H
  H2       1.0000 0.24200  0.77700  0.84800  Biso   1.000  H
  H3       1.0000 0.73900  0.71800  0.79100  Biso   1.000  H
  H4       1.0000 0.60600  0.82100  0.75400  Biso   1.000  H
  H5       1.0000 0.70300  0.31000  0.93700  Biso   1.000  H
  H6       1.0000 0.51400  0.33600  0.87600  Biso   1.000  H
  H7       1.0000 0.06300  0.20600  0.59700  Biso   1.000  H
  H8       1.0000 0.25800  0.27700  0.65200  Biso   1.000  H
  H9       1.0000 0.76100  0.21800  0.70900  Biso   1.000  H
  H10      1.0000 0.89400  0.32100  0.74600  Biso   1.000  H
  H11      1.0000 0.79700  0.81000  0.56300  Biso   1.000  H
  H12      1.0000 0.98600  0.83600  0.62400  Biso   1.000  H
  H13      1.0000 0.56300  0.29400  0.09700  Biso   1.000  H
  H14      1.0000 0.75800  0.22300  0.15200  Biso   1.000  H
  H15      1.0000 0.26100  0.28200  0.20900  Biso   1.000  H
  H16      1.0000 0.39400  0.17900  0.24600  Biso   1.000  H
  H17      1.0000 0.29700  0.69000  0.06300  Biso   1.000  H
  H18      1.0000 0.48600  0.66400  0.12400  Biso   1.000  H
  H19      1.0000 0.93700  0.79400  0.40300  Biso   1.000  H
  H20      1.0000 0.74200  0.72300  0.34800  Biso   1.000  H
  H21      1.0000 0.23900  0.78200  0.29100  Biso   1.000  H
  H22      1.0000 0.10600  0.67900  0.25400  Biso   1.000  H
  H23      1.0000 0.20300  0.19000  0.43700  Biso   1.000  H
  H24      1.0000 0.01400  0.16400  0.37600  Biso   1.000  H
  C1       1.0000 0.41550  0.77000  0.86410  Biso   1.000  C
  C2       1.0000 0.56960  0.75160  0.78220  Biso   1.000  C
  C3       1.0000 0.42620  0.68350  0.71410  Biso   1.000  C
  C4       1.0000 0.08450  0.27000  0.63590  Biso   1.000  C
  C5       1.0000 0.93040  0.25160  0.71780  Biso   1.000  C
  C6       1.0000 0.07380  0.18350  0.78590  Biso   1.000  C
  C7       1.0000 0.58450  0.23000  0.13590  Biso   1.000  C
  C8       1.0000 0.43040  0.24840  0.21780  Biso   1.000  C
  C9       1.0000 0.57380  0.31650  0.28590  Biso   1.000  C
  C10      1.0000 0.91550  0.73000  0.36410  Biso   1.000  C
  C11      1.0000 0.06960  0.74840  0.28220  Biso   1.000  C
  C12      1.0000 0.92620  0.81650  0.21410  Biso   1.000  C
  O1       1.0000 0.79000  0.88290  0.95350  Biso   1.000  O
  O2       1.0000 0.68350  0.09770  0.00080  Biso   1.000  O
  O3       1.0000 0.44880  0.98510  0.85750  Biso   1.000  O
  O4       1.0000 0.17330  0.68070  0.71850  Biso   1.000  O
  O5       1.0000 0.54940  0.63740  0.65590  Biso   1.000  O
  O6       1.0000 0.54400  0.29190  0.91530  Biso   1.000  O
  O7       1.0000 0.71000  0.38290  0.54650  Biso   1.000  O
  O8       1.0000 0.81650  0.59770  0.49920  Biso   1.000  O
  O9       1.0000 0.05120  0.48510  0.64250  Biso   1.000  O
  O10      1.0000 0.32670  0.18070  0.78150  Biso   1.000  O
  O11      1.0000 0.95060  0.13740  0.84410  Biso   1.000  O
  O12      1.0000 0.95600  0.79190  0.58470  Biso   1.000  O
  O13      1.0000 0.21000  0.11710  0.04650  Biso   1.000  O
  O14      1.0000 0.31650  0.90230  0.99920  Biso   1.000  O
  O15      1.0000 0.55120  0.01490  0.14250  Biso   1.000  O
  O16      1.0000 0.82670  0.31930  0.28150  Biso   1.000  O
  O17      1.0000 0.45060  0.36260  0.34410  Biso   1.000  O
  O18      1.0000 0.45600  0.70810  0.08470  Biso   1.000  O
  O19      1.0000 0.29000  0.61710  0.45350  Biso   1.000  O
  O20      1.0000 0.18350  0.40230  0.50080  Biso   1.000  O
  O21      1.0000 0.94880  0.51490  0.35750  Biso   1.000  O
  O22      1.0000 0.67330  0.81930  0.21850  Biso   1.000  O
  O23      1.0000 0.04940  0.86260  0.15590  Biso   1.000  O
  O24      1.0000 0.04400  0.20810  0.41530  Biso   1.000  O
