data_image0
_cell_length_a       5.8145
_cell_length_b       8.9663
_cell_length_c       16.88
_cell_angle_alpha    90
_cell_angle_beta     90
_cell_angle_gamma    94.078

_symmetry_space_group_name_H-M    P 1
_symmetry_int_tables_number       1

loop_
  _symmetry_equiv_pos_as_xyz
  'x, y, z'

loop_
  _atom_site_label
  _atom_site_occupancy
  _atom_site_fract_x
  _atom_site_fract_y
  _atom_site_fract_z
  _atom_site_thermal_displace_type
  _atom_site_B_iso_or_equiv
  _atom_site_type_symbol
  Cu1      1.0000 0.75209  0.47175  0.56490  Biso   1.000  Cu
  Cu2      1.0000 0.24791  0.02825  0.06490  Biso   1.000  Cu
  Cu3      1.0000 0.24791  0.52825  0.43510  Biso   1.000  Cu
  Cu4      1.0000 0.75209  0.97175  0.93510  Biso   1.000  Cu
  H1       1.0000 0.71200  0.14400  0.64830  Biso   1.000  H
  H2       1.0000 0.88520  0.04000  0.75670  Biso   1.000  H
  H3       1.0000 0.24590  0.30640  0.79790  Biso   1.000  H
  H4       1.0000 0.43450  0.20050  0.90130  Biso   1.000  H
  H5       1.0000 0.28800  0.35600  0.14830  Biso   1.000  H
  H6       1.0000 0.11480  0.46000  0.25670  Biso   1.000  H
  H7       1.0000 0.75410  0.19360  0.29790  Biso   1.000  H
  H8       1.0000 0.56550  0.29950  0.40130  Biso   1.000  H
  H9       1.0000 0.28800  0.85600  0.35170  Biso   1.000  H
  H10      1.0000 0.11480  0.96000  0.24330  Biso   1.000  H
  H11      1.0000 0.75410  0.69360  0.20210  Biso   1.000  H
  H12      1.0000 0.56550  0.79950  0.09870  Biso   1.000  H
  H13      1.0000 0.71200  0.64400  0.85170  Biso   1.000  H
  H14      1.0000 0.88520  0.54000  0.74330  Biso   1.000  H
  H15      1.0000 0.24590  0.80640  0.70210  Biso   1.000  H
  H16      1.0000 0.43450  0.70050  0.59870  Biso   1.000  H
  C1       1.0000 0.33460  0.30510  0.64500  Biso   1.000  C
  C2       1.0000 0.45840  0.23740  0.71010  Biso   1.000  C
  C3       1.0000 0.65050  0.15670  0.69980  Biso   1.000  C
  C4       1.0000 0.75300  0.09450  0.76490  Biso   1.000  C
  C5       1.0000 0.37740  0.25220  0.78770  Biso   1.000  C
  C6       1.0000 0.49020  0.18760  0.84900  Biso   1.000  C
  C7       1.0000 0.66540  0.19490  0.14500  Biso   1.000  C
  C8       1.0000 0.54160  0.26260  0.21010  Biso   1.000  C
  C9       1.0000 0.34950  0.34330  0.19980  Biso   1.000  C
  C10      1.0000 0.24700  0.40550  0.26490  Biso   1.000  C
  C11      1.0000 0.62260  0.24780  0.28770  Biso   1.000  C
  C12      1.0000 0.50980  0.31240  0.34900  Biso   1.000  C
  C13      1.0000 0.66540  0.69490  0.35500  Biso   1.000  C
  C14      1.0000 0.54160  0.76260  0.28990  Biso   1.000  C
  C15      1.0000 0.34950  0.84330  0.30020  Biso   1.000  C
  C16      1.0000 0.24700  0.90550  0.23510  Biso   1.000  C
  C17      1.0000 0.62260  0.74780  0.21230  Biso   1.000  C
  C18      1.0000 0.50980  0.81240  0.15100  Biso   1.000  C
  C19      1.0000 0.33460  0.80510  0.85500  Biso   1.000  C
  C20      1.0000 0.45840  0.73740  0.78990  Biso   1.000  C
  C21      1.0000 0.65050  0.65670  0.80020  Biso   1.000  C
  C22      1.0000 0.75300  0.59450  0.73510  Biso   1.000  C
  C23      1.0000 0.37740  0.75220  0.71230  Biso   1.000  C
  C24      1.0000 0.49020  0.68760  0.65100  Biso   1.000  C
  N1       1.0000 0.42750  0.35920  0.57760  Biso   1.000  N
  N2       1.0000 0.24750  0.41310  0.53830  Biso   1.000  N
  N3       1.0000 0.05910  0.39180  0.58260  Biso   1.000  N
  N4       1.0000 0.11010  0.32470  0.65040  Biso   1.000  N
  N5       1.0000 0.67350  0.10790  0.83930  Biso   1.000  N
  N6       1.0000 0.57250  0.14080  0.07760  Biso   1.000  N
  N7       1.0000 0.75250  0.08690  0.03830  Biso   1.000  N
  N8       1.0000 0.94090  0.10820  0.08260  Biso   1.000  N
  N9       1.0000 0.88990  0.17530  0.15040  Biso   1.000  N
  N10      1.0000 0.32650  0.39210  0.33930  Biso   1.000  N
  N11      1.0000 0.57250  0.64080  0.42240  Biso   1.000  N
  N12      1.0000 0.75250  0.58690  0.46170  Biso   1.000  N
  N13      1.0000 0.94090  0.60820  0.41740  Biso   1.000  N
  N14      1.0000 0.88990  0.67530  0.34960  Biso   1.000  N
  N15      1.0000 0.32650  0.89210  0.16070  Biso   1.000  N
  N16      1.0000 0.42750  0.85920  0.92240  Biso   1.000  N
  N17      1.0000 0.24750  0.91310  0.96170  Biso   1.000  N
  N18      1.0000 0.05910  0.89180  0.91740  Biso   1.000  N
  N19      1.0000 0.11010  0.82470  0.84960  Biso   1.000  N
  N20      1.0000 0.67350  0.60790  0.66070  Biso   1.000  N
