data_image0
_cell_length_a       9.317
_cell_length_b       11.742
_cell_length_c       13.251
_cell_angle_alpha    90
_cell_angle_beta     90.195
_cell_angle_gamma    90

_symmetry_space_group_name_H-M    P 1
_symmetry_int_tables_number       1

loop_
  _symmetry_equiv_pos_as_xyz
  'x, y, z'

loop_
  _atom_site_label
  _atom_site_occupancy
  _atom_site_fract_x
  _atom_site_fract_y
  _atom_site_fract_z
  _atom_site_thermal_displace_type
  _atom_site_B_iso_or_equiv
  _atom_site_type_symbol
  Mn1      1.0000 0.25000  0.05513  0.00000  Biso   1.000  Mn
  Mn2      1.0000 0.75000  0.94487  0.00000  Biso   1.000  Mn
  H1       1.0000 0.56980  0.79340  0.73870  Biso   1.000  H
  H2       1.0000 0.47390  0.70720  0.59570  Biso   1.000  H
  H3       1.0000 0.16150  0.94170  0.58950  Biso   1.000  H
  H4       1.0000 0.25830  0.02760  0.73170  Biso   1.000  H
  H5       1.0000 0.35290  0.83590  0.12750  Biso   1.000  H
  H6       1.0000 0.35790  0.64220  0.13120  Biso   1.000  H
  H7       1.0000 0.42650  0.46600  0.08620  Biso   1.000  H
  H8       1.0000 0.42380  0.27240  0.08060  Biso   1.000  H
  H9       1.0000 0.93020  0.79340  0.26130  Biso   1.000  H
  H10      1.0000 0.02610  0.70720  0.40430  Biso   1.000  H
  H11      1.0000 0.33850  0.94170  0.41050  Biso   1.000  H
  H12      1.0000 0.24170  0.02760  0.26830  Biso   1.000  H
  H13      1.0000 0.14710  0.83590  0.87250  Biso   1.000  H
  H14      1.0000 0.14210  0.64220  0.86880  Biso   1.000  H
  H15      1.0000 0.07350  0.46600  0.91380  Biso   1.000  H
  H16      1.0000 0.07620  0.27240  0.91940  Biso   1.000  H
  H17      1.0000 0.43020  0.20660  0.26130  Biso   1.000  H
  H18      1.0000 0.52610  0.29280  0.40430  Biso   1.000  H
  H19      1.0000 0.83850  0.05830  0.41050  Biso   1.000  H
  H20      1.0000 0.74170  0.97240  0.26830  Biso   1.000  H
  H21      1.0000 0.64710  0.16410  0.87250  Biso   1.000  H
  H22      1.0000 0.64210  0.35780  0.86880  Biso   1.000  H
  H23      1.0000 0.57350  0.53400  0.91380  Biso   1.000  H
  H24      1.0000 0.57620  0.72760  0.91940  Biso   1.000  H
  H25      1.0000 0.06980  0.20660  0.73870  Biso   1.000  H
  H26      1.0000 0.97390  0.29280  0.59570  Biso   1.000  H
  H27      1.0000 0.66150  0.05830  0.58950  Biso   1.000  H
  H28      1.0000 0.75830  0.97240  0.73170  Biso   1.000  H
  H29      1.0000 0.85290  0.16410  0.12750  Biso   1.000  H
  H30      1.0000 0.85790  0.35780  0.13120  Biso   1.000  H
  H31      1.0000 0.92650  0.53400  0.08620  Biso   1.000  H
  H32      1.0000 0.92380  0.72760  0.08060  Biso   1.000  H
  C1       1.0000 0.48080  0.97180  0.84560  Biso   1.000  C
  C2       1.0000 0.42380  0.91850  0.75060  Biso   1.000  C
  C3       1.0000 0.48750  0.82330  0.70900  Biso   1.000  C
  C4       1.0000 0.43060  0.77130  0.62350  Biso   1.000  C
  C5       1.0000 0.30830  0.81720  0.58080  Biso   1.000  C
  C6       1.0000 0.24350  0.91190  0.61970  Biso   1.000  C
  C7       1.0000 0.30160  0.96300  0.70490  Biso   1.000  C
  C8       1.0000 0.31040  0.79620  0.07450  Biso   1.000  C
  C9       1.0000 0.31350  0.67940  0.07750  Biso   1.000  C
  C10      1.0000 0.35440  0.42870  0.05040  Biso   1.000  C
  C11      1.0000 0.35120  0.31200  0.04750  Biso   1.000  C
  C12      1.0000 0.01920  0.97180  0.15440  Biso   1.000  C
  C13      1.0000 0.07620  0.91850  0.24940  Biso   1.000  C
  C14      1.0000 0.01250  0.82330  0.29100  Biso   1.000  C
  C15      1.0000 0.06940  0.77130  0.37650  Biso   1.000  C
  C16      1.0000 0.19170  0.81720  0.41920  Biso   1.000  C
  C17      1.0000 0.25650  0.91190  0.38030  Biso   1.000  C
  C18      1.0000 0.19840  0.96300  0.29510  Biso   1.000  C
  C19      1.0000 0.18960  0.79620  0.92550  Biso   1.000  C
  C20      1.0000 0.18650  0.67940  0.92250  Biso   1.000  C
  C21      1.0000 0.14560  0.42870  0.94960  Biso   1.000  C
  C22      1.0000 0.14880  0.31200  0.95250  Biso   1.000  C
  C23      1.0000 0.51920  0.02820  0.15440  Biso   1.000  C
  C24      1.0000 0.57620  0.08150  0.24940  Biso   1.000  C
  C25      1.0000 0.51250  0.17670  0.29100  Biso   1.000  C
  C26      1.0000 0.56940  0.22870  0.37650  Biso   1.000  C
  C27      1.0000 0.69170  0.18280  0.41920  Biso   1.000  C
  C28      1.0000 0.75650  0.08810  0.38030  Biso   1.000  C
  C29      1.0000 0.69840  0.03700  0.29510  Biso   1.000  C
  C30      1.0000 0.68960  0.20380  0.92550  Biso   1.000  C
  C31      1.0000 0.68650  0.32060  0.92250  Biso   1.000  C
  C32      1.0000 0.64560  0.57130  0.94960  Biso   1.000  C
  C33      1.0000 0.64880  0.68800  0.95250  Biso   1.000  C
  C34      1.0000 0.98080  0.02820  0.84560  Biso   1.000  C
  C35      1.0000 0.92380  0.08150  0.75060  Biso   1.000  C
  C36      1.0000 0.98750  0.17670  0.70900  Biso   1.000  C
  C37      1.0000 0.93060  0.22870  0.62350  Biso   1.000  C
  C38      1.0000 0.80830  0.18280  0.58080  Biso   1.000  C
  C39      1.0000 0.74350  0.08810  0.61970  Biso   1.000  C
  C40      1.0000 0.80160  0.03700  0.70490  Biso   1.000  C
  C41      1.0000 0.81040  0.20380  0.07450  Biso   1.000  C
  C42      1.0000 0.81350  0.32060  0.07750  Biso   1.000  C
  C43      1.0000 0.85440  0.57130  0.05040  Biso   1.000  C
  C44      1.0000 0.85120  0.68800  0.04750  Biso   1.000  C
  C45      1.0000 0.25000  0.61670  0.00000  Biso   1.000  C
  C46      1.0000 0.25000  0.49140  0.00000  Biso   1.000  C
  C47      1.0000 0.75000  0.38330  0.00000  Biso   1.000  C
  C48      1.0000 0.75000  0.50860  0.00000  Biso   1.000  C
  N1       1.0000 0.25000  0.85640  0.00000  Biso   1.000  N
  N2       1.0000 0.25000  0.25200  0.00000  Biso   1.000  N
  N3       1.0000 0.75000  0.14360  0.00000  Biso   1.000  N
  N4       1.0000 0.75000  0.74800  0.00000  Biso   1.000  N
  O1       1.0000 0.41260  0.05218  0.88403  Biso   1.000  O
  O2       1.0000 0.59660  0.93081  0.87942  Biso   1.000  O
  O3       1.0000 0.08740  0.05218  0.11597  Biso   1.000  O
  O4       1.0000 0.90340  0.93081  0.12058  Biso   1.000  O
  O5       1.0000 0.58740  0.94782  0.11597  Biso   1.000  O
  O6       1.0000 0.40340  0.06919  0.12058  Biso   1.000  O
  O7       1.0000 0.91260  0.94782  0.88403  Biso   1.000  O
  O8       1.0000 0.09660  0.06919  0.87942  Biso   1.000  O
  O9       1.0000 0.25000  0.75670  0.50000  Biso   1.000  O
  O10      1.0000 0.75000  0.24330  0.50000  Biso   1.000  O
