data_image0
_cell_length_a       10.224
_cell_length_b       11.723
_cell_length_c       12.227
_cell_angle_alpha    65.98
_cell_angle_beta     71.305
_cell_angle_gamma    84.622

_symmetry_space_group_name_H-M    P 1
_symmetry_int_tables_number       1

loop_
  _symmetry_equiv_pos_as_xyz
  'x, y, z'

loop_
  _atom_site_label
  _atom_site_occupancy
  _atom_site_fract_x
  _atom_site_fract_y
  _atom_site_fract_z
  _atom_site_thermal_displace_type
  _atom_site_B_iso_or_equiv
  _atom_site_type_symbol
  Mn1      1.0000 0.00000  0.50000  0.50000  Biso   1.000  Mn
  Mn2      1.0000 0.50000  0.50000  0.50000  Biso   1.000  Mn
  H1       1.0000 0.87520  0.81840  0.43730  Biso   1.000  H
  H2       1.0000 0.59430  0.83030  0.52900  Biso   1.000  H
  H3       1.0000 0.91080  0.00590  0.42990  Biso   1.000  H
  H4       1.0000 0.92930  0.18340  0.46540  Biso   1.000  H
  H5       1.0000 0.52980  0.16150  0.63870  Biso   1.000  H
  H6       1.0000 0.51350  0.97660  0.61630  Biso   1.000  H
  H7       1.0000 0.93410  0.41030  0.31090  Biso   1.000  H
  H8       1.0000 0.02230  0.40830  0.11200  Biso   1.000  H
  H9       1.0000 0.37830  0.55250  0.07900  Biso   1.000  H
  H10      1.0000 0.28420  0.53940  0.28230  Biso   1.000  H
  H11      1.0000 0.39820  0.64170  0.87020  Biso   1.000  H
  H12      1.0000 0.49310  0.64600  0.67300  Biso   1.000  H
  H13      1.0000 0.25660  0.36180  0.75800  Biso   1.000  H
  H14      1.0000 0.15640  0.35000  0.95640  Biso   1.000  H
  H15      1.0000 0.12480  0.18160  0.56270  Biso   1.000  H
  H16      1.0000 0.40570  0.16970  0.47100  Biso   1.000  H
  H17      1.0000 0.08920  0.99410  0.57010  Biso   1.000  H
  H18      1.0000 0.07070  0.81660  0.53460  Biso   1.000  H
  H19      1.0000 0.47020  0.83850  0.36130  Biso   1.000  H
  H20      1.0000 0.48650  0.02340  0.38370  Biso   1.000  H
  H21      1.0000 0.06590  0.58970  0.68910  Biso   1.000  H
  H22      1.0000 0.97770  0.59170  0.88800  Biso   1.000  H
  H23      1.0000 0.62170  0.44750  0.92100  Biso   1.000  H
  H24      1.0000 0.71580  0.46060  0.71770  Biso   1.000  H
  H25      1.0000 0.60180  0.35830  0.12980  Biso   1.000  H
  H26      1.0000 0.50690  0.35400  0.32700  Biso   1.000  H
  H27      1.0000 0.74340  0.63820  0.24200  Biso   1.000  H
  H28      1.0000 0.84360  0.65000  0.04360  Biso   1.000  H
  C1       1.0000 0.75070  0.67910  0.44450  Biso   1.000  C
  C2       1.0000 0.78330  0.79330  0.46010  Biso   1.000  C
  C3       1.0000 0.68520  0.85870  0.50510  Biso   1.000  C
  C4       1.0000 0.70700  0.97250  0.52080  Biso   1.000  C
  C5       1.0000 0.83290  0.03520  0.47390  Biso   1.000  C
  C6       1.0000 0.84260  0.14460  0.49310  Biso   1.000  C
  C7       1.0000 0.72990  0.19630  0.55080  Biso   1.000  C
  C8       1.0000 0.60870  0.13170  0.59660  Biso   1.000  C
  C9       1.0000 0.59890  0.01940  0.58190  Biso   1.000  C
  C10      1.0000 0.74600  0.31390  0.56910  Biso   1.000  C
  C11      1.0000 0.02500  0.43870  0.26390  Biso   1.000  C
  C12      1.0000 0.07690  0.43890  0.14290  Biso   1.000  C
  C13      1.0000 0.21000  0.48500  0.07010  Biso   1.000  C
  C14      1.0000 0.28740  0.52260  0.12410  Biso   1.000  C
  C15      1.0000 0.22920  0.51580  0.24680  Biso   1.000  C
  C16      1.0000 0.26830  0.49320  0.93880  Biso   1.000  C
  C17      1.0000 0.36830  0.58270  0.84970  Biso   1.000  C
  C18      1.0000 0.42410  0.58550  0.73070  Biso   1.000  C
  C19      1.0000 0.28580  0.41940  0.78060  Biso   1.000  C
  C20      1.0000 0.22570  0.41080  0.90050  Biso   1.000  C
  C21      1.0000 0.24930  0.32090  0.55550  Biso   1.000  C
  C22      1.0000 0.21670  0.20670  0.53990  Biso   1.000  C
  C23      1.0000 0.31480  0.14130  0.49490  Biso   1.000  C
  C24      1.0000 0.29300  0.02750  0.47920  Biso   1.000  C
  C25      1.0000 0.16710  0.96480  0.52610  Biso   1.000  C
  C26      1.0000 0.15740  0.85540  0.50690  Biso   1.000  C
  C27      1.0000 0.27010  0.80370  0.44920  Biso   1.000  C
  C28      1.0000 0.39130  0.86830  0.40340  Biso   1.000  C
  C29      1.0000 0.40110  0.98060  0.41810  Biso   1.000  C
  C30      1.0000 0.25400  0.68610  0.43090  Biso   1.000  C
  C31      1.0000 0.97500  0.56130  0.73610  Biso   1.000  C
  C32      1.0000 0.92310  0.56110  0.85710  Biso   1.000  C
  C33      1.0000 0.79000  0.51500  0.92990  Biso   1.000  C
  C34      1.0000 0.71260  0.47740  0.87590  Biso   1.000  C
  C35      1.0000 0.77080  0.48420  0.75320  Biso   1.000  C
  C36      1.0000 0.73170  0.50680  0.06120  Biso   1.000  C
  C37      1.0000 0.63170  0.41730  0.15030  Biso   1.000  C
  C38      1.0000 0.57590  0.41450  0.26930  Biso   1.000  C
  C39      1.0000 0.71420  0.58060  0.21940  Biso   1.000  C
  C40      1.0000 0.77430  0.58920  0.09950  Biso   1.000  C
  N1       1.0000 0.09980  0.47740  0.31500  Biso   1.000  N
  N2       1.0000 0.38440  0.50510  0.69310  Biso   1.000  N
  N3       1.0000 0.90020  0.52260  0.68500  Biso   1.000  N
  N4       1.0000 0.61560  0.49490  0.30690  Biso   1.000  N
  O1       1.0000 0.85120  0.61540  0.41450  Biso   1.000  O
  O2       1.0000 0.62820  0.65920  0.45700  Biso   1.000  O
  O3       1.0000 0.86730  0.33920  0.56160  Biso   1.000  O
  O4       1.0000 0.64200  0.37500  0.59200  Biso   1.000  O
  O5       1.0000 0.14880  0.38460  0.58550  Biso   1.000  O
  O6       1.0000 0.37180  0.34080  0.54300  Biso   1.000  O
  O7       1.0000 0.13270  0.66080  0.43840  Biso   1.000  O
  O8       1.0000 0.35800  0.62500  0.40800  Biso   1.000  O
