data_DELGEI_clean5b
_audit_creation_date              2014-07-02
_audit_creation_method            'Materials Studio'
_symmetry_space_group_name_H-M    'P1'
_symmetry_Int_Tables_number       1
_symmetry_cell_setting            triclinic
loop_
_symmetry_equiv_pos_as_xyz
  x,y,z
_cell_length_a                    16.3816
_cell_length_b                    16.3816
_cell_length_c                    16.3816
_cell_angle_alpha                 90.8925
_cell_angle_beta                  90.8925
_cell_angle_gamma                 90.8925
loop_
_atom_site_label
_atom_site_type_symbol
_atom_site_fract_x
_atom_site_fract_y
_atom_site_fract_z
_atom_site_U_iso_or_equiv
_atom_site_adp_type
_atom_site_occupancy
Cd1    Cd    0.50000   0.50000   0.00000   0.01267  Uiso   1.00
Cd2    Cd    0.00000   0.50000   0.50000   0.01267  Uiso   1.00
Cd3    Cd    0.50000   0.00000   0.50000   0.01267  Uiso   1.00
H1     H     0.42916   0.33090   0.94518   0.01267  Uiso   1.00
H2     H     0.42502   0.18865   0.99173   0.01267  Uiso   1.00
H3     H     0.57785   0.26081   0.19819   0.01267  Uiso   1.00
H4     H     0.57305   0.40291   0.15090   0.01267  Uiso   1.00
H5     H     0.39758   0.99672   0.10990   0.01267  Uiso   1.00
H6     H     0.94518   0.42916   0.33090   0.01267  Uiso   1.00
H7     H     0.99173   0.42502   0.18865   0.01267  Uiso   1.00
H8     H     0.19819   0.57785   0.26081   0.01267  Uiso   1.00
H9     H     0.15090   0.57305   0.40291   0.01267  Uiso   1.00
H10    H     0.10990   0.39758   0.99672   0.01267  Uiso   1.00
H11    H     0.33090   0.94518   0.42916   0.01267  Uiso   1.00
H12    H     0.18865   0.99173   0.42502   0.01267  Uiso   1.00
H13    H     0.26081   0.19819   0.57785   0.01267  Uiso   1.00
H14    H     0.40291   0.15090   0.57305   0.01267  Uiso   1.00
H15    H     0.99672   0.10990   0.39758   0.01267  Uiso   1.00
H16    H     0.67286   0.44197   0.06246   0.01267  Uiso   1.00
H17    H     0.81304   0.43560   0.01542   0.01267  Uiso   1.00
H18    H     0.73739   0.55219   0.79270   0.01267  Uiso   1.00
H19    H     0.59572   0.54727   0.84097   0.01267  Uiso   1.00
H20    H     0.00348   0.39574   0.88868   0.01267  Uiso   1.00
H21    H     0.44197   0.06246   0.67286   0.01267  Uiso   1.00
H22    H     0.43560   0.01542   0.81304   0.01267  Uiso   1.00
H23    H     0.55219   0.79270   0.73739   0.01267  Uiso   1.00
H24    H     0.54727   0.84096   0.59572   0.01267  Uiso   1.00
H25    H     0.39574   0.88868   0.00348   0.01267  Uiso   1.00
H26    H     0.06246   0.67286   0.44197   0.01267  Uiso   1.00
H27    H     0.01542   0.81304   0.43560   0.01267  Uiso   1.00
H28    H     0.79270   0.73739   0.55219   0.01267  Uiso   1.00
H29    H     0.84096   0.59572   0.54727   0.01267  Uiso   1.00
H30    H     0.88868   0.00348   0.39574   0.01267  Uiso   1.00
H31    H     0.57084   0.66910   0.05482   0.01267  Uiso   1.00
H32    H     0.57498   0.81135   0.00827   0.01267  Uiso   1.00
H33    H     0.42215   0.73919   0.80181   0.01267  Uiso   1.00
H34    H     0.42695   0.59709   0.84910   0.01267  Uiso   1.00
H35    H     0.60241   0.00328   0.89010   0.01267  Uiso   1.00
H36    H     0.05482   0.57084   0.66910   0.01267  Uiso   1.00
H37    H     0.00827   0.57498   0.81135   0.01267  Uiso   1.00
H38    H     0.80181   0.42215   0.73919   0.01267  Uiso   1.00
H39    H     0.84910   0.42695   0.59709   0.01267  Uiso   1.00
H40    H     0.89010   0.60242   0.00328   0.01267  Uiso   1.00
H41    H     0.66910   0.05482   0.57084   0.01267  Uiso   1.00
H42    H     0.81135   0.00827   0.57498   0.01267  Uiso   1.00
H43    H     0.73919   0.80181   0.42215   0.01267  Uiso   1.00
H44    H     0.59709   0.84910   0.42695   0.01267  Uiso   1.00
H45    H     0.00328   0.89010   0.60241   0.01267  Uiso   1.00
H46    H     0.32714   0.55803   0.93754   0.01267  Uiso   1.00
H47    H     0.18696   0.56440   0.98458   0.01267  Uiso   1.00
H48    H     0.26261   0.44781   0.20730   0.01267  Uiso   1.00
H49    H     0.40428   0.45273   0.15904   0.01267  Uiso   1.00
H50    H     0.99652   0.60426   0.11132   0.01267  Uiso   1.00
H51    H     0.55803   0.93754   0.32714   0.01267  Uiso   1.00
H52    H     0.56440   0.98458   0.18696   0.01267  Uiso   1.00
H53    H     0.44781   0.20730   0.26261   0.01267  Uiso   1.00
H54    H     0.45273   0.15904   0.40428   0.01267  Uiso   1.00
H55    H     0.60426   0.11132   0.99652   0.01267  Uiso   1.00
H56    H     0.93754   0.32714   0.55803   0.01267  Uiso   1.00
H57    H     0.98458   0.18696   0.56440   0.01267  Uiso   1.00
H58    H     0.20730   0.26261   0.44781   0.01267  Uiso   1.00
H59    H     0.15904   0.40428   0.45273   0.01267  Uiso   1.00
H60    H     0.11132   0.99652   0.60426   0.01267  Uiso   1.00
C1     C     0.46157   0.31510   0.00061   0.01267  Uiso   1.00
C2     C     0.45932   0.23387   0.02752   0.01267  Uiso   1.00
C3     C     0.50109   0.21149   0.09970   0.01267  Uiso   1.00
C4     C     0.54360   0.27418   0.14314   0.01267  Uiso   1.00
C5     C     0.54265   0.35521   0.11501   0.01267  Uiso   1.00
C6     C     0.44261   0.99856   0.06226   0.01267  Uiso   1.00
C7     C     0.00062   0.46157   0.31510   0.01267  Uiso   1.00
C8     C     0.02752   0.45932   0.23387   0.01267  Uiso   1.00
C9     C     0.09970   0.50109   0.21149   0.01267  Uiso   1.00
C10    C     0.14314   0.54360   0.27418   0.01267  Uiso   1.00
C11    C     0.11501   0.54265   0.35521   0.01267  Uiso   1.00
C12    C     0.06227   0.44262   0.99856   0.01267  Uiso   1.00
C13    C     0.31510   0.00061   0.46157   0.01267  Uiso   1.00
C14    C     0.23387   0.02752   0.45932   0.01267  Uiso   1.00
C15    C     0.21149   0.09970   0.50109   0.01267  Uiso   1.00
C16    C     0.27418   0.14314   0.54360   0.01267  Uiso   1.00
C17    C     0.35521   0.11501   0.54265   0.01267  Uiso   1.00
C18    C     0.99856   0.06227   0.44261   0.01267  Uiso   1.00
C19    C     0.68625   0.46361   0.00235   0.01267  Uiso   1.00
C20    C     0.76727   0.46127   0.97545   0.01267  Uiso   1.00
C21    C     0.78895   0.49326   0.89906   0.01267  Uiso   1.00
C22    C     0.72496   0.52481   0.85095   0.01267  Uiso   1.00
C23    C     0.64375   0.52298   0.87902   0.01267  Uiso   1.00
C24    C     0.00163   0.44165   0.93684   0.01267  Uiso   1.00
C25    C     0.46361   0.00235   0.68625   0.01267  Uiso   1.00
C26    C     0.46126   0.97544   0.76727   0.01267  Uiso   1.00
C27    C     0.49326   0.89906   0.78894   0.01267  Uiso   1.00
C28    C     0.52481   0.85095   0.72496   0.01267  Uiso   1.00
C29    C     0.52297   0.87902   0.64375   0.01267  Uiso   1.00
C30    C     0.44165   0.93684   0.00163   0.01267  Uiso   1.00
C31    C     0.00235   0.68625   0.46361   0.01267  Uiso   1.00
C32    C     0.97544   0.76727   0.46126   0.01267  Uiso   1.00
C33    C     0.89905   0.78894   0.49326   0.01267  Uiso   1.00
C34    C     0.85095   0.72496   0.52481   0.01267  Uiso   1.00
C35    C     0.87902   0.64375   0.52298   0.01267  Uiso   1.00
C36    C     0.93684   0.00163   0.44165   0.01267  Uiso   1.00
C37    C     0.53843   0.68490   0.99939   0.01267  Uiso   1.00
C38    C     0.54068   0.76613   0.97248   0.01267  Uiso   1.00
C39    C     0.49891   0.78851   0.90030   0.01267  Uiso   1.00
C40    C     0.45640   0.72582   0.85686   0.01267  Uiso   1.00
C41    C     0.45735   0.64479   0.88499   0.01267  Uiso   1.00
C42    C     0.55738   0.00144   0.93773   0.01267  Uiso   1.00
C43    C     0.99939   0.53843   0.68490   0.01267  Uiso   1.00
C44    C     0.97248   0.54068   0.76613   0.01267  Uiso   1.00
C45    C     0.90030   0.49891   0.78851   0.01267  Uiso   1.00
C46    C     0.85686   0.45640   0.72582   0.01267  Uiso   1.00
C47    C     0.88499   0.45735   0.64479   0.01267  Uiso   1.00
C48    C     0.93774   0.55738   0.00144   0.01267  Uiso   1.00
C49    C     0.68490   0.99939   0.53843   0.01267  Uiso   1.00
C50    C     0.76613   0.97248   0.54068   0.01267  Uiso   1.00
C51    C     0.78851   0.90030   0.49891   0.01267  Uiso   1.00
C52    C     0.72582   0.85686   0.45640   0.01267  Uiso   1.00
C53    C     0.64479   0.88499   0.45735   0.01267  Uiso   1.00
C54    C     0.00144   0.93774   0.55738   0.01267  Uiso   1.00
C55    C     0.31375   0.53639   0.99765   0.01267  Uiso   1.00
C56    C     0.23273   0.53873   0.02456   0.01267  Uiso   1.00
C57    C     0.21106   0.50674   0.10095   0.01267  Uiso   1.00
C58    C     0.27504   0.47519   0.14905   0.01267  Uiso   1.00
C59    C     0.35625   0.47702   0.12098   0.01267  Uiso   1.00
C60    C     0.99837   0.55835   0.06316   0.01267  Uiso   1.00
C61    C     0.53638   0.99765   0.31375   0.01267  Uiso   1.00
C62    C     0.53873   0.02455   0.23273   0.01267  Uiso   1.00
C63    C     0.50674   0.10094   0.21106   0.01267  Uiso   1.00
C64    C     0.47519   0.14905   0.27504   0.01267  Uiso   1.00
C65    C     0.47702   0.12098   0.35625   0.01267  Uiso   1.00
C66    C     0.55835   0.06316   0.99837   0.01267  Uiso   1.00
C67    C     0.99765   0.31375   0.53639   0.01267  Uiso   1.00
C68    C     0.02455   0.23273   0.53873   0.01267  Uiso   1.00
C69    C     0.10094   0.21106   0.50674   0.01267  Uiso   1.00
C70    C     0.14905   0.27504   0.47519   0.01267  Uiso   1.00
C71    C     0.12098   0.35625   0.47702   0.01267  Uiso   1.00
C72    C     0.06316   0.99837   0.55835   0.01267  Uiso   1.00
C73    C     0.50110   0.06245   0.06154   0.01267  Uiso   1.00
C74    C     0.06154   0.50110   0.06245   0.01267  Uiso   1.00
C75    C     0.06245   0.06154   0.50110   0.01267  Uiso   1.00
C76    C     0.93846   0.49890   0.93755   0.01267  Uiso   1.00
C77    C     0.49890   0.93755   0.93846   0.01267  Uiso   1.00
C78    C     0.93755   0.93846   0.49890   0.01267  Uiso   1.00
N1     N     0.50351   0.37440   0.04369   0.01267  Uiso   1.00
N2     N     0.04369   0.50351   0.37440   0.01267  Uiso   1.00
N3     N     0.37440   0.04369   0.50351   0.01267  Uiso   1.00
N4     N     0.62534   0.49357   0.95434   0.01267  Uiso   1.00
N5     N     0.49357   0.95433   0.62534   0.01267  Uiso   1.00
N6     N     0.95433   0.62534   0.49357   0.01267  Uiso   1.00
N7     N     0.49649   0.62560   0.95631   0.01267  Uiso   1.00
N8     N     0.95631   0.49649   0.62560   0.01267  Uiso   1.00
N9     N     0.62560   0.95631   0.49649   0.01267  Uiso   1.00
N10    N     0.37466   0.50643   0.04567   0.01267  Uiso   1.00
N11    N     0.50643   0.04566   0.37466   0.01267  Uiso   1.00
N12    N     0.04566   0.37466   0.50643   0.01267  Uiso   1.00
N13    N     0.50292   0.12585   0.12510   0.01267  Uiso   1.00
N14    N     0.12510   0.50292   0.12586   0.01267  Uiso   1.00
N15    N     0.12585   0.12510   0.50292   0.01267  Uiso   1.00
N16    N     0.87490   0.49708   0.87415   0.01267  Uiso   1.00
N17    N     0.49708   0.87415   0.87490   0.01267  Uiso   1.00
N18    N     0.87415   0.87490   0.49708   0.01267  Uiso   1.00
