data_image0
_cell_length_a       14.365
_cell_length_b       16.305
_cell_length_c       8.734
_cell_angle_alpha    90
_cell_angle_beta     90.243
_cell_angle_gamma    90

_symmetry_space_group_name_H-M    "P 1"
_symmetry_int_tables_number       1

loop_
  _symmetry_equiv_pos_as_xyz
  'x, y, z'

loop_
  _atom_site_label
  _atom_site_occupancy
  _atom_site_fract_x
  _atom_site_fract_y
  _atom_site_fract_z
  _atom_site_thermal_displace_type
  _atom_site_B_iso_or_equiv
  _atom_site_type_symbol
  Ga1      1.0000 0.13650  0.03417  0.57163  Biso   1.000  Ga
  Ga2      1.0000 0.04238  0.27163  0.63240  Biso   1.000  Ga
  Ga3      1.0000 0.52554  0.12625  0.41042  Biso   1.000  Ga
  Ga4      1.0000 0.36576  0.16159  0.81337  Biso   1.000  Ga
  P1       1.0000 0.14798  0.15184  0.84854  Biso   1.000  P
  P2       1.0000 0.64016  0.96929  0.44728  Biso   1.000  P
  P3       1.0000 0.47275  0.21882  0.10989  Biso   1.000  P
  P4       1.0000 0.97136  0.13241  0.41427  Biso   1.000  P
  O1       1.0000 0.44790  0.16300  0.97650  Biso   1.000  O
  O2       1.0000 0.53600  0.17090  0.21870  Biso   1.000  O
  O3       1.0000 0.96610  0.19720  0.54090  Biso   1.000  O
  O4       1.0000 0.62990  0.06280  0.43930  Biso   1.000  O
  O5       1.0000 0.96360  0.32650  0.75740  Biso   1.000  O
  O6       1.0000 0.24980  0.14930  0.89650  Biso   1.000  O
  O7       1.0000 0.13520  0.22510  0.74280  Biso   1.000  O
  O8       1.0000 0.08830  0.15870  0.99160  Biso   1.000  O
  O9       1.0000 0.11840  0.07270  0.77050  Biso   1.000  O
  O10      1.0000 0.38420  0.25300  0.69130  Biso   1.000  O
  O11      1.0000 0.41970  0.06380  0.42210  Biso   1.000  O
  O12      1.0000 0.06250  0.08560  0.42330  Biso   1.000  O
  O13      1.0000 0.25990  0.05210  0.51520  Biso   1.000  O
  O14      1.0000 0.39200  0.06640  0.70560  Biso   1.000  O
  O15      1.0000 0.52960  0.29280  0.05660  Biso   1.000  O
  O16      1.0000 0.11370  0.92190  0.56740  Biso   1.000  O
  Ga5      1.0000 0.86350  0.53417  0.92837  Biso   1.000  Ga
  Ga6      1.0000 0.95762  0.77163  0.86760  Biso   1.000  Ga
  Ga7      1.0000 0.47446  0.62625  0.08958  Biso   1.000  Ga
  Ga8      1.0000 0.63424  0.66159  0.68663  Biso   1.000  Ga
  P5       1.0000 0.85202  0.65184  0.65146  Biso   1.000  P
  P6       1.0000 0.35984  0.46929  0.05272  Biso   1.000  P
  P7       1.0000 0.52725  0.71882  0.39011  Biso   1.000  P
  P8       1.0000 0.02864  0.63241  0.08573  Biso   1.000  P
  O17      1.0000 0.55210  0.66300  0.52350  Biso   1.000  O
  O18      1.0000 0.46400  0.67090  0.28130  Biso   1.000  O
  O19      1.0000 0.03390  0.69720  0.95910  Biso   1.000  O
  O20      1.0000 0.37010  0.56280  0.06070  Biso   1.000  O
  O21      1.0000 0.03640  0.82650  0.74260  Biso   1.000  O
  O22      1.0000 0.75020  0.64930  0.60350  Biso   1.000  O
  O23      1.0000 0.86480  0.72510  0.75720  Biso   1.000  O
  O24      1.0000 0.91170  0.65870  0.50840  Biso   1.000  O
  O25      1.0000 0.88160  0.57270  0.72950  Biso   1.000  O
  O26      1.0000 0.61580  0.75300  0.80870  Biso   1.000  O
  O27      1.0000 0.58030  0.56380  0.07790  Biso   1.000  O
  O28      1.0000 0.93750  0.58560  0.07670  Biso   1.000  O
  O29      1.0000 0.74010  0.55210  0.98480  Biso   1.000  O
  O30      1.0000 0.60800  0.56640  0.79440  Biso   1.000  O
  O31      1.0000 0.47040  0.79280  0.44340  Biso   1.000  O
  O32      1.0000 0.88630  0.42190  0.93260  Biso   1.000  O
  Ga9      1.0000 0.86350  0.96583  0.42837  Biso   1.000  Ga
  Ga10     1.0000 0.95762  0.72837  0.36760  Biso   1.000  Ga
  Ga11     1.0000 0.47446  0.87375  0.58958  Biso   1.000  Ga
  Ga12     1.0000 0.63424  0.83841  0.18663  Biso   1.000  Ga
  P9       1.0000 0.85202  0.84816  0.15146  Biso   1.000  P
  P10      1.0000 0.35984  0.03071  0.55272  Biso   1.000  P
  P11      1.0000 0.52725  0.78118  0.89011  Biso   1.000  P
  P12      1.0000 0.02864  0.86759  0.58573  Biso   1.000  P
  O33      1.0000 0.55210  0.83700  0.02350  Biso   1.000  O
  O34      1.0000 0.46400  0.82910  0.78130  Biso   1.000  O
  O35      1.0000 0.03390  0.80280  0.45910  Biso   1.000  O
  O36      1.0000 0.37010  0.93720  0.56070  Biso   1.000  O
  O37      1.0000 0.03640  0.67350  0.24260  Biso   1.000  O
  O38      1.0000 0.75020  0.85070  0.10350  Biso   1.000  O
  O39      1.0000 0.86480  0.77490  0.25720  Biso   1.000  O
  O40      1.0000 0.91170  0.84130  0.00840  Biso   1.000  O
  O41      1.0000 0.88160  0.92730  0.22950  Biso   1.000  O
  O42      1.0000 0.61580  0.74700  0.30870  Biso   1.000  O
  O43      1.0000 0.58030  0.93620  0.57790  Biso   1.000  O
  O44      1.0000 0.93750  0.91440  0.57670  Biso   1.000  O
  O45      1.0000 0.74010  0.94790  0.48480  Biso   1.000  O
  O46      1.0000 0.60800  0.93360  0.29440  Biso   1.000  O
  O47      1.0000 0.47040  0.70720  0.94340  Biso   1.000  O
  O48      1.0000 0.88630  0.07810  0.43260  Biso   1.000  O
  Ga13     1.0000 0.13650  0.46583  0.07163  Biso   1.000  Ga
  Ga14     1.0000 0.04238  0.22837  0.13240  Biso   1.000  Ga
  Ga15     1.0000 0.52554  0.37375  0.91042  Biso   1.000  Ga
  Ga16     1.0000 0.36576  0.33841  0.31337  Biso   1.000  Ga
  P13      1.0000 0.14798  0.34816  0.34854  Biso   1.000  P
  P14      1.0000 0.64016  0.53071  0.94728  Biso   1.000  P
  P15      1.0000 0.47275  0.28118  0.60989  Biso   1.000  P
  P16      1.0000 0.97136  0.36759  0.91427  Biso   1.000  P
  O49      1.0000 0.44790  0.33700  0.47650  Biso   1.000  O
  O50      1.0000 0.53600  0.32910  0.71870  Biso   1.000  O
  O51      1.0000 0.96610  0.30280  0.04090  Biso   1.000  O
  O52      1.0000 0.62990  0.43720  0.93930  Biso   1.000  O
  O53      1.0000 0.96360  0.17350  0.25740  Biso   1.000  O
  O54      1.0000 0.24980  0.35070  0.39650  Biso   1.000  O
  O55      1.0000 0.13520  0.27490  0.24280  Biso   1.000  O
  O56      1.0000 0.08830  0.34130  0.49160  Biso   1.000  O
  O57      1.0000 0.11840  0.42730  0.27050  Biso   1.000  O
  O58      1.0000 0.38420  0.24700  0.19130  Biso   1.000  O
  O59      1.0000 0.41970  0.43620  0.92210  Biso   1.000  O
  O60      1.0000 0.06250  0.41440  0.92330  Biso   1.000  O
  O61      1.0000 0.25990  0.44790  0.01520  Biso   1.000  O
  O62      1.0000 0.39200  0.43360  0.20560  Biso   1.000  O
  O63      1.0000 0.52960  0.20720  0.55660  Biso   1.000  O
  O64      1.0000 0.11370  0.57810  0.06740  Biso   1.000  O
