data_image0
_cell_length_a       26.4938
_cell_length_b       14.5214
_cell_length_c       25.6071
_cell_angle_alpha    90
_cell_angle_beta     114.285
_cell_angle_gamma    90

_symmetry_space_group_name_H-M    "P 1"
_symmetry_int_tables_number       1

loop_
  _symmetry_equiv_pos_as_xyz
  'x, y, z'

loop_
  _atom_site_label
  _atom_site_occupancy
  _atom_site_fract_x
  _atom_site_fract_y
  _atom_site_fract_z
  _atom_site_thermal_displace_type
  _atom_site_B_iso_or_equiv
  _atom_site_type_symbol
  Nd1      1.0000 0.21414  0.86739  0.31003  Biso   1.000  Nd
  Nd2      1.0000 0.16455  0.08841  0.19715  Biso   1.000  Nd
  O1       1.0000 0.12800  0.94090  0.23340  Biso   1.000  O
  O2       1.0000 0.21870  0.05350  0.30000  Biso   1.000  O
  O3       1.0000 0.28320  0.37100  0.28120  Biso   1.000  O
  C1       1.0000 0.30120  0.30590  0.37140  Biso   1.000  C
  O4       1.0000 0.08240  0.07030  0.22360  Biso   1.000  O
  O5       1.0000 0.26720  0.98680  0.38310  Biso   1.000  O
  O6       1.0000 0.08480  0.92570  0.60030  Biso   1.000  O
  O7       1.0000 0.26200  0.77350  0.39630  Biso   1.000  O
  H1       1.0000 0.24150  0.76540  0.41260  Biso   1.000  H
  O8       1.0000 0.15890  0.85200  0.60460  Biso   1.000  O
  O9       1.0000 0.17680  0.77560  0.42520  Biso   1.000  O
  O10      1.0000 0.32960  0.22220  0.22310  Biso   1.000  O
  O11      1.0000 0.30630  0.83580  0.31950  Biso   1.000  O
  C2       1.0000 0.15320  0.84860  0.40300  Biso   1.000  C
  C3       1.0000 0.25320  0.05760  0.35370  Biso   1.000  C
  C4       1.0000 0.27650  0.22150  0.34610  Biso   1.000  C
  H2       1.0000 0.25970  0.21610  0.30640  Biso   1.000  H
  C5       1.0000 0.04260  0.93370  0.24300  Biso   1.000  C
  O12      1.0000 0.15590  0.88540  0.35940  Biso   1.000  O
  C6       1.0000 0.27700  0.14730  0.37980  Biso   1.000  C
  C7       1.0000 0.12920  0.87300  0.48650  Biso   1.000  C
  H3       1.0000 0.15390  0.82600  0.50510  Biso   1.000  H
  C8       1.0000 0.10110  0.91880  0.51530  Biso   1.000  C
  C9       1.0000 0.11420  0.89730  0.57640  Biso   1.000  C
  C10      1.0000 0.12060  0.89690  0.43100  Biso   1.000  C
  C11      1.0000 0.08710  0.98670  0.23360  Biso   1.000  C
  C12      1.0000 0.08380  0.96740  0.40410  Biso   1.000  C
  H4       1.0000 0.07860  0.98550  0.36740  Biso   1.000  H
  C13      1.0000 0.04110  0.83850  0.24410  Biso   1.000  C
  H5       1.0000 0.06970  0.80580  0.24060  Biso   1.000  H
  C14      1.0000 0.05440  0.01150  0.43130  Biso   1.000  C
  H6       1.0000 0.02870  0.05690  0.41210  Biso   1.000  H
  O13      1.0000 0.25770  0.13790  0.21790  Biso   1.000  O
  O14      1.0000 0.35460  0.74310  0.28740  Biso   1.000  O
  O15      1.0000 0.31730  0.46120  0.35640  Biso   1.000  O
  C15      1.0000 0.35730  0.90590  0.27240  Biso   1.000  C
  C16      1.0000 0.34330  0.06270  0.24030  Biso   1.000  C
  C17      1.0000 0.30780  0.14730  0.22630  Biso   1.000  C
  C18      1.0000 0.32850  0.98530  0.26270  Biso   1.000  C
  H7       1.0000 0.29770  0.98840  0.27140  Biso   1.000  H
  C19      1.0000 0.30090  0.38430  0.33440  Biso   1.000  C
  C20      1.0000 0.32660  0.31190  0.43010  Biso   1.000  C
  H8       1.0000 0.34400  0.36630  0.44740  Biso   1.000  H
  C21      1.0000 0.33810  0.82300  0.29480  Biso   1.000  C
  C22      1.0000 0.40380  0.89900  0.26050  Biso   1.000  C
  H9       1.0000 0.42350  0.84420  0.26630  Biso   1.000  H
  C23      1.0000 0.06360  0.98790  0.48640  Biso   1.000  C
  H10      1.0000 0.04440  0.01850  0.50460  Biso   1.000  H
  C24      1.0000 0.39120  0.05940  0.23020  Biso   1.000  C
  H11      1.0000 0.40360  0.11120  0.21760  Biso   1.000  H
  C25      1.0000 0.30200  0.15660  0.43860  Biso   1.000  C
  H12      1.0000 0.30220  0.10680  0.46160  Biso   1.000  H
  C26      1.0000 0.41980  0.97660  0.23950  Biso   1.000  C
  H13      1.0000 0.45080  0.97300  0.23140  Biso   1.000  H
  C27      1.0000 0.32620  0.23720  0.46380  Biso   1.000  C
  H14      1.0000 0.34250  0.24220  0.50350  Biso   1.000  H
  Nd3      1.0000 0.71414  0.36739  0.31003  Biso   1.000  Nd
  Nd4      1.0000 0.66455  0.58841  0.19715  Biso   1.000  Nd
  O16      1.0000 0.62800  0.44090  0.23340  Biso   1.000  O
  O17      1.0000 0.71870  0.55350  0.30000  Biso   1.000  O
  O18      1.0000 0.78320  0.87100  0.28120  Biso   1.000  O
  C28      1.0000 0.80120  0.80590  0.37140  Biso   1.000  C
  O19      1.0000 0.58240  0.57030  0.22360  Biso   1.000  O
  O20      1.0000 0.76720  0.48680  0.38310  Biso   1.000  O
  O21      1.0000 0.58480  0.42570  0.60030  Biso   1.000  O
  O22      1.0000 0.76200  0.27350  0.39630  Biso   1.000  O
  H15      1.0000 0.74150  0.26540  0.41260  Biso   1.000  H
  O23      1.0000 0.65890  0.35200  0.60460  Biso   1.000  O
  O24      1.0000 0.67680  0.27560  0.42520  Biso   1.000  O
  O25      1.0000 0.82960  0.72220  0.22310  Biso   1.000  O
  O26      1.0000 0.80630  0.33580  0.31950  Biso   1.000  O
  C29      1.0000 0.65320  0.34860  0.40300  Biso   1.000  C
  C30      1.0000 0.75320  0.55760  0.35370  Biso   1.000  C
  C31      1.0000 0.77650  0.72150  0.34610  Biso   1.000  C
  H16      1.0000 0.75970  0.71610  0.30640  Biso   1.000  H
  C32      1.0000 0.54260  0.43370  0.24300  Biso   1.000  C
  O27      1.0000 0.65590  0.38540  0.35940  Biso   1.000  O
  C33      1.0000 0.77700  0.64730  0.37980  Biso   1.000  C
  C34      1.0000 0.62920  0.37300  0.48650  Biso   1.000  C
  H17      1.0000 0.65390  0.32600  0.50510  Biso   1.000  H
  C35      1.0000 0.60110  0.41880  0.51530  Biso   1.000  C
  C36      1.0000 0.61420  0.39730  0.57640  Biso   1.000  C
  C37      1.0000 0.62060  0.39690  0.43100  Biso   1.000  C
  C38      1.0000 0.58710  0.48670  0.23360  Biso   1.000  C
  C39      1.0000 0.58380  0.46740  0.40410  Biso   1.000  C
  H18      1.0000 0.57860  0.48550  0.36740  Biso   1.000  H
  C40      1.0000 0.54110  0.33850  0.24410  Biso   1.000  C
  H19      1.0000 0.56970  0.30580  0.24060  Biso   1.000  H
  C41      1.0000 0.55440  0.51150  0.43130  Biso   1.000  C
  H20      1.0000 0.52870  0.55690  0.41210  Biso   1.000  H
  O28      1.0000 0.75770  0.63790  0.21790  Biso   1.000  O
  O29      1.0000 0.85460  0.24310  0.28740  Biso   1.000  O
  O30      1.0000 0.81730  0.96120  0.35640  Biso   1.000  O
  C42      1.0000 0.85730  0.40590  0.27240  Biso   1.000  C
  C43      1.0000 0.84330  0.56270  0.24030  Biso   1.000  C
  C44      1.0000 0.80780  0.64730  0.22630  Biso   1.000  C
  C45      1.0000 0.82850  0.48530  0.26270  Biso   1.000  C
  H21      1.0000 0.79770  0.48840  0.27140  Biso   1.000  H
  C46      1.0000 0.80090  0.88430  0.33440  Biso   1.000  C
  C47      1.0000 0.82660  0.81190  0.43010  Biso   1.000  C
  H22      1.0000 0.84400  0.86630  0.44740  Biso   1.000  H
  C48      1.0000 0.83810  0.32300  0.29480  Biso   1.000  C
  C49      1.0000 0.90380  0.39900  0.26050  Biso   1.000  C
  H23      1.0000 0.92350  0.34420  0.26630  Biso   1.000  H
  C50      1.0000 0.56360  0.48790  0.48640  Biso   1.000  C
  H24      1.0000 0.54440  0.51850  0.50460  Biso   1.000  H
  C51      1.0000 0.89120  0.55940  0.23020  Biso   1.000  C
  H25      1.0000 0.90360  0.61120  0.21760  Biso   1.000  H
  C52      1.0000 0.80200  0.65660  0.43860  Biso   1.000  C
  H26      1.0000 0.80220  0.60680  0.46160  Biso   1.000  H
  C53      1.0000 0.91980  0.47660  0.23950  Biso   1.000  C
  H27      1.0000 0.95080  0.47300  0.23140  Biso   1.000  H
  C54      1.0000 0.82620  0.73720  0.46380  Biso   1.000  C
  H28      1.0000 0.84250  0.74220  0.50350  Biso   1.000  H
  Nd5      1.0000 0.78586  0.86739  0.18997  Biso   1.000  Nd
  Nd6      1.0000 0.83545  0.08841  0.30285  Biso   1.000  Nd
  O31      1.0000 0.87200  0.94090  0.26660  Biso   1.000  O
  O32      1.0000 0.78130  0.05350  0.20000  Biso   1.000  O
  O33      1.0000 0.71680  0.37100  0.21880  Biso   1.000  O
  C55      1.0000 0.69880  0.30590  0.12860  Biso   1.000  C
  O34      1.0000 0.91760  0.07030  0.27640  Biso   1.000  O
  O35      1.0000 0.73280  0.98680  0.11690  Biso   1.000  O
  O36      1.0000 0.91520  0.92570  0.89970  Biso   1.000  O
  O37      1.0000 0.73800  0.77350  0.10370  Biso   1.000  O
  H29      1.0000 0.75850  0.76540  0.08740  Biso   1.000  H
  O38      1.0000 0.84110  0.85200  0.89540  Biso   1.000  O
  O39      1.0000 0.82320  0.77560  0.07480  Biso   1.000  O
  O40      1.0000 0.67040  0.22220  0.27690  Biso   1.000  O
  O41      1.0000 0.69370  0.83580  0.18050  Biso   1.000  O
  C56      1.0000 0.84680  0.84860  0.09700  Biso   1.000  C
  C57      1.0000 0.74680  0.05760  0.14630  Biso   1.000  C
  C58      1.0000 0.72350  0.22150  0.15390  Biso   1.000  C
  H30      1.0000 0.74030  0.21610  0.19360  Biso   1.000  H
  C59      1.0000 0.95740  0.93370  0.25700  Biso   1.000  C
  O42      1.0000 0.84410  0.88540  0.14060  Biso   1.000  O
  C60      1.0000 0.72300  0.14730  0.12020  Biso   1.000  C
  C61      1.0000 0.87080  0.87300  0.01350  Biso   1.000  C
  H31      1.0000 0.84610  0.82600  0.99490  Biso   1.000  H
  C62      1.0000 0.89890  0.91880  0.98470  Biso   1.000  C
  C63      1.0000 0.88580  0.89730  0.92360  Biso   1.000  C
  C64      1.0000 0.87940  0.89690  0.06900  Biso   1.000  C
  C65      1.0000 0.91290  0.98670  0.26640  Biso   1.000  C
  C66      1.0000 0.91620  0.96740  0.09590  Biso   1.000  C
  H32      1.0000 0.92140  0.98550  0.13260  Biso   1.000  H
  C67      1.0000 0.95890  0.83850  0.25590  Biso   1.000  C
  H33      1.0000 0.93030  0.80580  0.25940  Biso   1.000  H
  C68      1.0000 0.94560  0.01150  0.06870  Biso   1.000  C
  H34      1.0000 0.97130  0.05690  0.08790  Biso   1.000  H
  O43      1.0000 0.74230  0.13790  0.28210  Biso   1.000  O
  O44      1.0000 0.64540  0.74310  0.21260  Biso   1.000  O
  O45      1.0000 0.68270  0.46120  0.14360  Biso   1.000  O
  C69      1.0000 0.64270  0.90590  0.22760  Biso   1.000  C
  C70      1.0000 0.65670  0.06270  0.25970  Biso   1.000  C
  C71      1.0000 0.69220  0.14730  0.27370  Biso   1.000  C
  C72      1.0000 0.67150  0.98530  0.23730  Biso   1.000  C
  H35      1.0000 0.70230  0.98840  0.22860  Biso   1.000  H
  C73      1.0000 0.69910  0.38430  0.16560  Biso   1.000  C
  C74      1.0000 0.67340  0.31190  0.06990  Biso   1.000  C
  H36      1.0000 0.65600  0.36630  0.05260  Biso   1.000  H
  C75      1.0000 0.66190  0.82300  0.20520  Biso   1.000  C
  C76      1.0000 0.59620  0.89900  0.23950  Biso   1.000  C
  H37      1.0000 0.57650  0.84420  0.23370  Biso   1.000  H
  C77      1.0000 0.93640  0.98790  0.01360  Biso   1.000  C
  H38      1.0000 0.95560  0.01850  0.99540  Biso   1.000  H
  C78      1.0000 0.60880  0.05940  0.26980  Biso   1.000  C
  H39      1.0000 0.59640  0.11120  0.28240  Biso   1.000  H
  C79      1.0000 0.69800  0.15660  0.06140  Biso   1.000  C
  H40      1.0000 0.69780  0.10680  0.03840  Biso   1.000  H
  C80      1.0000 0.58020  0.97660  0.26050  Biso   1.000  C
  H41      1.0000 0.54920  0.97300  0.26860  Biso   1.000  H
  C81      1.0000 0.67380  0.23720  0.03620  Biso   1.000  C
  H42      1.0000 0.65750  0.24220  0.99650  Biso   1.000  H
  Nd7      1.0000 0.28586  0.36739  0.18997  Biso   1.000  Nd
  Nd8      1.0000 0.33545  0.58841  0.30285  Biso   1.000  Nd
  O46      1.0000 0.37200  0.44090  0.26660  Biso   1.000  O
  O47      1.0000 0.28130  0.55350  0.20000  Biso   1.000  O
  O48      1.0000 0.21680  0.87100  0.21880  Biso   1.000  O
  C82      1.0000 0.19880  0.80590  0.12860  Biso   1.000  C
  O49      1.0000 0.41760  0.57030  0.27640  Biso   1.000  O
  O50      1.0000 0.23280  0.48680  0.11690  Biso   1.000  O
  O51      1.0000 0.41520  0.42570  0.89970  Biso   1.000  O
  O52      1.0000 0.23800  0.27350  0.10370  Biso   1.000  O
  H43      1.0000 0.25850  0.26540  0.08740  Biso   1.000  H
  O53      1.0000 0.34110  0.35200  0.89540  Biso   1.000  O
  O54      1.0000 0.32320  0.27560  0.07480  Biso   1.000  O
  O55      1.0000 0.17040  0.72220  0.27690  Biso   1.000  O
  O56      1.0000 0.19370  0.33580  0.18050  Biso   1.000  O
  C83      1.0000 0.34680  0.34860  0.09700  Biso   1.000  C
  C84      1.0000 0.24680  0.55760  0.14630  Biso   1.000  C
  C85      1.0000 0.22350  0.72150  0.15390  Biso   1.000  C
  H44      1.0000 0.24030  0.71610  0.19360  Biso   1.000  H
  C86      1.0000 0.45740  0.43370  0.25700  Biso   1.000  C
  O57      1.0000 0.34410  0.38540  0.14060  Biso   1.000  O
  C87      1.0000 0.22300  0.64730  0.12020  Biso   1.000  C
  C88      1.0000 0.37080  0.37300  0.01350  Biso   1.000  C
  H45      1.0000 0.34610  0.32600  0.99490  Biso   1.000  H
  C89      1.0000 0.39890  0.41880  0.98470  Biso   1.000  C
  C90      1.0000 0.38580  0.39730  0.92360  Biso   1.000  C
  C91      1.0000 0.37940  0.39690  0.06900  Biso   1.000  C
  C92      1.0000 0.41290  0.48670  0.26640  Biso   1.000  C
  C93      1.0000 0.41620  0.46740  0.09590  Biso   1.000  C
  H46      1.0000 0.42140  0.48550  0.13260  Biso   1.000  H
  C94      1.0000 0.45890  0.33850  0.25590  Biso   1.000  C
  H47      1.0000 0.43030  0.30580  0.25940  Biso   1.000  H
  C95      1.0000 0.44560  0.51150  0.06870  Biso   1.000  C
  H48      1.0000 0.47130  0.55690  0.08790  Biso   1.000  H
  O58      1.0000 0.24230  0.63790  0.28210  Biso   1.000  O
  O59      1.0000 0.14540  0.24310  0.21260  Biso   1.000  O
  O60      1.0000 0.18270  0.96120  0.14360  Biso   1.000  O
  C96      1.0000 0.14270  0.40590  0.22760  Biso   1.000  C
  C97      1.0000 0.15670  0.56270  0.25970  Biso   1.000  C
  C98      1.0000 0.19220  0.64730  0.27370  Biso   1.000  C
  C99      1.0000 0.17150  0.48530  0.23730  Biso   1.000  C
  H49      1.0000 0.20230  0.48840  0.22860  Biso   1.000  H
  C100     1.0000 0.19910  0.88430  0.16560  Biso   1.000  C
  C101     1.0000 0.17340  0.81190  0.06990  Biso   1.000  C
  H50      1.0000 0.15600  0.86630  0.05260  Biso   1.000  H
  C102     1.0000 0.16190  0.32300  0.20520  Biso   1.000  C
  C103     1.0000 0.09620  0.39900  0.23950  Biso   1.000  C
  H51      1.0000 0.07650  0.34420  0.23370  Biso   1.000  H
  C104     1.0000 0.43640  0.48790  0.01360  Biso   1.000  C
  H52      1.0000 0.45560  0.51850  0.99540  Biso   1.000  H
  C105     1.0000 0.10880  0.55940  0.26980  Biso   1.000  C
  H53      1.0000 0.09640  0.61120  0.28240  Biso   1.000  H
  C106     1.0000 0.19800  0.65660  0.06140  Biso   1.000  C
  H54      1.0000 0.19780  0.60680  0.03840  Biso   1.000  H
  C107     1.0000 0.08020  0.47660  0.26050  Biso   1.000  C
  H55      1.0000 0.04920  0.47300  0.26860  Biso   1.000  H
  C108     1.0000 0.17380  0.73720  0.03620  Biso   1.000  C
  H56      1.0000 0.15750  0.74220  0.99650  Biso   1.000  H
  Nd9      1.0000 0.78586  0.13261  0.68997  Biso   1.000  Nd
  Nd10     1.0000 0.83545  0.91159  0.80285  Biso   1.000  Nd
  O61      1.0000 0.87200  0.05910  0.76660  Biso   1.000  O
  O62      1.0000 0.78130  0.94650  0.70000  Biso   1.000  O
  O63      1.0000 0.71680  0.62900  0.71880  Biso   1.000  O
  C109     1.0000 0.69880  0.69410  0.62860  Biso   1.000  C
  O64      1.0000 0.91760  0.92970  0.77640  Biso   1.000  O
  O65      1.0000 0.73280  0.01320  0.61690  Biso   1.000  O
  O66      1.0000 0.91520  0.07430  0.39970  Biso   1.000  O
  O67      1.0000 0.73800  0.22650  0.60370  Biso   1.000  O
  H57      1.0000 0.75850  0.23460  0.58740  Biso   1.000  H
  O68      1.0000 0.84110  0.14800  0.39540  Biso   1.000  O
  O69      1.0000 0.82320  0.22440  0.57480  Biso   1.000  O
  O70      1.0000 0.67040  0.77780  0.77690  Biso   1.000  O
  O71      1.0000 0.69370  0.16420  0.68050  Biso   1.000  O
  C110     1.0000 0.84680  0.15140  0.59700  Biso   1.000  C
  C111     1.0000 0.74680  0.94240  0.64630  Biso   1.000  C
  C112     1.0000 0.72350  0.77850  0.65390  Biso   1.000  C
  H58      1.0000 0.74030  0.78390  0.69360  Biso   1.000  H
  C113     1.0000 0.95740  0.06630  0.75700  Biso   1.000  C
  O72      1.0000 0.84410  0.11460  0.64060  Biso   1.000  O
  C114     1.0000 0.72300  0.85270  0.62020  Biso   1.000  C
  C115     1.0000 0.87080  0.12700  0.51350  Biso   1.000  C
  H59      1.0000 0.84610  0.17400  0.49490  Biso   1.000  H
  C116     1.0000 0.89890  0.08120  0.48470  Biso   1.000  C
  C117     1.0000 0.88580  0.10270  0.42360  Biso   1.000  C
  C118     1.0000 0.87940  0.10310  0.56900  Biso   1.000  C
  C119     1.0000 0.91290  0.01330  0.76640  Biso   1.000  C
  C120     1.0000 0.91620  0.03260  0.59590  Biso   1.000  C
  H60      1.0000 0.92140  0.01450  0.63260  Biso   1.000  H
  C121     1.0000 0.95890  0.16150  0.75590  Biso   1.000  C
  H61      1.0000 0.93030  0.19420  0.75940  Biso   1.000  H
  C122     1.0000 0.94560  0.98850  0.56870  Biso   1.000  C
  H62      1.0000 0.97130  0.94310  0.58790  Biso   1.000  H
  O73      1.0000 0.74230  0.86210  0.78210  Biso   1.000  O
  O74      1.0000 0.64540  0.25690  0.71260  Biso   1.000  O
  O75      1.0000 0.68270  0.53880  0.64360  Biso   1.000  O
  C123     1.0000 0.64270  0.09410  0.72760  Biso   1.000  C
  C124     1.0000 0.65670  0.93730  0.75970  Biso   1.000  C
  C125     1.0000 0.69220  0.85270  0.77370  Biso   1.000  C
  C126     1.0000 0.67150  0.01470  0.73730  Biso   1.000  C
  H63      1.0000 0.70230  0.01160  0.72860  Biso   1.000  H
  C127     1.0000 0.69910  0.61570  0.66560  Biso   1.000  C
  C128     1.0000 0.67340  0.68810  0.56990  Biso   1.000  C
  H64      1.0000 0.65600  0.63370  0.55260  Biso   1.000  H
  C129     1.0000 0.66190  0.17700  0.70520  Biso   1.000  C
  C130     1.0000 0.59620  0.10100  0.73950  Biso   1.000  C
  H65      1.0000 0.57650  0.15580  0.73370  Biso   1.000  H
  C131     1.0000 0.93640  0.01210  0.51360  Biso   1.000  C
  H66      1.0000 0.95560  0.98150  0.49540  Biso   1.000  H
  C132     1.0000 0.60880  0.94060  0.76980  Biso   1.000  C
  H67      1.0000 0.59640  0.88880  0.78240  Biso   1.000  H
  C133     1.0000 0.69800  0.84340  0.56140  Biso   1.000  C
  H68      1.0000 0.69780  0.89320  0.53840  Biso   1.000  H
  C134     1.0000 0.58020  0.02340  0.76050  Biso   1.000  C
  H69      1.0000 0.54920  0.02700  0.76860  Biso   1.000  H
  C135     1.0000 0.67380  0.76280  0.53620  Biso   1.000  C
  H70      1.0000 0.65750  0.75780  0.49650  Biso   1.000  H
  Nd11     1.0000 0.28586  0.63261  0.68997  Biso   1.000  Nd
  Nd12     1.0000 0.33545  0.41159  0.80285  Biso   1.000  Nd
  O76      1.0000 0.37200  0.55910  0.76660  Biso   1.000  O
  O77      1.0000 0.28130  0.44650  0.70000  Biso   1.000  O
  O78      1.0000 0.21680  0.12900  0.71880  Biso   1.000  O
  C136     1.0000 0.19880  0.19410  0.62860  Biso   1.000  C
  O79      1.0000 0.41760  0.42970  0.77640  Biso   1.000  O
  O80      1.0000 0.23280  0.51320  0.61690  Biso   1.000  O
  O81      1.0000 0.41520  0.57430  0.39970  Biso   1.000  O
  O82      1.0000 0.23800  0.72650  0.60370  Biso   1.000  O
  H71      1.0000 0.25850  0.73460  0.58740  Biso   1.000  H
  O83      1.0000 0.34110  0.64800  0.39540  Biso   1.000  O
  O84      1.0000 0.32320  0.72440  0.57480  Biso   1.000  O
  O85      1.0000 0.17040  0.27780  0.77690  Biso   1.000  O
  O86      1.0000 0.19370  0.66420  0.68050  Biso   1.000  O
  C137     1.0000 0.34680  0.65140  0.59700  Biso   1.000  C
  C138     1.0000 0.24680  0.44240  0.64630  Biso   1.000  C
  C139     1.0000 0.22350  0.27850  0.65390  Biso   1.000  C
  H72      1.0000 0.24030  0.28390  0.69360  Biso   1.000  H
  C140     1.0000 0.45740  0.56630  0.75700  Biso   1.000  C
  O87      1.0000 0.34410  0.61460  0.64060  Biso   1.000  O
  C141     1.0000 0.22300  0.35270  0.62020  Biso   1.000  C
  C142     1.0000 0.37080  0.62700  0.51350  Biso   1.000  C
  H73      1.0000 0.34610  0.67400  0.49490  Biso   1.000  H
  C143     1.0000 0.39890  0.58120  0.48470  Biso   1.000  C
  C144     1.0000 0.38580  0.60270  0.42360  Biso   1.000  C
  C145     1.0000 0.37940  0.60310  0.56900  Biso   1.000  C
  C146     1.0000 0.41290  0.51330  0.76640  Biso   1.000  C
  C147     1.0000 0.41620  0.53260  0.59590  Biso   1.000  C
  H74      1.0000 0.42140  0.51450  0.63260  Biso   1.000  H
  C148     1.0000 0.45890  0.66150  0.75590  Biso   1.000  C
  H75      1.0000 0.43030  0.69420  0.75940  Biso   1.000  H
  C149     1.0000 0.44560  0.48850  0.56870  Biso   1.000  C
  H76      1.0000 0.47130  0.44310  0.58790  Biso   1.000  H
  O88      1.0000 0.24230  0.36210  0.78210  Biso   1.000  O
  O89      1.0000 0.14540  0.75690  0.71260  Biso   1.000  O
  O90      1.0000 0.18270  0.03880  0.64360  Biso   1.000  O
  C150     1.0000 0.14270  0.59410  0.72760  Biso   1.000  C
  C151     1.0000 0.15670  0.43730  0.75970  Biso   1.000  C
  C152     1.0000 0.19220  0.35270  0.77370  Biso   1.000  C
  C153     1.0000 0.17150  0.51470  0.73730  Biso   1.000  C
  H77      1.0000 0.20230  0.51160  0.72860  Biso   1.000  H
  C154     1.0000 0.19910  0.11570  0.66560  Biso   1.000  C
  C155     1.0000 0.17340  0.18810  0.56990  Biso   1.000  C
  H78      1.0000 0.15600  0.13370  0.55260  Biso   1.000  H
  C156     1.0000 0.16190  0.67700  0.70520  Biso   1.000  C
  C157     1.0000 0.09620  0.60100  0.73950  Biso   1.000  C
  H79      1.0000 0.07650  0.65580  0.73370  Biso   1.000  H
  C158     1.0000 0.43640  0.51210  0.51360  Biso   1.000  C
  H80      1.0000 0.45560  0.48150  0.49540  Biso   1.000  H
  C159     1.0000 0.10880  0.44060  0.76980  Biso   1.000  C
  H81      1.0000 0.09640  0.38880  0.78240  Biso   1.000  H
  C160     1.0000 0.19800  0.34340  0.56140  Biso   1.000  C
  H82      1.0000 0.19780  0.39320  0.53840  Biso   1.000  H
  C161     1.0000 0.08020  0.52340  0.76050  Biso   1.000  C
  H83      1.0000 0.04920  0.52700  0.76860  Biso   1.000  H
  C162     1.0000 0.17380  0.26280  0.53620  Biso   1.000  C
  H84      1.0000 0.15750  0.25780  0.49650  Biso   1.000  H
  Nd13     1.0000 0.21414  0.13261  0.81003  Biso   1.000  Nd
  Nd14     1.0000 0.16455  0.91159  0.69715  Biso   1.000  Nd
  O91      1.0000 0.12800  0.05910  0.73340  Biso   1.000  O
  O92      1.0000 0.21870  0.94650  0.80000  Biso   1.000  O
  O93      1.0000 0.28320  0.62900  0.78120  Biso   1.000  O
  C163     1.0000 0.30120  0.69410  0.87140  Biso   1.000  C
  O94      1.0000 0.08240  0.92970  0.72360  Biso   1.000  O
  O95      1.0000 0.26720  0.01320  0.88310  Biso   1.000  O
  O96      1.0000 0.08480  0.07430  0.10030  Biso   1.000  O
  O97      1.0000 0.26200  0.22650  0.89630  Biso   1.000  O
  H85      1.0000 0.24150  0.23460  0.91260  Biso   1.000  H
  O98      1.0000 0.15890  0.14800  0.10460  Biso   1.000  O
  O99      1.0000 0.17680  0.22440  0.92520  Biso   1.000  O
  O100     1.0000 0.32960  0.77780  0.72310  Biso   1.000  O
  O101     1.0000 0.30630  0.16420  0.81950  Biso   1.000  O
  C164     1.0000 0.15320  0.15140  0.90300  Biso   1.000  C
  C165     1.0000 0.25320  0.94240  0.85370  Biso   1.000  C
  C166     1.0000 0.27650  0.77850  0.84610  Biso   1.000  C
  H86      1.0000 0.25970  0.78390  0.80640  Biso   1.000  H
  C167     1.0000 0.04260  0.06630  0.74300  Biso   1.000  C
  O102     1.0000 0.15590  0.11460  0.85940  Biso   1.000  O
  C168     1.0000 0.27700  0.85270  0.87980  Biso   1.000  C
  C169     1.0000 0.12920  0.12700  0.98650  Biso   1.000  C
  H87      1.0000 0.15390  0.17400  0.00510  Biso   1.000  H
  C170     1.0000 0.10110  0.08120  0.01530  Biso   1.000  C
  C171     1.0000 0.11420  0.10270  0.07640  Biso   1.000  C
  C172     1.0000 0.12060  0.10310  0.93100  Biso   1.000  C
  C173     1.0000 0.08710  0.01330  0.73360  Biso   1.000  C
  C174     1.0000 0.08380  0.03260  0.90410  Biso   1.000  C
  H88      1.0000 0.07860  0.01450  0.86740  Biso   1.000  H
  C175     1.0000 0.04110  0.16150  0.74410  Biso   1.000  C
  H89      1.0000 0.06970  0.19420  0.74060  Biso   1.000  H
  C176     1.0000 0.05440  0.98850  0.93130  Biso   1.000  C
  H90      1.0000 0.02870  0.94310  0.91210  Biso   1.000  H
  O103     1.0000 0.25770  0.86210  0.71790  Biso   1.000  O
  O104     1.0000 0.35460  0.25690  0.78740  Biso   1.000  O
  O105     1.0000 0.31730  0.53880  0.85640  Biso   1.000  O
  C177     1.0000 0.35730  0.09410  0.77240  Biso   1.000  C
  C178     1.0000 0.34330  0.93730  0.74030  Biso   1.000  C
  C179     1.0000 0.30780  0.85270  0.72630  Biso   1.000  C
  C180     1.0000 0.32850  0.01470  0.76270  Biso   1.000  C
  H91      1.0000 0.29770  0.01160  0.77140  Biso   1.000  H
  C181     1.0000 0.30090  0.61570  0.83440  Biso   1.000  C
  C182     1.0000 0.32660  0.68810  0.93010  Biso   1.000  C
  H92      1.0000 0.34400  0.63370  0.94740  Biso   1.000  H
  C183     1.0000 0.33810  0.17700  0.79480  Biso   1.000  C
  C184     1.0000 0.40380  0.10100  0.76050  Biso   1.000  C
  H93      1.0000 0.42350  0.15580  0.76630  Biso   1.000  H
  C185     1.0000 0.06360  0.01210  0.98640  Biso   1.000  C
  H94      1.0000 0.04440  0.98150  0.00460  Biso   1.000  H
  C186     1.0000 0.39120  0.94060  0.73020  Biso   1.000  C
  H95      1.0000 0.40360  0.88880  0.71760  Biso   1.000  H
  C187     1.0000 0.30200  0.84340  0.93860  Biso   1.000  C
  H96      1.0000 0.30220  0.89320  0.96160  Biso   1.000  H
  C188     1.0000 0.41980  0.02340  0.73950  Biso   1.000  C
  H97      1.0000 0.45080  0.02700  0.73140  Biso   1.000  H
  C189     1.0000 0.32620  0.76280  0.96380  Biso   1.000  C
  H98      1.0000 0.34250  0.75780  0.00350  Biso   1.000  H
  Nd15     1.0000 0.71414  0.63261  0.81003  Biso   1.000  Nd
  Nd16     1.0000 0.66455  0.41159  0.69715  Biso   1.000  Nd
  O106     1.0000 0.62800  0.55910  0.73340  Biso   1.000  O
  O107     1.0000 0.71870  0.44650  0.80000  Biso   1.000  O
  O108     1.0000 0.78320  0.12900  0.78120  Biso   1.000  O
  C190     1.0000 0.80120  0.19410  0.87140  Biso   1.000  C
  O109     1.0000 0.58240  0.42970  0.72360  Biso   1.000  O
  O110     1.0000 0.76720  0.51320  0.88310  Biso   1.000  O
  O111     1.0000 0.58480  0.57430  0.10030  Biso   1.000  O
  O112     1.0000 0.76200  0.72650  0.89630  Biso   1.000  O
  H99      1.0000 0.74150  0.73460  0.91260  Biso   1.000  H
  O113     1.0000 0.65890  0.64800  0.10460  Biso   1.000  O
  O114     1.0000 0.67680  0.72440  0.92520  Biso   1.000  O
  O115     1.0000 0.82960  0.27780  0.72310  Biso   1.000  O
  O116     1.0000 0.80630  0.66420  0.81950  Biso   1.000  O
  C191     1.0000 0.65320  0.65140  0.90300  Biso   1.000  C
  C192     1.0000 0.75320  0.44240  0.85370  Biso   1.000  C
  C193     1.0000 0.77650  0.27850  0.84610  Biso   1.000  C
  H100     1.0000 0.75970  0.28390  0.80640  Biso   1.000  H
  C194     1.0000 0.54260  0.56630  0.74300  Biso   1.000  C
  O117     1.0000 0.65590  0.61460  0.85940  Biso   1.000  O
  C195     1.0000 0.77700  0.35270  0.87980  Biso   1.000  C
  C196     1.0000 0.62920  0.62700  0.98650  Biso   1.000  C
  H101     1.0000 0.65390  0.67400  0.00510  Biso   1.000  H
  C197     1.0000 0.60110  0.58120  0.01530  Biso   1.000  C
  C198     1.0000 0.61420  0.60270  0.07640  Biso   1.000  C
  C199     1.0000 0.62060  0.60310  0.93100  Biso   1.000  C
  C200     1.0000 0.58710  0.51330  0.73360  Biso   1.000  C
  C201     1.0000 0.58380  0.53260  0.90410  Biso   1.000  C
  H102     1.0000 0.57860  0.51450  0.86740  Biso   1.000  H
  C202     1.0000 0.54110  0.66150  0.74410  Biso   1.000  C
  H103     1.0000 0.56970  0.69420  0.74060  Biso   1.000  H
  C203     1.0000 0.55440  0.48850  0.93130  Biso   1.000  C
  H104     1.0000 0.52870  0.44310  0.91210  Biso   1.000  H
  O118     1.0000 0.75770  0.36210  0.71790  Biso   1.000  O
  O119     1.0000 0.85460  0.75690  0.78740  Biso   1.000  O
  O120     1.0000 0.81730  0.03880  0.85640  Biso   1.000  O
  C204     1.0000 0.85730  0.59410  0.77240  Biso   1.000  C
  C205     1.0000 0.84330  0.43730  0.74030  Biso   1.000  C
  C206     1.0000 0.80780  0.35270  0.72630  Biso   1.000  C
  C207     1.0000 0.82850  0.51470  0.76270  Biso   1.000  C
  H105     1.0000 0.79770  0.51160  0.77140  Biso   1.000  H
  C208     1.0000 0.80090  0.11570  0.83440  Biso   1.000  C
  C209     1.0000 0.82660  0.18810  0.93010  Biso   1.000  C
  H106     1.0000 0.84400  0.13370  0.94740  Biso   1.000  H
  C210     1.0000 0.83810  0.67700  0.79480  Biso   1.000  C
  C211     1.0000 0.90380  0.60100  0.76050  Biso   1.000  C
  H107     1.0000 0.92350  0.65580  0.76630  Biso   1.000  H
  C212     1.0000 0.56360  0.51210  0.98640  Biso   1.000  C
  H108     1.0000 0.54440  0.48150  0.00460  Biso   1.000  H
  C213     1.0000 0.89120  0.44060  0.73020  Biso   1.000  C
  H109     1.0000 0.90360  0.38880  0.71760  Biso   1.000  H
  C214     1.0000 0.80200  0.34340  0.93860  Biso   1.000  C
  H110     1.0000 0.80220  0.39320  0.96160  Biso   1.000  H
  C215     1.0000 0.91980  0.52340  0.73950  Biso   1.000  C
  H111     1.0000 0.95080  0.52700  0.73140  Biso   1.000  H
  C216     1.0000 0.82620  0.26280  0.96380  Biso   1.000  C
  H112     1.0000 0.84250  0.25780  0.00350  Biso   1.000  H
  C217     1.0000 0.00000  0.97980  0.25000  Biso   1.000  C
  H113     1.0000 0.00000  0.04390  0.25000  Biso   1.000  H
  C218     1.0000 0.00000  0.79060  0.25000  Biso   1.000  C
  H114     1.0000 0.00000  0.72660  0.25000  Biso   1.000  H
  C219     1.0000 0.50000  0.47980  0.25000  Biso   1.000  C
  H115     1.0000 0.50000  0.54390  0.25000  Biso   1.000  H
  C220     1.0000 0.50000  0.29060  0.25000  Biso   1.000  C
  H116     1.0000 0.50000  0.22660  0.25000  Biso   1.000  H
  C221     1.0000 0.00000  0.02020  0.75000  Biso   1.000  C
  H117     1.0000 0.00000  0.95610  0.75000  Biso   1.000  H
  C222     1.0000 0.00000  0.20940  0.75000  Biso   1.000  C
  H118     1.0000 0.00000  0.27340  0.75000  Biso   1.000  H
  C223     1.0000 0.50000  0.52020  0.75000  Biso   1.000  C
  H119     1.0000 0.50000  0.45610  0.75000  Biso   1.000  H
  C224     1.0000 0.50000  0.70940  0.75000  Biso   1.000  C
  H120     1.0000 0.50000  0.77340  0.75000  Biso   1.000  H
