data_image0
_cell_length_a       8.28997
_cell_length_b       13.8221
_cell_length_c       17.0674
_cell_angle_alpha    77.1879
_cell_angle_beta     75.9446
_cell_angle_gamma    72.5495

_symmetry_space_group_name_H-M    P 1
_symmetry_int_tables_number       1

loop_
  _symmetry_equiv_pos_as_xyz
  'x, y, z'

loop_
  _atom_site_label
  _atom_site_occupancy
  _atom_site_fract_x
  _atom_site_fract_y
  _atom_site_fract_z
  _atom_site_thermal_displace_type
  _atom_site_B_iso_or_equiv
  _atom_site_type_symbol
  Cu1      1.0000 0.90139  0.54497  0.15631  Biso   1.000  Cu
  Cu2      1.0000 0.73315  0.52457  0.35567  Biso   1.000  Cu
  Cu3      1.0000 0.60267  0.95503  0.34369  Biso   1.000  Cu
  Cu4      1.0000 0.61339  0.97543  0.14433  Biso   1.000  Cu
  Cu5      1.0000 0.09861  0.45503  0.84369  Biso   1.000  Cu
  Cu6      1.0000 0.26685  0.47543  0.64433  Biso   1.000  Cu
  Cu7      1.0000 0.39733  0.04497  0.65631  Biso   1.000  Cu
  Cu8      1.0000 0.38661  0.02457  0.85567  Biso   1.000  Cu
  H1       1.0000 0.26200  0.61870  0.08650  Biso   1.000  H
  H2       1.0000 0.41520  0.63900  0.95580  Biso   1.000  H
  H3       1.0000 0.37220  0.57000  0.85020  Biso   1.000  H
  H4       1.0000 0.87720  0.60140  0.47940  Biso   1.000  H
  H5       1.0000 0.77530  0.62720  0.62180  Biso   1.000  H
  H6       1.0000 0.51370  0.58000  0.69740  Biso   1.000  H
  H7       1.0000 0.22550  0.64790  0.27410  Biso   1.000  H
  H8       1.0000 0.08980  0.71590  0.33410  Biso   1.000  H
  H9       1.0000 0.58840  0.55960  0.23720  Biso   1.000  H
  H10      1.0000 0.96720  0.88130  0.41350  Biso   1.000  H
  H11      1.0000 0.01000  0.86100  0.54420  Biso   1.000  H
  H12      1.0000 0.79240  0.93000  0.64980  Biso   1.000  H
  H13      1.0000 0.95800  0.89860  0.02060  Biso   1.000  H
  H14      1.0000 0.02430  0.87280  0.87820  Biso   1.000  H
  H15      1.0000 0.79110  0.92000  0.80260  Biso   1.000  H
  H16      1.0000 0.14750  0.85210  0.22590  Biso   1.000  H
  H17      1.0000 0.13980  0.78410  0.16590  Biso   1.000  H
  H18      1.0000 0.38520  0.94040  0.26280  Biso   1.000  H
  H19      1.0000 0.73800  0.38130  0.91350  Biso   1.000  H
  H20      1.0000 0.58480  0.36100  0.04420  Biso   1.000  H
  H21      1.0000 0.62780  0.43000  0.14980  Biso   1.000  H
  H22      1.0000 0.12280  0.39860  0.52060  Biso   1.000  H
  H23      1.0000 0.22470  0.37280  0.37820  Biso   1.000  H
  H24      1.0000 0.48630  0.42000  0.30260  Biso   1.000  H
  H25      1.0000 0.77450  0.35210  0.72590  Biso   1.000  H
  H26      1.0000 0.91020  0.28410  0.66590  Biso   1.000  H
  H27      1.0000 0.41160  0.44040  0.76280  Biso   1.000  H
  H28      1.0000 0.03280  0.11870  0.58650  Biso   1.000  H
  H29      1.0000 0.99000  0.13900  0.45580  Biso   1.000  H
  H30      1.0000 0.20760  0.07000  0.35020  Biso   1.000  H
  H31      1.0000 0.04200  0.10140  0.97940  Biso   1.000  H
  H32      1.0000 0.97570  0.12720  0.12180  Biso   1.000  H
  H33      1.0000 0.20890  0.08000  0.19740  Biso   1.000  H
  H34      1.0000 0.85250  0.14790  0.77410  Biso   1.000  H
  H35      1.0000 0.86020  0.21590  0.83410  Biso   1.000  H
  H36      1.0000 0.61480  0.05960  0.73720  Biso   1.000  H
  C1       1.0000 0.21930  0.60360  0.04120  Biso   1.000  C
  C2       1.0000 0.32890  0.60810  0.96650  Biso   1.000  C
  C3       1.0000 0.29860  0.57030  0.90510  Biso   1.000  C
  C4       1.0000 0.77050  0.58760  0.51180  Biso   1.000  C
  C5       1.0000 0.71110  0.60220  0.59240  Biso   1.000  C
  C6       1.0000 0.56390  0.57380  0.63400  Biso   1.000  C
  C7       1.0000 0.07480  0.51700  0.99260  Biso   1.000  C
  C8       1.0000 0.54660  0.52140  0.52020  Biso   1.000  C
  C9       1.0000 0.99350  0.63510  0.27170  Biso   1.000  C
  C10      1.0000 0.10320  0.70000  0.28040  Biso   1.000  C
  C11      1.0000 0.86410  0.89640  0.45880  Biso   1.000  C
  C12      1.0000 0.90350  0.89190  0.53350  Biso   1.000  C
  C13      1.0000 0.77400  0.92970  0.59490  Biso   1.000  C
  C14      1.0000 0.86990  0.91240  0.98820  Biso   1.000  C
  C15      1.0000 0.90570  0.89780  0.90760  Biso   1.000  C
  C16      1.0000 0.77170  0.92620  0.86600  Biso   1.000  C
  C17      1.0000 0.58440  0.98300  0.50740  Biso   1.000  C
  C18      1.0000 0.58820  0.97860  0.97980  Biso   1.000  C
  C19      1.0000 0.90030  0.86490  0.22830  Biso   1.000  C
  C20      1.0000 0.08360  0.80000  0.21960  Biso   1.000  C
  C21      1.0000 0.78070  0.39640  0.95880  Biso   1.000  C
  C22      1.0000 0.67110  0.39190  0.03350  Biso   1.000  C
  C23      1.0000 0.70140  0.42970  0.09490  Biso   1.000  C
  C24      1.0000 0.22950  0.41240  0.48820  Biso   1.000  C
  C25      1.0000 0.28890  0.39780  0.40760  Biso   1.000  C
  C26      1.0000 0.43610  0.42620  0.36600  Biso   1.000  C
  C27      1.0000 0.92520  0.48300  0.00740  Biso   1.000  C
  C28      1.0000 0.45340  0.47860  0.47980  Biso   1.000  C
  C29      1.0000 0.00650  0.36490  0.72830  Biso   1.000  C
  C30      1.0000 0.89680  0.30000  0.71960  Biso   1.000  C
  C31      1.0000 0.13590  0.10360  0.54120  Biso   1.000  C
  C32      1.0000 0.09650  0.10810  0.46650  Biso   1.000  C
  C33      1.0000 0.22600  0.07030  0.40510  Biso   1.000  C
  C34      1.0000 0.13010  0.08760  0.01180  Biso   1.000  C
  C35      1.0000 0.09430  0.10220  0.09240  Biso   1.000  C
  C36      1.0000 0.22830  0.07380  0.13400  Biso   1.000  C
  C37      1.0000 0.41560  0.01700  0.49260  Biso   1.000  C
  C38      1.0000 0.41180  0.02140  0.02020  Biso   1.000  C
  C39      1.0000 0.09970  0.13510  0.77170  Biso   1.000  C
  C40      1.0000 0.91640  0.20000  0.78040  Biso   1.000  C
  N1       1.0000 0.08820  0.56120  0.05420  Biso   1.000  N
  N2       1.0000 0.16870  0.52700  0.91820  Biso   1.000  N
  N3       1.0000 0.68740  0.54660  0.47540  Biso   1.000  N
  N4       1.0000 0.48180  0.53190  0.59770  Biso   1.000  N
  N5       1.0000 0.70360  0.93880  0.44580  Biso   1.000  N
  N6       1.0000 0.61390  0.97300  0.58180  Biso   1.000  N
  N7       1.0000 0.70940  0.95340  0.02460  Biso   1.000  N
  N8       1.0000 0.61140  0.96810  0.90230  Biso   1.000  N
  N9       1.0000 0.91180  0.43880  0.94580  Biso   1.000  N
  N10      1.0000 0.83130  0.47300  0.08180  Biso   1.000  N
  N11      1.0000 0.31260  0.45340  0.52460  Biso   1.000  N
  N12      1.0000 0.51820  0.46810  0.40230  Biso   1.000  N
  N13      1.0000 0.29640  0.06120  0.55420  Biso   1.000  N
  N14      1.0000 0.38610  0.02700  0.41820  Biso   1.000  N
  N15      1.0000 0.29060  0.04660  0.97540  Biso   1.000  N
  N16      1.0000 0.38860  0.03190  0.09770  Biso   1.000  N
  O1       1.0000 0.98390  0.63330  0.20010  Biso   1.000  O
  O2       1.0000 0.92360  0.58730  0.33550  Biso   1.000  O
  O3       1.0000 0.71880  0.52620  0.24540  Biso   1.000  O
  O4       1.0000 0.81730  0.86670  0.29990  Biso   1.000  O
  O5       1.0000 0.84640  0.91270  0.16450  Biso   1.000  O
  O6       1.0000 0.49040  0.97380  0.25460  Biso   1.000  O
  O7       1.0000 0.01610  0.36670  0.79990  Biso   1.000  O
  O8       1.0000 0.07640  0.41270  0.66450  Biso   1.000  O
  O9       1.0000 0.28120  0.47380  0.75460  Biso   1.000  O
  O10      1.0000 0.18270  0.13330  0.70010  Biso   1.000  O
  O11      1.0000 0.15360  0.08730  0.83550  Biso   1.000  O
  O12      1.0000 0.50960  0.02620  0.74540  Biso   1.000  O
