data_image0
_cell_length_a       9.871
_cell_length_b       11.507
_cell_length_c       23.254
_cell_angle_alpha    90
_cell_angle_beta     90
_cell_angle_gamma    96.418

_symmetry_space_group_name_H-M    P 1
_symmetry_int_tables_number       1

loop_
  _symmetry_equiv_pos_as_xyz
  'x, y, z'

loop_
  _atom_site_label
  _atom_site_occupancy
  _atom_site_fract_x
  _atom_site_fract_y
  _atom_site_fract_z
  _atom_site_thermal_displace_type
  _atom_site_B_iso_or_equiv
  _atom_site_type_symbol
  Mn1      1.0000 0.74955  0.50002  0.23293  Biso   1.000  Mn
  Mn2      1.0000 0.75045  0.49998  0.73293  Biso   1.000  Mn
  Mn3      1.0000 0.25045  0.49998  0.76707  Biso   1.000  Mn
  Mn4      1.0000 0.24955  0.50002  0.26707  Biso   1.000  Mn
  H1       1.0000 0.89330  0.38170  0.34870  Biso   1.000  H
  H2       1.0000 0.88700  0.38930  0.44790  Biso   1.000  H
  H3       1.0000 0.60540  0.61420  0.44160  Biso   1.000  H
  H4       1.0000 0.62030  0.61400  0.34220  Biso   1.000  H
  H5       1.0000 0.93820  0.46000  0.53430  Biso   1.000  H
  H6       1.0000 0.92990  0.45950  0.63260  Biso   1.000  H
  H7       1.0000 0.55190  0.55560  0.62940  Biso   1.000  H
  H8       1.0000 0.56130  0.55630  0.52940  Biso   1.000  H
  H9       1.0000 0.23980  0.00680  0.35370  Biso   1.000  H
  H10      1.0000 0.08550  0.88650  0.20130  Biso   1.000  H
  H11      1.0000 0.26260  0.00190  0.15410  Biso   1.000  H
  H12      1.0000 0.41060  0.13210  0.20480  Biso   1.000  H
  H13      1.0000 0.58930  0.26130  0.32050  Biso   1.000  H
  H14      1.0000 0.57150  0.18910  0.26370  Biso   1.000  H
  H15      1.0000 0.89850  0.75650  0.31090  Biso   1.000  H
  H16      1.0000 0.92820  0.82440  0.25350  Biso   1.000  H
  H17      1.0000 0.60670  0.61830  0.84870  Biso   1.000  H
  H18      1.0000 0.61300  0.61070  0.94790  Biso   1.000  H
  H19      1.0000 0.89460  0.38580  0.94160  Biso   1.000  H
  H20      1.0000 0.87970  0.38600  0.84220  Biso   1.000  H
  H21      1.0000 0.56180  0.54000  0.03430  Biso   1.000  H
  H22      1.0000 0.57010  0.54050  0.13260  Biso   1.000  H
  H23      1.0000 0.94810  0.44440  0.12940  Biso   1.000  H
  H24      1.0000 0.93870  0.44370  0.02940  Biso   1.000  H
  H25      1.0000 0.26020  0.99320  0.85370  Biso   1.000  H
  H26      1.0000 0.41450  0.11350  0.70130  Biso   1.000  H
  H27      1.0000 0.23740  0.99810  0.65410  Biso   1.000  H
  H28      1.0000 0.08940  0.86790  0.70480  Biso   1.000  H
  H29      1.0000 0.91070  0.73870  0.82050  Biso   1.000  H
  H30      1.0000 0.92850  0.81090  0.76370  Biso   1.000  H
  H31      1.0000 0.60150  0.24350  0.81090  Biso   1.000  H
  H32      1.0000 0.57180  0.17560  0.75350  Biso   1.000  H
  H33      1.0000 0.10670  0.61830  0.65130  Biso   1.000  H
  H34      1.0000 0.11300  0.61070  0.55210  Biso   1.000  H
  H35      1.0000 0.39460  0.38580  0.55840  Biso   1.000  H
  H36      1.0000 0.37970  0.38600  0.65780  Biso   1.000  H
  H37      1.0000 0.06180  0.54000  0.46570  Biso   1.000  H
  H38      1.0000 0.07010  0.54050  0.36740  Biso   1.000  H
  H39      1.0000 0.44810  0.44440  0.37060  Biso   1.000  H
  H40      1.0000 0.43870  0.44370  0.47060  Biso   1.000  H
  H41      1.0000 0.76020  0.99320  0.64630  Biso   1.000  H
  H42      1.0000 0.91450  0.11350  0.79870  Biso   1.000  H
  H43      1.0000 0.73740  0.99810  0.84590  Biso   1.000  H
  H44      1.0000 0.58940  0.86790  0.79520  Biso   1.000  H
  H45      1.0000 0.41070  0.73870  0.67950  Biso   1.000  H
  H46      1.0000 0.42850  0.81090  0.73630  Biso   1.000  H
  H47      1.0000 0.10150  0.24350  0.68910  Biso   1.000  H
  H48      1.0000 0.07180  0.17560  0.74650  Biso   1.000  H
  H49      1.0000 0.39330  0.38170  0.15130  Biso   1.000  H
  H50      1.0000 0.38700  0.38930  0.05210  Biso   1.000  H
  H51      1.0000 0.10540  0.61420  0.05840  Biso   1.000  H
  H52      1.0000 0.12030  0.61400  0.15780  Biso   1.000  H
  H53      1.0000 0.43820  0.46000  0.96570  Biso   1.000  H
  H54      1.0000 0.42990  0.45950  0.86740  Biso   1.000  H
  H55      1.0000 0.05190  0.55560  0.87060  Biso   1.000  H
  H56      1.0000 0.06130  0.55630  0.97060  Biso   1.000  H
  H57      1.0000 0.73980  0.00680  0.14630  Biso   1.000  H
  H58      1.0000 0.58550  0.88650  0.29870  Biso   1.000  H
  H59      1.0000 0.76260  0.00190  0.34590  Biso   1.000  H
  H60      1.0000 0.91060  0.13210  0.29520  Biso   1.000  H
  H61      1.0000 0.08930  0.26130  0.17950  Biso   1.000  H
  H62      1.0000 0.07150  0.18910  0.23630  Biso   1.000  H
  H63      1.0000 0.39850  0.75650  0.18910  Biso   1.000  H
  H64      1.0000 0.42820  0.82440  0.24650  Biso   1.000  H
  C1       1.0000 0.83770  0.42990  0.36735  Biso   1.000  C
  C2       1.0000 0.83260  0.43460  0.42675  Biso   1.000  C
  C3       1.0000 0.74910  0.50480  0.45635  Biso   1.000  C
  C4       1.0000 0.66590  0.56970  0.42348  Biso   1.000  C
  C5       1.0000 0.67350  0.56770  0.36334  Biso   1.000  C
  C6       1.0000 0.75460  0.51230  0.52034  Biso   1.000  C
  C7       1.0000 0.86080  0.48080  0.55272  Biso   1.000  C
  C8       1.0000 0.85540  0.47920  0.61168  Biso   1.000  C
  C9       1.0000 0.62910  0.53670  0.61017  Biso   1.000  C
  C10      1.0000 0.63640  0.53800  0.55034  Biso   1.000  C
  C11      1.0000 0.34430  0.08010  0.28430  Biso   1.000  C
  C12      1.0000 0.24310  0.00660  0.31374  Biso   1.000  C
  C13      1.0000 0.15030  0.93550  0.28301  Biso   1.000  C
  C14      1.0000 0.15120  0.93350  0.22197  Biso   1.000  C
  C15      1.0000 0.25550  0.00540  0.19397  Biso   1.000  C
  C16      1.0000 0.34700  0.08070  0.22422  Biso   1.000  C
  C17      1.0000 0.52300  0.23090  0.29190  Biso   1.000  C
  C18      1.0000 0.47560  0.33010  0.26299  Biso   1.000  C
  C19      1.0000 0.97010  0.78300  0.28387  Biso   1.000  C
  C20      1.0000 0.01940  0.67670  0.25764  Biso   1.000  C
  C21      1.0000 0.66230  0.57010  0.86735  Biso   1.000  C
  C22      1.0000 0.66740  0.56540  0.92675  Biso   1.000  C
  C23      1.0000 0.75090  0.49520  0.95635  Biso   1.000  C
  C24      1.0000 0.83410  0.43030  0.92348  Biso   1.000  C
  C25      1.0000 0.82650  0.43230  0.86334  Biso   1.000  C
  C26      1.0000 0.74540  0.48770  0.02034  Biso   1.000  C
  C27      1.0000 0.63920  0.51920  0.05272  Biso   1.000  C
  C28      1.0000 0.64460  0.52080  0.11168  Biso   1.000  C
  C29      1.0000 0.87090  0.46330  0.11017  Biso   1.000  C
  C30      1.0000 0.86360  0.46200  0.05034  Biso   1.000  C
  C31      1.0000 0.15570  0.91990  0.78430  Biso   1.000  C
  C32      1.0000 0.25690  0.99340  0.81374  Biso   1.000  C
  C33      1.0000 0.34970  0.06450  0.78301  Biso   1.000  C
  C34      1.0000 0.34880  0.06650  0.72197  Biso   1.000  C
  C35      1.0000 0.24450  0.99460  0.69397  Biso   1.000  C
  C36      1.0000 0.15300  0.91930  0.72422  Biso   1.000  C
  C37      1.0000 0.97700  0.76910  0.79190  Biso   1.000  C
  C38      1.0000 0.02440  0.66990  0.76299  Biso   1.000  C
  C39      1.0000 0.52990  0.21700  0.78387  Biso   1.000  C
  C40      1.0000 0.48060  0.32330  0.75764  Biso   1.000  C
  C41      1.0000 0.16230  0.57010  0.63265  Biso   1.000  C
  C42      1.0000 0.16740  0.56540  0.57325  Biso   1.000  C
  C43      1.0000 0.25090  0.49520  0.54365  Biso   1.000  C
  C44      1.0000 0.33410  0.43030  0.57652  Biso   1.000  C
  C45      1.0000 0.32650  0.43230  0.63666  Biso   1.000  C
  C46      1.0000 0.24540  0.48770  0.47966  Biso   1.000  C
  C47      1.0000 0.13920  0.51920  0.44728  Biso   1.000  C
  C48      1.0000 0.14460  0.52080  0.38832  Biso   1.000  C
  C49      1.0000 0.37090  0.46330  0.38983  Biso   1.000  C
  C50      1.0000 0.36360  0.46200  0.44966  Biso   1.000  C
  C51      1.0000 0.65570  0.91990  0.71570  Biso   1.000  C
  C52      1.0000 0.75690  0.99340  0.68626  Biso   1.000  C
  C53      1.0000 0.84970  0.06450  0.71699  Biso   1.000  C
  C54      1.0000 0.84880  0.06650  0.77803  Biso   1.000  C
  C55      1.0000 0.74450  0.99460  0.80603  Biso   1.000  C
  C56      1.0000 0.65300  0.91930  0.77578  Biso   1.000  C
  C57      1.0000 0.47700  0.76910  0.70810  Biso   1.000  C
  C58      1.0000 0.52440  0.66990  0.73701  Biso   1.000  C
  C59      1.0000 0.02990  0.21700  0.71613  Biso   1.000  C
  C60      1.0000 0.98060  0.32330  0.74236  Biso   1.000  C
  C61      1.0000 0.33770  0.42990  0.13265  Biso   1.000  C
  C62      1.0000 0.33260  0.43460  0.07325  Biso   1.000  C
  C63      1.0000 0.24910  0.50480  0.04365  Biso   1.000  C
  C64      1.0000 0.16590  0.56970  0.07652  Biso   1.000  C
  C65      1.0000 0.17350  0.56770  0.13666  Biso   1.000  C
  C66      1.0000 0.25460  0.51230  0.97966  Biso   1.000  C
  C67      1.0000 0.36080  0.48080  0.94728  Biso   1.000  C
  C68      1.0000 0.35540  0.47920  0.88832  Biso   1.000  C
  C69      1.0000 0.12910  0.53670  0.88983  Biso   1.000  C
  C70      1.0000 0.13640  0.53800  0.94966  Biso   1.000  C
  C71      1.0000 0.84430  0.08010  0.21570  Biso   1.000  C
  C72      1.0000 0.74310  0.00660  0.18626  Biso   1.000  C
  C73      1.0000 0.65030  0.93550  0.21699  Biso   1.000  C
  C74      1.0000 0.65120  0.93350  0.27803  Biso   1.000  C
  C75      1.0000 0.75550  0.00540  0.30603  Biso   1.000  C
  C76      1.0000 0.84700  0.08070  0.27578  Biso   1.000  C
  C77      1.0000 0.02300  0.23090  0.20810  Biso   1.000  C
  C78      1.0000 0.97560  0.33010  0.23701  Biso   1.000  C
  C79      1.0000 0.47010  0.78300  0.21613  Biso   1.000  C
  C80      1.0000 0.51940  0.67670  0.24236  Biso   1.000  C
  N1       1.0000 0.75450  0.50140  0.33551  Biso   1.000  N
  N2       1.0000 0.74200  0.50601  0.63999  Biso   1.000  N
  N3       1.0000 0.74550  0.49860  0.83551  Biso   1.000  N
  N4       1.0000 0.75800  0.49399  0.13999  Biso   1.000  N
  N5       1.0000 0.24550  0.49860  0.66449  Biso   1.000  N
  N6       1.0000 0.25800  0.49399  0.36001  Biso   1.000  N
  N7       1.0000 0.25450  0.50140  0.16449  Biso   1.000  N
  N8       1.0000 0.24200  0.50601  0.86001  Biso   1.000  N
  O1       1.0000 0.43087  0.15001  0.31895  Biso   1.000  O
  O2       1.0000 0.55587  0.38441  0.23035  Biso   1.000  O
  O3       1.0000 0.34748  0.34304  0.26532  Biso   1.000  O
  O4       1.0000 0.05990  0.86206  0.31163  Biso   1.000  O
  O5       1.0000 0.12699  0.65131  0.27599  Biso   1.000  O
  O6       1.0000 0.93670  0.60716  0.22709  Biso   1.000  O
  O7       1.0000 0.06913  0.84999  0.81895  Biso   1.000  O
  O8       1.0000 0.94413  0.61559  0.73035  Biso   1.000  O
  O9       1.0000 0.15252  0.65696  0.76532  Biso   1.000  O
  O10      1.0000 0.44010  0.13794  0.81163  Biso   1.000  O
  O11      1.0000 0.37301  0.34869  0.77599  Biso   1.000  O
  O12      1.0000 0.56330  0.39284  0.72709  Biso   1.000  O
  O13      1.0000 0.56913  0.84999  0.68105  Biso   1.000  O
  O14      1.0000 0.44413  0.61559  0.76965  Biso   1.000  O
  O15      1.0000 0.65252  0.65696  0.73468  Biso   1.000  O
  O16      1.0000 0.94010  0.13794  0.68837  Biso   1.000  O
  O17      1.0000 0.87301  0.34869  0.72401  Biso   1.000  O
  O18      1.0000 0.06330  0.39284  0.77291  Biso   1.000  O
  O19      1.0000 0.93087  0.15001  0.18105  Biso   1.000  O
  O20      1.0000 0.05587  0.38441  0.26965  Biso   1.000  O
  O21      1.0000 0.84748  0.34304  0.23468  Biso   1.000  O
  O22      1.0000 0.55990  0.86206  0.18837  Biso   1.000  O
  O23      1.0000 0.62699  0.65131  0.22401  Biso   1.000  O
  O24      1.0000 0.43670  0.60716  0.27291  Biso   1.000  O
