data_image0
_cell_length_a       9.6931
_cell_length_b       12.6453
_cell_length_c       26.411
_cell_angle_alpha    91.391
_cell_angle_beta     90
_cell_angle_gamma    90

_symmetry_space_group_name_H-M    P 1
_symmetry_int_tables_number       1

loop_
  _symmetry_equiv_pos_as_xyz
  'x, y, z'

loop_
  _atom_site_label
  _atom_site_occupancy
  _atom_site_fract_x
  _atom_site_fract_y
  _atom_site_fract_z
  _atom_site_thermal_displace_type
  _atom_site_B_iso_or_equiv
  _atom_site_type_symbol
  Eu1      1.0000 0.19708  0.85827  0.75328  Biso   1.000  Eu
  Eu2      1.0000 0.69708  0.64173  0.74672  Biso   1.000  Eu
  Eu3      1.0000 0.80292  0.14173  0.24672  Biso   1.000  Eu
  Eu4      1.0000 0.30292  0.35827  0.25328  Biso   1.000  Eu
  H1       1.0000 0.17240  0.42570  0.50610  Biso   1.000  H
  H2       1.0000 0.41550  0.63750  0.43700  Biso   1.000  H
  H3       1.0000 0.27030  0.69200  0.63520  Biso   1.000  H
  H4       1.0000 0.35720  0.77170  0.60120  Biso   1.000  H
  H5       1.0000 0.15880  0.43420  0.41820  Biso   1.000  H
  H6       1.0000 0.30730  0.45430  0.39380  Biso   1.000  H
  H7       1.0000 0.08770  0.60510  0.39890  Biso   1.000  H
  H8       1.0000 0.23890  0.63450  0.37980  Biso   1.000  H
  H9       1.0000 0.92880  0.83750  0.43600  Biso   1.000  H
  H10      1.0000 0.67230  0.07230  0.48300  Biso   1.000  H
  H11      1.0000 0.82920  0.77240  0.61200  Biso   1.000  H
  H12      1.0000 0.74370  0.86940  0.63660  Biso   1.000  H
  H13      1.0000 0.68530  0.04110  0.39800  Biso   1.000  H
  H14      1.0000 0.84000  0.01690  0.38040  Biso   1.000  H
  H15      1.0000 0.62210  0.86820  0.37960  Biso   1.000  H
  H16      1.0000 0.77790  0.83870  0.36530  Biso   1.000  H
  H17      1.0000 0.06000  0.66400  0.71500  Biso   1.000  H
  H18      1.0000 0.17400  0.62500  0.73100  Biso   1.000  H
  H19      1.0000 0.00400  0.97100  0.82000  Biso   1.000  H
  H20      1.0000 0.05800  0.05800  0.80100  Biso   1.000  H
  H21      1.0000 0.67240  0.07430  0.99390  Biso   1.000  H
  H22      1.0000 0.91550  0.86250  0.06300  Biso   1.000  H
  H23      1.0000 0.77030  0.80800  0.86480  Biso   1.000  H
  H24      1.0000 0.85720  0.72830  0.89880  Biso   1.000  H
  H25      1.0000 0.65880  0.06580  0.08180  Biso   1.000  H
  H26      1.0000 0.80730  0.04570  0.10620  Biso   1.000  H
  H27      1.0000 0.58770  0.89490  0.10110  Biso   1.000  H
  H28      1.0000 0.73890  0.86550  0.12020  Biso   1.000  H
  H29      1.0000 0.42880  0.66250  0.06400  Biso   1.000  H
  H30      1.0000 0.17230  0.42770  0.01700  Biso   1.000  H
  H31      1.0000 0.32920  0.72760  0.88800  Biso   1.000  H
  H32      1.0000 0.24370  0.63060  0.86340  Biso   1.000  H
  H33      1.0000 0.18530  0.45890  0.10200  Biso   1.000  H
  H34      1.0000 0.34000  0.48310  0.11960  Biso   1.000  H
  H35      1.0000 0.12210  0.63180  0.12040  Biso   1.000  H
  H36      1.0000 0.27790  0.66130  0.13470  Biso   1.000  H
  H37      1.0000 0.56000  0.83600  0.78500  Biso   1.000  H
  H38      1.0000 0.67400  0.87500  0.76900  Biso   1.000  H
  H39      1.0000 0.50400  0.52900  0.68000  Biso   1.000  H
  H40      1.0000 0.55800  0.44200  0.69900  Biso   1.000  H
  H41      1.0000 0.82760  0.57430  0.49390  Biso   1.000  H
  H42      1.0000 0.58450  0.36250  0.56300  Biso   1.000  H
  H43      1.0000 0.72970  0.30800  0.36480  Biso   1.000  H
  H44      1.0000 0.64280  0.22830  0.39880  Biso   1.000  H
  H45      1.0000 0.84120  0.56580  0.58180  Biso   1.000  H
  H46      1.0000 0.69270  0.54570  0.60620  Biso   1.000  H
  H47      1.0000 0.91230  0.39490  0.60110  Biso   1.000  H
  H48      1.0000 0.76110  0.36550  0.62020  Biso   1.000  H
  H49      1.0000 0.07120  0.16250  0.56400  Biso   1.000  H
  H50      1.0000 0.32770  0.92770  0.51700  Biso   1.000  H
  H51      1.0000 0.17080  0.22760  0.38800  Biso   1.000  H
  H52      1.0000 0.25630  0.13060  0.36340  Biso   1.000  H
  H53      1.0000 0.31470  0.95890  0.60200  Biso   1.000  H
  H54      1.0000 0.16000  0.98310  0.61960  Biso   1.000  H
  H55      1.0000 0.37790  0.13180  0.62040  Biso   1.000  H
  H56      1.0000 0.22210  0.16130  0.63470  Biso   1.000  H
  H57      1.0000 0.94000  0.33600  0.28500  Biso   1.000  H
  H58      1.0000 0.82600  0.37500  0.26900  Biso   1.000  H
  H59      1.0000 0.99600  0.02900  0.18000  Biso   1.000  H
  H60      1.0000 0.94200  0.94200  0.19900  Biso   1.000  H
  H61      1.0000 0.32760  0.92570  0.00610  Biso   1.000  H
  H62      1.0000 0.08450  0.13750  0.93700  Biso   1.000  H
  H63      1.0000 0.22970  0.19200  0.13520  Biso   1.000  H
  H64      1.0000 0.14280  0.27170  0.10120  Biso   1.000  H
  H65      1.0000 0.34120  0.93420  0.91820  Biso   1.000  H
  H66      1.0000 0.19270  0.95430  0.89380  Biso   1.000  H
  H67      1.0000 0.41230  0.10510  0.89890  Biso   1.000  H
  H68      1.0000 0.26110  0.13450  0.87980  Biso   1.000  H
  H69      1.0000 0.57120  0.33750  0.93600  Biso   1.000  H
  H70      1.0000 0.82770  0.57230  0.98300  Biso   1.000  H
  H71      1.0000 0.67080  0.27240  0.11200  Biso   1.000  H
  H72      1.0000 0.75630  0.36940  0.13660  Biso   1.000  H
  H73      1.0000 0.81470  0.54110  0.89800  Biso   1.000  H
  H74      1.0000 0.66000  0.51690  0.88040  Biso   1.000  H
  H75      1.0000 0.87790  0.36820  0.87960  Biso   1.000  H
  H76      1.0000 0.72210  0.33870  0.86530  Biso   1.000  H
  H77      1.0000 0.44000  0.16400  0.21500  Biso   1.000  H
  H78      1.0000 0.32600  0.12500  0.23100  Biso   1.000  H
  H79      1.0000 0.49600  0.47100  0.32000  Biso   1.000  H
  H80      1.0000 0.44200  0.55800  0.30100  Biso   1.000  H
  C1       1.0000 0.38760  0.59500  0.55837  Biso   1.000  C
  C2       1.0000 0.29180  0.51330  0.55434  Biso   1.000  C
  C3       1.0000 0.23940  0.48050  0.50777  Biso   1.000  C
  C4       1.0000 0.28370  0.52660  0.46363  Biso   1.000  C
  C5       1.0000 0.38200  0.60640  0.46703  Biso   1.000  C
  C6       1.0000 0.43170  0.64110  0.51386  Biso   1.000  C
  C7       1.0000 0.36470  0.71500  0.62631  Biso   1.000  C
  C8       1.0000 0.43690  0.75700  0.67300  Biso   1.000  C
  C9       1.0000 0.23080  0.48840  0.41290  Biso   1.000  C
  C10      1.0000 0.17050  0.57650  0.38140  Biso   1.000  C
  C11      1.0000 0.13090  0.54380  0.32830  Biso   1.000  C
  C12      1.0000 0.87060  0.92420  0.55201  Biso   1.000  C
  C13      1.0000 0.92510  0.86210  0.51253  Biso   1.000  C
  C14      1.0000 0.88930  0.87990  0.46237  Biso   1.000  C
  C15      1.0000 0.79570  0.95980  0.45050  Biso   1.000  C
  C16      1.0000 0.73840  0.01920  0.49000  Biso   1.000  C
  C17      1.0000 0.77690  0.00180  0.53954  Biso   1.000  C
  C18      1.0000 0.83770  0.84100  0.63057  Biso   1.000  C
  C19      1.0000 0.90930  0.82490  0.68075  Biso   1.000  C
  C20      1.0000 0.75800  0.98610  0.39690  Biso   1.000  C
  C21      1.0000 0.70830  0.89590  0.36480  Biso   1.000  C
  C22      1.0000 0.68140  0.92480  0.31070  Biso   1.000  C
  C23      1.0000 0.88760  0.90500  0.94163  Biso   1.000  C
  C24      1.0000 0.79180  0.98670  0.94566  Biso   1.000  C
  C25      1.0000 0.73940  0.01950  0.99223  Biso   1.000  C
  C26      1.0000 0.78370  0.97340  0.03637  Biso   1.000  C
  C27      1.0000 0.88200  0.89360  0.03297  Biso   1.000  C
  C28      1.0000 0.93170  0.85890  0.98614  Biso   1.000  C
  C29      1.0000 0.86470  0.78500  0.87369  Biso   1.000  C
  C30      1.0000 0.93690  0.74300  0.82700  Biso   1.000  C
  C31      1.0000 0.73080  0.01160  0.08710  Biso   1.000  C
  C32      1.0000 0.67050  0.92350  0.11860  Biso   1.000  C
  C33      1.0000 0.63090  0.95620  0.17170  Biso   1.000  C
  C34      1.0000 0.37060  0.57580  0.94799  Biso   1.000  C
  C35      1.0000 0.42510  0.63790  0.98747  Biso   1.000  C
  C36      1.0000 0.38930  0.62010  0.03763  Biso   1.000  C
  C37      1.0000 0.29570  0.54020  0.04950  Biso   1.000  C
  C38      1.0000 0.23840  0.48080  0.01000  Biso   1.000  C
  C39      1.0000 0.27690  0.49820  0.96046  Biso   1.000  C
  C40      1.0000 0.33770  0.65900  0.86943  Biso   1.000  C
  C41      1.0000 0.40930  0.67510  0.81925  Biso   1.000  C
  C42      1.0000 0.25800  0.51390  0.10310  Biso   1.000  C
  C43      1.0000 0.20830  0.60410  0.13520  Biso   1.000  C
  C44      1.0000 0.18140  0.57520  0.18930  Biso   1.000  C
  C45      1.0000 0.61240  0.40500  0.44163  Biso   1.000  C
  C46      1.0000 0.70820  0.48670  0.44566  Biso   1.000  C
  C47      1.0000 0.76060  0.51950  0.49223  Biso   1.000  C
  C48      1.0000 0.71630  0.47340  0.53637  Biso   1.000  C
  C49      1.0000 0.61800  0.39360  0.53297  Biso   1.000  C
  C50      1.0000 0.56830  0.35890  0.48614  Biso   1.000  C
  C51      1.0000 0.63530  0.28500  0.37369  Biso   1.000  C
  C52      1.0000 0.56310  0.24300  0.32700  Biso   1.000  C
  C53      1.0000 0.76920  0.51160  0.58710  Biso   1.000  C
  C54      1.0000 0.82950  0.42350  0.61860  Biso   1.000  C
  C55      1.0000 0.86910  0.45620  0.67170  Biso   1.000  C
  C56      1.0000 0.12940  0.07580  0.44799  Biso   1.000  C
  C57      1.0000 0.07490  0.13790  0.48747  Biso   1.000  C
  C58      1.0000 0.11070  0.12010  0.53763  Biso   1.000  C
  C59      1.0000 0.20430  0.04020  0.54950  Biso   1.000  C
  C60      1.0000 0.26160  0.98080  0.51000  Biso   1.000  C
  C61      1.0000 0.22310  0.99820  0.46046  Biso   1.000  C
  C62      1.0000 0.16230  0.15900  0.36943  Biso   1.000  C
  C63      1.0000 0.09070  0.17510  0.31925  Biso   1.000  C
  C64      1.0000 0.24200  0.01390  0.60310  Biso   1.000  C
  C65      1.0000 0.29170  0.10410  0.63520  Biso   1.000  C
  C66      1.0000 0.31860  0.07520  0.68930  Biso   1.000  C
  C67      1.0000 0.11240  0.09500  0.05837  Biso   1.000  C
  C68      1.0000 0.20820  0.01330  0.05434  Biso   1.000  C
  C69      1.0000 0.26060  0.98050  0.00777  Biso   1.000  C
  C70      1.0000 0.21630  0.02660  0.96363  Biso   1.000  C
  C71      1.0000 0.11800  0.10640  0.96703  Biso   1.000  C
  C72      1.0000 0.06830  0.14110  0.01386  Biso   1.000  C
  C73      1.0000 0.13530  0.21500  0.12631  Biso   1.000  C
  C74      1.0000 0.06310  0.25700  0.17300  Biso   1.000  C
  C75      1.0000 0.26920  0.98840  0.91290  Biso   1.000  C
  C76      1.0000 0.32950  0.07650  0.88140  Biso   1.000  C
  C77      1.0000 0.36910  0.04380  0.82830  Biso   1.000  C
  C78      1.0000 0.62940  0.42420  0.05201  Biso   1.000  C
  C79      1.0000 0.57490  0.36210  0.01253  Biso   1.000  C
  C80      1.0000 0.61070  0.37990  0.96237  Biso   1.000  C
  C81      1.0000 0.70430  0.45980  0.95050  Biso   1.000  C
  C82      1.0000 0.76160  0.51920  0.99000  Biso   1.000  C
  C83      1.0000 0.72310  0.50180  0.03954  Biso   1.000  C
  C84      1.0000 0.66230  0.34100  0.13057  Biso   1.000  C
  C85      1.0000 0.59070  0.32490  0.18075  Biso   1.000  C
  C86      1.0000 0.74200  0.48610  0.89690  Biso   1.000  C
  C87      1.0000 0.79170  0.39590  0.86480  Biso   1.000  C
  C88      1.0000 0.81860  0.42480  0.81070  Biso   1.000  C
  I1       1.0000 0.57661  0.76343  0.51716  Biso   1.000  I
  I2       1.0000 0.23583  0.43409  0.61990  Biso   1.000  I
  I3       1.0000 0.06241  0.73994  0.52831  Biso   1.000  I
  I4       1.0000 0.69627  0.10227  0.59664  Biso   1.000  I
  I5       1.0000 0.07661  0.73657  0.98284  Biso   1.000  I
  I6       1.0000 0.73583  0.06591  0.88010  Biso   1.000  I
  I7       1.0000 0.56241  0.76006  0.97169  Biso   1.000  I
  I8       1.0000 0.19627  0.39773  0.90336  Biso   1.000  I
  I9       1.0000 0.42339  0.23657  0.48284  Biso   1.000  I
  I10      1.0000 0.76417  0.56591  0.38010  Biso   1.000  I
  I11      1.0000 0.93759  0.26006  0.47169  Biso   1.000  I
  I12      1.0000 0.30373  0.89773  0.40336  Biso   1.000  I
  I13      1.0000 0.92339  0.26343  0.01716  Biso   1.000  I
  I14      1.0000 0.26417  0.93409  0.11990  Biso   1.000  I
  I15      1.0000 0.43759  0.23994  0.02831  Biso   1.000  I
  I16      1.0000 0.80373  0.60227  0.09664  Biso   1.000  I
  O1       1.0000 0.44060  0.62700  0.60463  Biso   1.000  O
  O2       1.0000 0.37680  0.83470  0.69488  Biso   1.000  O
  O3       1.0000 0.54640  0.71500  0.68687  Biso   1.000  O
  O4       1.0000 0.15210  0.45480  0.31084  Biso   1.000  O
  O5       1.0000 0.07650  0.61900  0.30295  Biso   1.000  O
  O6       1.0000 0.91600  0.91370  0.60095  Biso   1.000  O
  O7       1.0000 0.01910  0.87110  0.69080  Biso   1.000  O
  O8       1.0000 0.84990  0.76070  0.70880  Biso   1.000  O
  O9       1.0000 0.77030  0.97410  0.28671  Biso   1.000  O
  O10      1.0000 0.56700  0.89610  0.29126  Biso   1.000  O
  O11      1.0000 0.14220  0.67950  0.71831  Biso   1.000  O
  O12      1.0000 0.04850  0.99350  0.79544  Biso   1.000  O
  O13      1.0000 0.94060  0.87300  0.89537  Biso   1.000  O
  O14      1.0000 0.87680  0.66530  0.80512  Biso   1.000  O
  O15      1.0000 0.04640  0.78500  0.81313  Biso   1.000  O
  O16      1.0000 0.65210  0.04520  0.18916  Biso   1.000  O
  O17      1.0000 0.57650  0.88100  0.19705  Biso   1.000  O
  O18      1.0000 0.41600  0.58630  0.89905  Biso   1.000  O
  O19      1.0000 0.51910  0.62890  0.80920  Biso   1.000  O
  O20      1.0000 0.34990  0.73930  0.79120  Biso   1.000  O
  O21      1.0000 0.27030  0.52590  0.21329  Biso   1.000  O
  O22      1.0000 0.06700  0.60390  0.20874  Biso   1.000  O
  O23      1.0000 0.64220  0.82050  0.78169  Biso   1.000  O
  O24      1.0000 0.54850  0.50650  0.70456  Biso   1.000  O
  O25      1.0000 0.55940  0.37300  0.39537  Biso   1.000  O
  O26      1.0000 0.62320  0.16530  0.30512  Biso   1.000  O
  O27      1.0000 0.45360  0.28500  0.31313  Biso   1.000  O
  O28      1.0000 0.84790  0.54520  0.68916  Biso   1.000  O
  O29      1.0000 0.92350  0.38100  0.69705  Biso   1.000  O
  O30      1.0000 0.08400  0.08630  0.39905  Biso   1.000  O
  O31      1.0000 0.98090  0.12890  0.30920  Biso   1.000  O
  O32      1.0000 0.15010  0.23930  0.29120  Biso   1.000  O
  O33      1.0000 0.22970  0.02590  0.71329  Biso   1.000  O
  O34      1.0000 0.43300  0.10390  0.70874  Biso   1.000  O
  O35      1.0000 0.85780  0.32050  0.28169  Biso   1.000  O
  O36      1.0000 0.95150  0.00650  0.20456  Biso   1.000  O
  O37      1.0000 0.05940  0.12700  0.10463  Biso   1.000  O
  O38      1.0000 0.12320  0.33470  0.19488  Biso   1.000  O
  O39      1.0000 0.95360  0.21500  0.18687  Biso   1.000  O
  O40      1.0000 0.34790  0.95480  0.81084  Biso   1.000  O
  O41      1.0000 0.42350  0.11900  0.80295  Biso   1.000  O
  O42      1.0000 0.58400  0.41370  0.10095  Biso   1.000  O
  O43      1.0000 0.48090  0.37110  0.19080  Biso   1.000  O
  O44      1.0000 0.65010  0.26070  0.20880  Biso   1.000  O
  O45      1.0000 0.72970  0.47410  0.78671  Biso   1.000  O
  O46      1.0000 0.93300  0.39610  0.79126  Biso   1.000  O
  O47      1.0000 0.35780  0.17950  0.21831  Biso   1.000  O
  O48      1.0000 0.45150  0.49350  0.29544  Biso   1.000  O
