data_image0
_cell_length_a       13.5703
_cell_length_b       14.408
_cell_length_c       19.4879
_cell_angle_alpha    93.937
_cell_angle_beta     109.856
_cell_angle_gamma    93.505

_symmetry_space_group_name_H-M    P 1
_symmetry_int_tables_number       1

loop_
  _symmetry_equiv_pos_as_xyz
  'x, y, z'

loop_
  _atom_site_label
  _atom_site_occupancy
  _atom_site_fract_x
  _atom_site_fract_y
  _atom_site_fract_z
  _atom_site_thermal_displace_type
  _atom_site_B_iso_or_equiv
  _atom_site_type_symbol
  Cd1      1.0000 0.94210  0.45471  0.20141  Biso   1.000  Cd
  Cd2      1.0000 0.47166  0.88508  0.59158  Biso   1.000  Cd
  Cd3      1.0000 0.05790  0.54529  0.79859  Biso   1.000  Cd
  Cd4      1.0000 0.52834  0.11492  0.40842  Biso   1.000  Cd
  H1       1.0000 0.17210  0.43410  0.16940  Biso   1.000  H
  H2       1.0000 0.89490  0.40280  0.01450  Biso   1.000  H
  H3       1.0000 0.01720  0.33200  0.96080  Biso   1.000  H
  H4       1.0000 0.20200  0.35040  0.95410  Biso   1.000  H
  H5       1.0000 0.46810  0.22670  0.05630  Biso   1.000  H
  H6       1.0000 0.28300  0.30840  0.17000  Biso   1.000  H
  H7       1.0000 0.36730  0.17560  0.24350  Biso   1.000  H
  H8       1.0000 0.61020  0.26000  0.18380  Biso   1.000  H
  H9       1.0000 0.67760  0.19820  0.30480  Biso   1.000  H
  H10      1.0000 0.22580  0.31130  0.84960  Biso   1.000  H
  H11      1.0000 0.47640  0.22020  0.82110  Biso   1.000  H
  H12      1.0000 0.50780  0.23170  0.95070  Biso   1.000  H
  H13      1.0000 0.09130  0.44780  0.38040  Biso   1.000  H
  H14      1.0000 0.12430  0.26980  0.22780  Biso   1.000  H
  H15      1.0000 0.24700  0.23450  0.34820  Biso   1.000  H
  H16      1.0000 0.26650  0.60090  0.60990  Biso   1.000  H
  H17      1.0000 0.18320  0.66990  0.69190  Biso   1.000  H
  H18      1.0000 0.15670  0.39690  0.70280  Biso   1.000  H
  H19      1.0000 0.20360  0.46910  0.50230  Biso   1.000  H
  H20      1.0000 0.26520  0.19970  0.46720  Biso   1.000  H
  H21      1.0000 0.30340  0.31040  0.67350  Biso   1.000  H
  H22      1.0000 0.38970  0.09570  0.53160  Biso   1.000  H
  H23      1.0000 0.28130  0.14430  0.69400  Biso   1.000  H
  H24      1.0000 0.35130  0.99160  0.70490  Biso   1.000  H
  H25      1.0000 0.82790  0.56590  0.83060  Biso   1.000  H
  H26      1.0000 0.10510  0.59720  0.98550  Biso   1.000  H
  H27      1.0000 0.98280  0.66800  0.03920  Biso   1.000  H
  H28      1.0000 0.79800  0.64960  0.04590  Biso   1.000  H
  H29      1.0000 0.53190  0.77330  0.94370  Biso   1.000  H
  H30      1.0000 0.71700  0.69160  0.83000  Biso   1.000  H
  H31      1.0000 0.63270  0.82440  0.75650  Biso   1.000  H
  H32      1.0000 0.38980  0.74000  0.81620  Biso   1.000  H
  H33      1.0000 0.32240  0.80180  0.69520  Biso   1.000  H
  H34      1.0000 0.77420  0.68870  0.15040  Biso   1.000  H
  H35      1.0000 0.52360  0.77980  0.17890  Biso   1.000  H
  H36      1.0000 0.49220  0.76830  0.04930  Biso   1.000  H
  H37      1.0000 0.90870  0.55220  0.61960  Biso   1.000  H
  H38      1.0000 0.87570  0.73020  0.77220  Biso   1.000  H
  H39      1.0000 0.75300  0.76550  0.65180  Biso   1.000  H
  H40      1.0000 0.73350  0.39910  0.39010  Biso   1.000  H
  H41      1.0000 0.81680  0.33010  0.30810  Biso   1.000  H
  H42      1.0000 0.84330  0.60310  0.29720  Biso   1.000  H
  H43      1.0000 0.79640  0.53090  0.49770  Biso   1.000  H
  H44      1.0000 0.73480  0.80030  0.53280  Biso   1.000  H
  H45      1.0000 0.69660  0.68960  0.32650  Biso   1.000  H
  H46      1.0000 0.61030  0.90430  0.46840  Biso   1.000  H
  H47      1.0000 0.71870  0.85570  0.30600  Biso   1.000  H
  H48      1.0000 0.64870  0.00840  0.29510  Biso   1.000  H
  C1       1.0000 0.11810  0.41710  0.12500  Biso   1.000  C
  C2       1.0000 0.96630  0.39940  0.03950  Biso   1.000  C
  C3       1.0000 0.03350  0.36010  0.00830  Biso   1.000  C
  C4       1.0000 0.22600  0.33260  0.06250  Biso   1.000  C
  C5       1.0000 0.24680  0.32710  0.99560  Biso   1.000  C
  C6       1.0000 0.33800  0.28490  0.99410  Biso   1.000  C
  C7       1.0000 0.40810  0.25340  0.05780  Biso   1.000  C
  C8       1.0000 0.38740  0.26220  0.12320  Biso   1.000  C
  C9       1.0000 0.29620  0.30230  0.12620  Biso   1.000  C
  C10      1.0000 0.43550  0.18840  0.24390  Biso   1.000  C
  C11      1.0000 0.56990  0.23660  0.21000  Biso   1.000  C
  C12      1.0000 0.60690  0.20060  0.27720  Biso   1.000  C
  C13      1.0000 0.29140  0.28920  0.85770  Biso   1.000  C
  C14      1.0000 0.42900  0.24020  0.84270  Biso   1.000  C
  C15      1.0000 0.44660  0.24530  0.91460  Biso   1.000  C
  C16      1.0000 0.11490  0.40010  0.35710  Biso   1.000  C
  C17      1.0000 0.13360  0.30180  0.27300  Biso   1.000  C
  C18      1.0000 0.20130  0.28140  0.34050  Biso   1.000  C
  C19      1.0000 0.23480  0.56920  0.63810  Biso   1.000  C
  C20      1.0000 0.18840  0.60630  0.68370  Biso   1.000  C
  C21      1.0000 0.17320  0.45550  0.69030  Biso   1.000  C
  C22      1.0000 0.24680  0.39900  0.59630  Biso   1.000  C
  C23      1.0000 0.22260  0.41210  0.52000  Biso   1.000  C
  C24      1.0000 0.22870  0.33620  0.47370  Biso   1.000  C
  C25      1.0000 0.26210  0.24960  0.49910  Biso   1.000  C
  C26      1.0000 0.29060  0.24250  0.57590  Biso   1.000  C
  C27      1.0000 0.28350  0.31640  0.62350  Biso   1.000  C
  C28      1.0000 0.37160  0.08840  0.57300  Biso   1.000  C
  C29      1.0000 0.31150  0.11620  0.66260  Biso   1.000  C
  C30      1.0000 0.35020  0.03090  0.66880  Biso   1.000  C
  C31      1.0000 0.46490  0.69340  0.54100  Biso   1.000  C
  C32      1.0000 0.48270  0.59370  0.51990  Biso   1.000  C
  C33      1.0000 0.51800  0.52970  0.57370  Biso   1.000  C
  C34      1.0000 0.53440  0.43660  0.55400  Biso   1.000  C
  C35      1.0000 0.69830  0.41920  0.08530  Biso   1.000  C
  C36      1.0000 0.59550  0.46280  0.04060  Biso   1.000  C
  C37      1.0000 0.52780  0.49300  0.07530  Biso   1.000  C
  C38      1.0000 0.43320  0.53080  0.03520  Biso   1.000  C
  C39      1.0000 0.02090  0.66690  0.23460  Biso   1.000  C
  C40      1.0000 0.09620  0.75350  0.26850  Biso   1.000  C
  C41      1.0000 0.18500  0.76960  0.24890  Biso   1.000  C
  C42      1.0000 0.27280  0.83820  0.29790  Biso   1.000  C
  C43      1.0000 0.26840  0.88820  0.35700  Biso   1.000  C
  C44      1.0000 0.16850  0.87660  0.37310  Biso   1.000  C
  C45      1.0000 0.07770  0.81870  0.31950  Biso   1.000  C
  C46      1.0000 0.35910  0.95620  0.40860  Biso   1.000  C
  C47      1.0000 0.88190  0.58290  0.87500  Biso   1.000  C
  C48      1.0000 0.03370  0.60060  0.96050  Biso   1.000  C
  C49      1.0000 0.96650  0.63990  0.99170  Biso   1.000  C
  C50      1.0000 0.77400  0.66740  0.93750  Biso   1.000  C
  C51      1.0000 0.75320  0.67290  0.00440  Biso   1.000  C
  C52      1.0000 0.66200  0.71510  0.00590  Biso   1.000  C
  C53      1.0000 0.59190  0.74660  0.94220  Biso   1.000  C
  C54      1.0000 0.61260  0.73780  0.87680  Biso   1.000  C
  C55      1.0000 0.70380  0.69770  0.87380  Biso   1.000  C
  C56      1.0000 0.56450  0.81160  0.75610  Biso   1.000  C
  C57      1.0000 0.43010  0.76340  0.79000  Biso   1.000  C
  C58      1.0000 0.39310  0.79940  0.72280  Biso   1.000  C
  C59      1.0000 0.70860  0.71080  0.14230  Biso   1.000  C
  C60      1.0000 0.57100  0.75980  0.15730  Biso   1.000  C
  C61      1.0000 0.55340  0.75470  0.08540  Biso   1.000  C
  C62      1.0000 0.88510  0.59990  0.64290  Biso   1.000  C
  C63      1.0000 0.86640  0.69820  0.72700  Biso   1.000  C
  C64      1.0000 0.79870  0.71860  0.65950  Biso   1.000  C
  C65      1.0000 0.76520  0.43080  0.36190  Biso   1.000  C
  C66      1.0000 0.81160  0.39370  0.31630  Biso   1.000  C
  C67      1.0000 0.82680  0.54450  0.30970  Biso   1.000  C
  C68      1.0000 0.75320  0.60100  0.40370  Biso   1.000  C
  C69      1.0000 0.77740  0.58790  0.48000  Biso   1.000  C
  C70      1.0000 0.77130  0.66380  0.52630  Biso   1.000  C
  C71      1.0000 0.73790  0.75040  0.50090  Biso   1.000  C
  C72      1.0000 0.70940  0.75750  0.42410  Biso   1.000  C
  C73      1.0000 0.71650  0.68360  0.37650  Biso   1.000  C
  C74      1.0000 0.62840  0.91160  0.42700  Biso   1.000  C
  C75      1.0000 0.68850  0.88380  0.33740  Biso   1.000  C
  C76      1.0000 0.64980  0.96910  0.33120  Biso   1.000  C
  C77      1.0000 0.53510  0.30660  0.45900  Biso   1.000  C
  C78      1.0000 0.51730  0.40630  0.48010  Biso   1.000  C
  C79      1.0000 0.48200  0.47030  0.42630  Biso   1.000  C
  C80      1.0000 0.46560  0.56340  0.44600  Biso   1.000  C
  C81      1.0000 0.30170  0.58080  0.91470  Biso   1.000  C
  C82      1.0000 0.40450  0.53720  0.95940  Biso   1.000  C
  C83      1.0000 0.47220  0.50700  0.92470  Biso   1.000  C
  C84      1.0000 0.56680  0.46920  0.96480  Biso   1.000  C
  C85      1.0000 0.97910  0.33310  0.76540  Biso   1.000  C
  C86      1.0000 0.90380  0.24650  0.73150  Biso   1.000  C
  C87      1.0000 0.81500  0.23040  0.75110  Biso   1.000  C
  C88      1.0000 0.72720  0.16180  0.70210  Biso   1.000  C
  C89      1.0000 0.73160  0.11180  0.64300  Biso   1.000  C
  C90      1.0000 0.83150  0.12340  0.62690  Biso   1.000  C
  C91      1.0000 0.92230  0.18130  0.68050  Biso   1.000  C
  C92      1.0000 0.64090  0.04380  0.59140  Biso   1.000  C
  Br1      1.0000 0.53743  0.57027  0.67378  Biso   1.000  Br
  Br2      1.0000 0.57841  0.34980  0.62642  Biso   1.000  Br
  Br3      1.0000 0.56472  0.48502  0.17980  Biso   1.000  Br
  Br4      1.0000 0.34089  0.57627  0.08401  Biso   1.000  Br
  Br5      1.0000 0.95519  0.79850  0.34525  Biso   1.000  Br
  Br6      1.0000 0.15620  0.95880  0.45130  Biso   1.000  Br
  Br7      1.0000 0.20794  0.68307  0.17968  Biso   1.000  Br
  Br8      1.0000 0.39640  0.85960  0.27071  Biso   1.000  Br
  Br9      1.0000 0.46257  0.42973  0.32622  Biso   1.000  Br
  Br10     1.0000 0.42159  0.65020  0.37358  Biso   1.000  Br
  Br11     1.0000 0.43528  0.51498  0.82020  Biso   1.000  Br
  Br12     1.0000 0.65911  0.42373  0.91599  Biso   1.000  Br
  Br13     1.0000 0.04481  0.20150  0.65475  Biso   1.000  Br
  Br14     1.0000 0.84380  0.04120  0.54870  Biso   1.000  Br
  Br15     1.0000 0.79206  0.31693  0.82032  Biso   1.000  Br
  Br16     1.0000 0.60360  0.14040  0.72929  Biso   1.000  Br
  N1       1.0000 0.01720  0.43300  0.11190  Biso   1.000  N
  N2       1.0000 0.13170  0.37220  0.06440  Biso   1.000  N
  N3       1.0000 0.35840  0.27420  0.92570  Biso   1.000  N
  N4       1.0000 0.33000  0.26880  0.80390  Biso   1.000  N
  N5       1.0000 0.46040  0.23090  0.18900  Biso   1.000  N
  N6       1.0000 0.52250  0.16820  0.29760  Biso   1.000  N
  N7       1.0000 0.08110  0.38000  0.28500  Biso   1.000  N
  N8       1.0000 0.18920  0.34230  0.39380  Biso   1.000  N
  N9       1.0000 0.22460  0.47170  0.64250  Biso   1.000  N
  N10      1.0000 0.14940  0.53750  0.71700  Biso   1.000  N
  N11      1.0000 0.32370  0.15440  0.60320  Biso   1.000  N
  N12      1.0000 0.38850  0.01310  0.61050  Biso   1.000  N
  N13      1.0000 0.98280  0.56700  0.88810  Biso   1.000  N
  N14      1.0000 0.86830  0.62780  0.93560  Biso   1.000  N
  N15      1.0000 0.64160  0.72580  0.07430  Biso   1.000  N
  N16      1.0000 0.67000  0.73120  0.19610  Biso   1.000  N
  N17      1.0000 0.53960  0.76910  0.81100  Biso   1.000  N
  N18      1.0000 0.47750  0.83180  0.70240  Biso   1.000  N
  N19      1.0000 0.91890  0.62000  0.71500  Biso   1.000  N
  N20      1.0000 0.81080  0.65770  0.60620  Biso   1.000  N
  N21      1.0000 0.77540  0.52830  0.35750  Biso   1.000  N
  N22      1.0000 0.85060  0.46250  0.28300  Biso   1.000  N
  N23      1.0000 0.67630  0.84560  0.39680  Biso   1.000  N
  N24      1.0000 0.61150  0.98690  0.38950  Biso   1.000  N
  O1       1.0000 0.78100  0.47260  0.10790  Biso   1.000  O
  O2       1.0000 0.68740  0.33210  0.08980  Biso   1.000  O
  O3       1.0000 0.04010  0.59590  0.27030  Biso   1.000  O
  O4       1.0000 0.95070  0.67200  0.17210  Biso   1.000  O
  O5       1.0000 0.54370  0.75360  0.56070  Biso   1.000  O
  O6       1.0000 0.37370  0.71090  0.53880  Biso   1.000  O
  O7       1.0000 0.36730  0.03370  0.38690  Biso   1.000  O
  O8       1.0000 0.40780  0.91580  0.46610  Biso   1.000  O
  O9       1.0000 0.21900  0.52740  0.89210  Biso   1.000  O
  O10      1.0000 0.31260  0.66790  0.91020  Biso   1.000  O
  O11      1.0000 0.95990  0.40410  0.72970  Biso   1.000  O
  O12      1.0000 0.04930  0.32800  0.82790  Biso   1.000  O
  O13      1.0000 0.45630  0.24640  0.43930  Biso   1.000  O
  O14      1.0000 0.62630  0.28910  0.46120  Biso   1.000  O
  O15      1.0000 0.63270  0.96630  0.61310  Biso   1.000  O
  O16      1.0000 0.59220  0.08420  0.53390  Biso   1.000  O
