data_image0
_cell_length_a       7.903
_cell_length_b       10.5379
_cell_length_c       32.858
_cell_angle_alpha    90
_cell_angle_beta     90
_cell_angle_gamma    99.607

_symmetry_space_group_name_H-M    P 1
_symmetry_int_tables_number       1

loop_
  _symmetry_equiv_pos_as_xyz
  'x, y, z'

loop_
  _atom_site_label
  _atom_site_occupancy
  _atom_site_fract_x
  _atom_site_fract_y
  _atom_site_fract_z
  _atom_site_thermal_displace_type
  _atom_site_B_iso_or_equiv
  _atom_site_type_symbol
  Co1      1.0000 0.05326  0.48049  0.25018  Biso   1.000  Co
  Co2      1.0000 0.44674  0.51951  0.75018  Biso   1.000  Co
  Co3      1.0000 0.94674  0.51951  0.74982  Biso   1.000  Co
  Co4      1.0000 0.55326  0.48049  0.24982  Biso   1.000  Co
  Co5      1.0000 0.50000  0.50000  0.50000  Biso   1.000  Co
  Co6      1.0000 0.00000  0.50000  0.00000  Biso   1.000  Co
  Co7      1.0000 0.00000  0.50000  0.50000  Biso   1.000  Co
  Co8      1.0000 0.50000  0.50000  0.00000  Biso   1.000  Co
  H1       1.0000 0.91380  0.06990  0.23840  Biso   1.000  H
  H2       1.0000 0.74350  0.87000  0.23890  Biso   1.000  H
  H3       1.0000 0.63890  0.91640  0.51050  Biso   1.000  H
  H4       1.0000 0.80370  0.11880  0.51000  Biso   1.000  H
  H5       1.0000 0.82850  0.54530  0.20590  Biso   1.000  H
  H6       1.0000 0.77370  0.41060  0.20870  Biso   1.000  H
  H7       1.0000 0.22180  0.35050  0.20830  Biso   1.000  H
  H8       1.0000 0.10490  0.38190  0.18050  Biso   1.000  H
  H9       1.0000 0.01100  0.59890  0.31840  Biso   1.000  H
  H10      1.0000 0.88650  0.62290  0.29080  Biso   1.000  H
  H11      1.0000 0.50380  0.32450  0.44640  Biso   1.000  H
  H12      1.0000 0.67650  0.37520  0.45430  Biso   1.000  H
  H13      1.0000 0.23150  0.43760  0.45690  Biso   1.000  H
  H14      1.0000 0.28080  0.57280  0.45700  Biso   1.000  H
  H15      1.0000 0.95990  0.62830  0.43340  Biso   1.000  H
  H16      1.0000 0.83620  0.64640  0.46240  Biso   1.000  H
  H17      1.0000 0.58620  0.93010  0.73840  Biso   1.000  H
  H18      1.0000 0.75650  0.13000  0.73890  Biso   1.000  H
  H19      1.0000 0.86110  0.08360  0.01050  Biso   1.000  H
  H20      1.0000 0.69630  0.88120  0.01000  Biso   1.000  H
  H21      1.0000 0.67150  0.45470  0.70590  Biso   1.000  H
  H22      1.0000 0.72630  0.58940  0.70870  Biso   1.000  H
  H23      1.0000 0.27820  0.64950  0.70830  Biso   1.000  H
  H24      1.0000 0.39510  0.61810  0.68050  Biso   1.000  H
  H25      1.0000 0.48900  0.40110  0.81840  Biso   1.000  H
  H26      1.0000 0.61350  0.37710  0.79080  Biso   1.000  H
  H27      1.0000 0.99620  0.67550  0.94640  Biso   1.000  H
  H28      1.0000 0.82350  0.62480  0.95430  Biso   1.000  H
  H29      1.0000 0.26850  0.56240  0.95690  Biso   1.000  H
  H30      1.0000 0.21920  0.42720  0.95700  Biso   1.000  H
  H31      1.0000 0.54010  0.37170  0.93340  Biso   1.000  H
  H32      1.0000 0.66380  0.35360  0.96240  Biso   1.000  H
  H33      1.0000 0.08620  0.93010  0.76160  Biso   1.000  H
  H34      1.0000 0.25650  0.13000  0.76110  Biso   1.000  H
  H35      1.0000 0.36110  0.08360  0.48950  Biso   1.000  H
  H36      1.0000 0.19630  0.88120  0.49000  Biso   1.000  H
  H37      1.0000 0.17150  0.45470  0.79410  Biso   1.000  H
  H38      1.0000 0.22630  0.58940  0.79130  Biso   1.000  H
  H39      1.0000 0.77820  0.64950  0.79170  Biso   1.000  H
  H40      1.0000 0.89510  0.61810  0.81950  Biso   1.000  H
  H41      1.0000 0.98900  0.40110  0.68160  Biso   1.000  H
  H42      1.0000 0.11350  0.37710  0.70920  Biso   1.000  H
  H43      1.0000 0.49620  0.67550  0.55360  Biso   1.000  H
  H44      1.0000 0.32350  0.62480  0.54570  Biso   1.000  H
  H45      1.0000 0.76850  0.56240  0.54310  Biso   1.000  H
  H46      1.0000 0.71920  0.42720  0.54300  Biso   1.000  H
  H47      1.0000 0.04010  0.37170  0.56660  Biso   1.000  H
  H48      1.0000 0.16380  0.35360  0.53760  Biso   1.000  H
  H49      1.0000 0.41380  0.06990  0.26160  Biso   1.000  H
  H50      1.0000 0.24350  0.87000  0.26110  Biso   1.000  H
  H51      1.0000 0.13890  0.91640  0.98950  Biso   1.000  H
  H52      1.0000 0.30370  0.11880  0.99000  Biso   1.000  H
  H53      1.0000 0.32850  0.54530  0.29410  Biso   1.000  H
  H54      1.0000 0.27370  0.41060  0.29130  Biso   1.000  H
  H55      1.0000 0.72180  0.35050  0.29170  Biso   1.000  H
  H56      1.0000 0.60490  0.38190  0.31950  Biso   1.000  H
  H57      1.0000 0.51100  0.59890  0.18160  Biso   1.000  H
  H58      1.0000 0.38650  0.62290  0.20920  Biso   1.000  H
  H59      1.0000 0.00380  0.32450  0.05360  Biso   1.000  H
  H60      1.0000 0.17650  0.37520  0.04570  Biso   1.000  H
  H61      1.0000 0.73150  0.43760  0.04310  Biso   1.000  H
  H62      1.0000 0.78080  0.57280  0.04300  Biso   1.000  H
  H63      1.0000 0.45990  0.62830  0.06660  Biso   1.000  H
  H64      1.0000 0.33620  0.64640  0.03760  Biso   1.000  H
  C1       1.0000 0.90760  0.10280  0.29894  Biso   1.000  C
  C2       1.0000 0.87040  0.03430  0.26291  Biso   1.000  C
  C3       1.0000 0.76940  0.91380  0.26333  Biso   1.000  C
  C4       1.0000 0.70580  0.85700  0.29971  Biso   1.000  C
  C5       1.0000 0.74670  0.92330  0.33628  Biso   1.000  C
  C6       1.0000 0.70140  0.85860  0.37567  Biso   1.000  C
  C7       1.0000 0.71870  0.93630  0.41366  Biso   1.000  C
  C8       1.0000 0.65150  0.88150  0.45018  Biso   1.000  C
  C9       1.0000 0.68380  0.95170  0.48603  Biso   1.000  C
  C10      1.0000 0.78210  0.07370  0.48570  Biso   1.000  C
  C11      1.0000 0.84860  0.12910  0.44957  Biso   1.000  C
  C12      1.0000 0.81430  0.06140  0.41313  Biso   1.000  C
  C13      1.0000 0.87070  0.12500  0.37384  Biso   1.000  C
  C14      1.0000 0.84440  0.04800  0.33577  Biso   1.000  C
  C15      1.0000 0.01960  0.23390  0.29600  Biso   1.000  C
  C16      1.0000 0.59070  0.72700  0.29742  Biso   1.000  C
  C17      1.0000 0.54120  0.75030  0.45319  Biso   1.000  C
  C18      1.0000 0.96420  0.25820  0.45291  Biso   1.000  C
  C19      1.0000 0.59240  0.89720  0.79894  Biso   1.000  C
  C20      1.0000 0.62960  0.96570  0.76291  Biso   1.000  C
  C21      1.0000 0.73060  0.08620  0.76333  Biso   1.000  C
  C22      1.0000 0.79420  0.14300  0.79971  Biso   1.000  C
  C23      1.0000 0.75330  0.07670  0.83628  Biso   1.000  C
  C24      1.0000 0.79860  0.14140  0.87567  Biso   1.000  C
  C25      1.0000 0.78130  0.06370  0.91366  Biso   1.000  C
  C26      1.0000 0.84850  0.11850  0.95018  Biso   1.000  C
  C27      1.0000 0.81620  0.04830  0.98603  Biso   1.000  C
  C28      1.0000 0.71790  0.92630  0.98570  Biso   1.000  C
  C29      1.0000 0.65140  0.87090  0.94957  Biso   1.000  C
  C30      1.0000 0.68570  0.93860  0.91313  Biso   1.000  C
  C31      1.0000 0.62930  0.87500  0.87384  Biso   1.000  C
  C32      1.0000 0.65560  0.95200  0.83577  Biso   1.000  C
  C33      1.0000 0.48040  0.76610  0.79600  Biso   1.000  C
  C34      1.0000 0.90930  0.27300  0.79742  Biso   1.000  C
  C35      1.0000 0.95880  0.24970  0.95319  Biso   1.000  C
  C36      1.0000 0.53580  0.74180  0.95291  Biso   1.000  C
  C37      1.0000 0.09240  0.89720  0.70106  Biso   1.000  C
  C38      1.0000 0.12960  0.96570  0.73709  Biso   1.000  C
  C39      1.0000 0.23060  0.08620  0.73667  Biso   1.000  C
  C40      1.0000 0.29420  0.14300  0.70029  Biso   1.000  C
  C41      1.0000 0.25330  0.07670  0.66372  Biso   1.000  C
  C42      1.0000 0.29860  0.14140  0.62433  Biso   1.000  C
  C43      1.0000 0.28130  0.06370  0.58634  Biso   1.000  C
  C44      1.0000 0.34850  0.11850  0.54982  Biso   1.000  C
  C45      1.0000 0.31620  0.04830  0.51397  Biso   1.000  C
  C46      1.0000 0.21790  0.92630  0.51430  Biso   1.000  C
  C47      1.0000 0.15140  0.87090  0.55043  Biso   1.000  C
  C48      1.0000 0.18570  0.93860  0.58687  Biso   1.000  C
  C49      1.0000 0.12930  0.87500  0.62616  Biso   1.000  C
  C50      1.0000 0.15560  0.95200  0.66423  Biso   1.000  C
  C51      1.0000 0.98040  0.76610  0.70400  Biso   1.000  C
  C52      1.0000 0.40930  0.27300  0.70258  Biso   1.000  C
  C53      1.0000 0.45880  0.24970  0.54681  Biso   1.000  C
  C54      1.0000 0.03580  0.74180  0.54709  Biso   1.000  C
  C55      1.0000 0.40760  0.10280  0.20106  Biso   1.000  C
  C56      1.0000 0.37040  0.03430  0.23709  Biso   1.000  C
  C57      1.0000 0.26940  0.91380  0.23667  Biso   1.000  C
  C58      1.0000 0.20580  0.85700  0.20029  Biso   1.000  C
  C59      1.0000 0.24670  0.92330  0.16372  Biso   1.000  C
  C60      1.0000 0.20140  0.85860  0.12433  Biso   1.000  C
  C61      1.0000 0.21870  0.93630  0.08634  Biso   1.000  C
  C62      1.0000 0.15150  0.88150  0.04982  Biso   1.000  C
  C63      1.0000 0.18380  0.95170  0.01397  Biso   1.000  C
  C64      1.0000 0.28210  0.07370  0.01430  Biso   1.000  C
  C65      1.0000 0.34860  0.12910  0.05043  Biso   1.000  C
  C66      1.0000 0.31430  0.06140  0.08687  Biso   1.000  C
  C67      1.0000 0.37070  0.12500  0.12616  Biso   1.000  C
  C68      1.0000 0.34440  0.04800  0.16423  Biso   1.000  C
  C69      1.0000 0.51960  0.23390  0.20400  Biso   1.000  C
  C70      1.0000 0.09070  0.72700  0.20258  Biso   1.000  C
  C71      1.0000 0.04120  0.75030  0.04681  Biso   1.000  C
  C72      1.0000 0.46420  0.25820  0.04709  Biso   1.000  C
  O1       1.0000 0.66000  0.74160  0.37771  Biso   1.000  O
  O2       1.0000 0.92880  0.23910  0.37254  Biso   1.000  O
  O3       1.0000 0.94400  0.32240  0.28196  Biso   1.000  O
  O4       1.0000 0.17380  0.24640  0.30451  Biso   1.000  O
  O5       1.0000 0.66260  0.63790  0.28255  Biso   1.000  O
  O6       1.0000 0.43720  0.71520  0.30666  Biso   1.000  O
  O7       1.0000 0.39080  0.73460  0.44059  Biso   1.000  O
  O8       1.0000 0.61110  0.66610  0.47179  Biso   1.000  O
  O9       1.0000 0.11990  0.26580  0.44847  Biso   1.000  O
  O10      1.0000 0.89050  0.35180  0.46405  Biso   1.000  O
  O11      1.0000 0.80370  0.48080  0.22158  Biso   1.000  O
  O12      1.0000 0.11810  0.36040  0.20507  Biso   1.000  O
  O13      1.0000 0.98770  0.60640  0.29335  Biso   1.000  O
  O14      1.0000 0.57530  0.39180  0.45194  Biso   1.000  O
  O15      1.0000 0.25240  0.50540  0.47135  Biso   1.000  O
  O16      1.0000 0.93850  0.63370  0.45867  Biso   1.000  O
  O17      1.0000 0.84000  0.25840  0.87771  Biso   1.000  O
  O18      1.0000 0.57120  0.76090  0.87254  Biso   1.000  O
  O19      1.0000 0.55600  0.67760  0.78196  Biso   1.000  O
  O20      1.0000 0.32620  0.75360  0.80451  Biso   1.000  O
  O21      1.0000 0.83740  0.36210  0.78255  Biso   1.000  O
  O22      1.0000 0.06280  0.28480  0.80666  Biso   1.000  O
  O23      1.0000 0.10920  0.26540  0.94059  Biso   1.000  O
  O24      1.0000 0.88890  0.33390  0.97179  Biso   1.000  O
  O25      1.0000 0.38010  0.73420  0.94847  Biso   1.000  O
  O26      1.0000 0.60950  0.64820  0.96405  Biso   1.000  O
  O27      1.0000 0.69630  0.51920  0.72158  Biso   1.000  O
  O28      1.0000 0.38190  0.63960  0.70507  Biso   1.000  O
  O29      1.0000 0.51230  0.39360  0.79335  Biso   1.000  O
  O30      1.0000 0.92470  0.60820  0.95194  Biso   1.000  O
  O31      1.0000 0.24760  0.49460  0.97135  Biso   1.000  O
  O32      1.0000 0.56150  0.36630  0.95867  Biso   1.000  O
  O33      1.0000 0.34000  0.25840  0.62229  Biso   1.000  O
  O34      1.0000 0.07120  0.76090  0.62746  Biso   1.000  O
  O35      1.0000 0.05600  0.67760  0.71804  Biso   1.000  O
  O36      1.0000 0.82620  0.75360  0.69549  Biso   1.000  O
  O37      1.0000 0.33740  0.36210  0.71745  Biso   1.000  O
  O38      1.0000 0.56280  0.28480  0.69334  Biso   1.000  O
  O39      1.0000 0.60920  0.26540  0.55941  Biso   1.000  O
  O40      1.0000 0.38890  0.33390  0.52821  Biso   1.000  O
  O41      1.0000 0.88010  0.73420  0.55153  Biso   1.000  O
  O42      1.0000 0.10950  0.64820  0.53595  Biso   1.000  O
  O43      1.0000 0.19630  0.51920  0.77842  Biso   1.000  O
  O44      1.0000 0.88190  0.63960  0.79493  Biso   1.000  O
  O45      1.0000 0.01230  0.39360  0.70665  Biso   1.000  O
  O46      1.0000 0.42470  0.60820  0.54806  Biso   1.000  O
  O47      1.0000 0.74760  0.49460  0.52865  Biso   1.000  O
  O48      1.0000 0.06150  0.36630  0.54133  Biso   1.000  O
  O49      1.0000 0.16000  0.74160  0.12229  Biso   1.000  O
  O50      1.0000 0.42880  0.23910  0.12746  Biso   1.000  O
  O51      1.0000 0.44400  0.32240  0.21804  Biso   1.000  O
  O52      1.0000 0.67380  0.24640  0.19549  Biso   1.000  O
  O53      1.0000 0.16260  0.63790  0.21745  Biso   1.000  O
  O54      1.0000 0.93720  0.71520  0.19334  Biso   1.000  O
  O55      1.0000 0.89080  0.73460  0.05941  Biso   1.000  O
  O56      1.0000 0.11110  0.66610  0.02821  Biso   1.000  O
  O57      1.0000 0.61990  0.26580  0.05153  Biso   1.000  O
  O58      1.0000 0.39050  0.35180  0.03595  Biso   1.000  O
  O59      1.0000 0.30370  0.48080  0.27842  Biso   1.000  O
  O60      1.0000 0.61810  0.36040  0.29493  Biso   1.000  O
  O61      1.0000 0.48770  0.60640  0.20665  Biso   1.000  O
  O62      1.0000 0.07530  0.39180  0.04806  Biso   1.000  O
  O63      1.0000 0.75240  0.50540  0.02865  Biso   1.000  O
  O64      1.0000 0.43850  0.63370  0.04133  Biso   1.000  O
