data_image0
_cell_length_a       17.1454
_cell_length_b       17.1454
_cell_length_c       17.1454
_cell_angle_alpha    108.651
_cell_angle_beta     109.883
_cell_angle_gamma    109.883

_symmetry_space_group_name_H-M    P 1
_symmetry_int_tables_number       1

loop_
  _symmetry_equiv_pos_as_xyz
  'x, y, z'

loop_
  _atom_site_label
  _atom_site_occupancy
  _atom_site_fract_x
  _atom_site_fract_y
  _atom_site_fract_z
  _atom_site_thermal_displace_type
  _atom_site_B_iso_or_equiv
  _atom_site_type_symbol
  Mn1      1.0000 0.87710  0.00646  0.91928  Biso   1.000  Mn
  Mn2      1.0000 0.62290  0.54218  0.12936  Biso   1.000  Mn
  Mn3      1.0000 0.91282  0.91928  0.54218  Biso   1.000  Mn
  Mn4      1.0000 0.58718  0.12936  0.00646  Biso   1.000  Mn
  Mn5      1.0000 0.12290  0.99354  0.08072  Biso   1.000  Mn
  Mn6      1.0000 0.37710  0.45782  0.87064  Biso   1.000  Mn
  Mn7      1.0000 0.08718  0.08072  0.45782  Biso   1.000  Mn
  Mn8      1.0000 0.41282  0.87064  0.99354  Biso   1.000  Mn
  H1       1.0000 0.54490  0.78910  0.92120  Biso   1.000  H
  H2       1.0000 0.93410  0.33990  0.97860  Biso   1.000  H
  H3       1.0000 0.08030  0.40290  0.98620  Biso   1.000  H
  H4       1.0000 0.15970  0.31750  0.98100  Biso   1.000  H
  H5       1.0000 0.08500  0.16620  0.95780  Biso   1.000  H
  H6       1.0000 0.73200  0.87700  0.89100  Biso   1.000  H
  H7       1.0000 0.74100  0.82440  0.81740  Biso   1.000  H
  H8       1.0000 0.95510  0.87630  0.24420  Biso   1.000  H
  H9       1.0000 0.56590  0.54450  0.40580  Biso   1.000  H
  H10      1.0000 0.41970  0.40590  0.32260  Biso   1.000  H
  H11      1.0000 0.34030  0.32130  0.15780  Biso   1.000  H
  H12      1.0000 0.41500  0.37280  0.08120  Biso   1.000  H
  H13      1.0000 0.76800  0.65900  0.14500  Biso   1.000  H
  H14      1.0000 0.75900  0.57640  0.08340  Biso   1.000  H
  H15      1.0000 0.13210  0.92120  0.87630  Biso   1.000  H
  H16      1.0000 0.63870  0.97860  0.54450  Biso   1.000  H
  H17      1.0000 0.58330  0.98620  0.40590  Biso   1.000  H
  H18      1.0000 0.66350  0.98100  0.32130  Biso   1.000  H
  H19      1.0000 0.79160  0.95780  0.37280  Biso   1.000  H
  H20      1.0000 0.01400  0.89100  0.65900  Biso   1.000  H
  H21      1.0000 0.99300  0.81740  0.57640  Biso   1.000  H
  H22      1.0000 0.36790  0.24420  0.78910  Biso   1.000  H
  H23      1.0000 0.86130  0.40580  0.33990  Biso   1.000  H
  H24      1.0000 0.91670  0.32260  0.40290  Biso   1.000  H
  H25      1.0000 0.83650  0.15780  0.31750  Biso   1.000  H
  H26      1.0000 0.70840  0.08120  0.16620  Biso   1.000  H
  H27      1.0000 0.48600  0.14500  0.87700  Biso   1.000  H
  H28      1.0000 0.50700  0.08340  0.82440  Biso   1.000  H
  H29      1.0000 0.45510  0.21090  0.07880  Biso   1.000  H
  H30      1.0000 0.06590  0.66010  0.02140  Biso   1.000  H
  H31      1.0000 0.91970  0.59710  0.01380  Biso   1.000  H
  H32      1.0000 0.84030  0.68250  0.01900  Biso   1.000  H
  H33      1.0000 0.91500  0.83380  0.04220  Biso   1.000  H
  H34      1.0000 0.26800  0.12300  0.10900  Biso   1.000  H
  H35      1.0000 0.25900  0.17560  0.18260  Biso   1.000  H
  H36      1.0000 0.04490  0.12370  0.75580  Biso   1.000  H
  H37      1.0000 0.43410  0.45550  0.59420  Biso   1.000  H
  H38      1.0000 0.58030  0.59410  0.67740  Biso   1.000  H
  H39      1.0000 0.65970  0.67870  0.84220  Biso   1.000  H
  H40      1.0000 0.58500  0.62720  0.91880  Biso   1.000  H
  H41      1.0000 0.23200  0.34100  0.85500  Biso   1.000  H
  H42      1.0000 0.24100  0.42360  0.91660  Biso   1.000  H
  H43      1.0000 0.86790  0.07880  0.12370  Biso   1.000  H
  H44      1.0000 0.36130  0.02140  0.45550  Biso   1.000  H
  H45      1.0000 0.41670  0.01380  0.59410  Biso   1.000  H
  H46      1.0000 0.33650  0.01900  0.67870  Biso   1.000  H
  H47      1.0000 0.20840  0.04220  0.62720  Biso   1.000  H
  H48      1.0000 0.98600  0.10900  0.34100  Biso   1.000  H
  H49      1.0000 0.00700  0.18260  0.42360  Biso   1.000  H
  H50      1.0000 0.63210  0.75580  0.21090  Biso   1.000  H
  H51      1.0000 0.13870  0.59420  0.66010  Biso   1.000  H
  H52      1.0000 0.08330  0.67740  0.59710  Biso   1.000  H
  H53      1.0000 0.16350  0.84220  0.68250  Biso   1.000  H
  H54      1.0000 0.29160  0.91880  0.83380  Biso   1.000  H
  H55      1.0000 0.51400  0.85500  0.12300  Biso   1.000  H
  H56      1.0000 0.49300  0.91660  0.17560  Biso   1.000  H
  C1       1.0000 0.56720  0.85120  0.93180  Biso   1.000  C
  C2       1.0000 0.64649  0.98171  0.94426  Biso   1.000  C
  C3       1.0000 0.71572  0.06460  0.95036  Biso   1.000  C
  C4       1.0000 0.83364  0.16854  0.96050  Biso   1.000  C
  C5       1.0000 0.92520  0.21420  0.96400  Biso   1.000  C
  C6       1.0000 0.96560  0.30520  0.97480  Biso   1.000  C
  C7       1.0000 0.05260  0.34260  0.97980  Biso   1.000  C
  C8       1.0000 0.09960  0.29180  0.97540  Biso   1.000  C
  C9       1.0000 0.05450  0.20180  0.96250  Biso   1.000  C
  C10      1.0000 0.93280  0.86460  0.28400  Biso   1.000  C
  C11      1.0000 0.85351  0.79777  0.33522  Biso   1.000  C
  C12      1.0000 0.78428  0.73464  0.34888  Biso   1.000  C
  C13      1.0000 0.66636  0.62686  0.33490  Biso   1.000  C
  C14      1.0000 0.57480  0.53880  0.28900  Biso   1.000  C
  C15      1.0000 0.53440  0.50920  0.33960  Biso   1.000  C
  C16      1.0000 0.44740  0.42720  0.29000  Biso   1.000  C
  C17      1.0000 0.40040  0.37580  0.19220  Biso   1.000  C
  C18      1.0000 0.44550  0.40800  0.14730  Biso   1.000  C
  C19      1.0000 0.08060  0.93180  0.86460  Biso   1.000  C
  C20      1.0000 0.96255  0.94426  0.79777  Biso   1.000  C
  C21      1.0000 0.88576  0.95036  0.73464  Biso   1.000  C
  C22      1.0000 0.79196  0.96050  0.62686  Biso   1.000  C
  C23      1.0000 0.74980  0.96400  0.53880  Biso   1.000  C
  C24      1.0000 0.66960  0.97480  0.50920  Biso   1.000  C
  C25      1.0000 0.63720  0.97980  0.42720  Biso   1.000  C
  C26      1.0000 0.68360  0.97540  0.37580  Biso   1.000  C
  C27      1.0000 0.76070  0.96250  0.40800  Biso   1.000  C
  C28      1.0000 0.41940  0.28400  0.85120  Biso   1.000  C
  C29      1.0000 0.53745  0.33522  0.98171  Biso   1.000  C
  C30      1.0000 0.61424  0.34888  0.06460  Biso   1.000  C
  C31      1.0000 0.70804  0.33490  0.16854  Biso   1.000  C
  C32      1.0000 0.75020  0.28900  0.21420  Biso   1.000  C
  C33      1.0000 0.83040  0.33960  0.30520  Biso   1.000  C
  C34      1.0000 0.86280  0.29000  0.34260  Biso   1.000  C
  C35      1.0000 0.81640  0.19220  0.29180  Biso   1.000  C
  C36      1.0000 0.73930  0.14730  0.20180  Biso   1.000  C
  C37      1.0000 0.43280  0.14880  0.06820  Biso   1.000  C
  C38      1.0000 0.35351  0.01829  0.05574  Biso   1.000  C
  C39      1.0000 0.28428  0.93540  0.04964  Biso   1.000  C
  C40      1.0000 0.16636  0.83146  0.03950  Biso   1.000  C
  C41      1.0000 0.07480  0.78580  0.03600  Biso   1.000  C
  C42      1.0000 0.03440  0.69480  0.02520  Biso   1.000  C
  C43      1.0000 0.94740  0.65740  0.02020  Biso   1.000  C
  C44      1.0000 0.90040  0.70820  0.02460  Biso   1.000  C
  C45      1.0000 0.94550  0.79820  0.03750  Biso   1.000  C
  C46      1.0000 0.06720  0.13540  0.71600  Biso   1.000  C
  C47      1.0000 0.14649  0.20223  0.66478  Biso   1.000  C
  C48      1.0000 0.21572  0.26536  0.65112  Biso   1.000  C
  C49      1.0000 0.33364  0.37314  0.66510  Biso   1.000  C
  C50      1.0000 0.42520  0.46120  0.71100  Biso   1.000  C
  C51      1.0000 0.46560  0.49080  0.66040  Biso   1.000  C
  C52      1.0000 0.55260  0.57280  0.71000  Biso   1.000  C
  C53      1.0000 0.59960  0.62420  0.80780  Biso   1.000  C
  C54      1.0000 0.55450  0.59200  0.85270  Biso   1.000  C
  C55      1.0000 0.91940  0.06820  0.13540  Biso   1.000  C
  C56      1.0000 0.03745  0.05574  0.20223  Biso   1.000  C
  C57      1.0000 0.11424  0.04964  0.26536  Biso   1.000  C
  C58      1.0000 0.20804  0.03950  0.37314  Biso   1.000  C
  C59      1.0000 0.25020  0.03600  0.46120  Biso   1.000  C
  C60      1.0000 0.33040  0.02520  0.49080  Biso   1.000  C
  C61      1.0000 0.36280  0.02020  0.57280  Biso   1.000  C
  C62      1.0000 0.31640  0.02460  0.62420  Biso   1.000  C
  C63      1.0000 0.23930  0.03750  0.59200  Biso   1.000  C
  C64      1.0000 0.58060  0.71600  0.14880  Biso   1.000  C
  C65      1.0000 0.46255  0.66478  0.01829  Biso   1.000  C
  C66      1.0000 0.38576  0.65112  0.93540  Biso   1.000  C
  C67      1.0000 0.29196  0.66510  0.83146  Biso   1.000  C
  C68      1.0000 0.24980  0.71100  0.78580  Biso   1.000  C
  C69      1.0000 0.16960  0.66040  0.69480  Biso   1.000  C
  C70      1.0000 0.13720  0.71000  0.65740  Biso   1.000  C
  C71      1.0000 0.18360  0.80780  0.70820  Biso   1.000  C
  C72      1.0000 0.26070  0.85270  0.79820  Biso   1.000  C
  N1       1.0000 0.64161  0.89690  0.92229  Biso   1.000  N
  N2       1.0000 0.58057  0.98819  0.96602  Biso   1.000  N
  N3       1.0000 0.52838  0.90247  0.95763  Biso   1.000  N
  N4       1.0000 0.79336  0.07618  0.94150  Biso   1.000  N
  N5       1.0000 0.78481  0.21041  0.97838  Biso   1.000  N
  N6       1.0000 0.70714  0.14175  0.97105  Biso   1.000  N
  N7       1.0000 0.96841  0.16230  0.95619  Biso   1.000  N
  N8       1.0000 0.85839  0.78068  0.25529  Biso   1.000  N
  N9       1.0000 0.91943  0.88545  0.40762  Biso   1.000  N
  N10      1.0000 0.97162  0.92925  0.37409  Biso   1.000  N
  N11      1.0000 0.70664  0.64814  0.28282  Biso   1.000  N
  N12      1.0000 0.71519  0.69357  0.42560  Biso   1.000  N
  N13      1.0000 0.79286  0.76391  0.43461  Biso   1.000  N
  N14      1.0000 0.53159  0.48778  0.19389  Biso   1.000  N
  N15      1.0000 0.02539  0.92229  0.78068  Biso   1.000  N
  N16      1.0000 0.97783  0.96602  0.88545  Biso   1.000  N
  N17      1.0000 0.05516  0.95763  0.92925  Biso   1.000  N
  N18      1.0000 0.86532  0.94150  0.64814  Biso   1.000  N
  N19      1.0000 0.76797  0.97838  0.69357  Biso   1.000  N
  N20      1.0000 0.82930  0.97105  0.76391  Biso   1.000  N
  N21      1.0000 0.79389  0.95619  0.48778  Biso   1.000  N
  N22      1.0000 0.47461  0.25529  0.89690  Biso   1.000  N
  N23      1.0000 0.52217  0.40762  0.98819  Biso   1.000  N
  N24      1.0000 0.44484  0.37409  0.90247  Biso   1.000  N
  N25      1.0000 0.63468  0.28282  0.07618  Biso   1.000  N
  N26      1.0000 0.73203  0.42560  0.21041  Biso   1.000  N
  N27      1.0000 0.67070  0.43461  0.14175  Biso   1.000  N
  N28      1.0000 0.70611  0.19389  0.16230  Biso   1.000  N
  N29      1.0000 0.35839  0.10310  0.07771  Biso   1.000  N
  N30      1.0000 0.41943  0.01181  0.03398  Biso   1.000  N
  N31      1.0000 0.47162  0.09753  0.04237  Biso   1.000  N
  N32      1.0000 0.20664  0.92382  0.05850  Biso   1.000  N
  N33      1.0000 0.21519  0.78959  0.02162  Biso   1.000  N
  N34      1.0000 0.29286  0.85825  0.02895  Biso   1.000  N
  N35      1.0000 0.03159  0.83770  0.04381  Biso   1.000  N
  N36      1.0000 0.14161  0.21932  0.74471  Biso   1.000  N
  N37      1.0000 0.08057  0.11455  0.59238  Biso   1.000  N
  N38      1.0000 0.02838  0.07075  0.62591  Biso   1.000  N
  N39      1.0000 0.29336  0.35186  0.71718  Biso   1.000  N
  N40      1.0000 0.28481  0.30643  0.57440  Biso   1.000  N
  N41      1.0000 0.20714  0.23609  0.56539  Biso   1.000  N
  N42      1.0000 0.46841  0.51222  0.80611  Biso   1.000  N
  N43      1.0000 0.97461  0.07771  0.21932  Biso   1.000  N
  N44      1.0000 0.02217  0.03398  0.11455  Biso   1.000  N
  N45      1.0000 0.94484  0.04237  0.07075  Biso   1.000  N
  N46      1.0000 0.13468  0.05850  0.35186  Biso   1.000  N
  N47      1.0000 0.23203  0.02162  0.30643  Biso   1.000  N
  N48      1.0000 0.17070  0.02895  0.23609  Biso   1.000  N
  N49      1.0000 0.20611  0.04381  0.51222  Biso   1.000  N
  N50      1.0000 0.52539  0.74471  0.10310  Biso   1.000  N
  N51      1.0000 0.47783  0.59238  0.01181  Biso   1.000  N
  N52      1.0000 0.55516  0.62591  0.09753  Biso   1.000  N
  N53      1.0000 0.36532  0.71718  0.92382  Biso   1.000  N
  N54      1.0000 0.26797  0.57440  0.78959  Biso   1.000  N
  N55      1.0000 0.32930  0.56539  0.85825  Biso   1.000  N
  N56      1.0000 0.29389  0.80611  0.83770  Biso   1.000  N
  O1       1.0000 0.77145  0.86401  0.87696  Biso   1.000  O
  O2       1.0000 0.72855  0.60551  0.09256  Biso   1.000  O
  O3       1.0000 0.01295  0.87696  0.60551  Biso   1.000  O
  O4       1.0000 0.48705  0.09256  0.86401  Biso   1.000  O
  O5       1.0000 0.22855  0.13599  0.12304  Biso   1.000  O
  O6       1.0000 0.27145  0.39449  0.90744  Biso   1.000  O
  O7       1.0000 0.98705  0.12304  0.39449  Biso   1.000  O
  O8       1.0000 0.51295  0.90744  0.13599  Biso   1.000  O
