data_image0
_cell_length_a       10.7585
_cell_length_b       15.0997
_cell_length_c       18.1366
_cell_angle_alpha    68.3853
_cell_angle_beta     72.7467
_cell_angle_gamma    69.13

_symmetry_space_group_name_H-M    P 1
_symmetry_int_tables_number       1

loop_
  _symmetry_equiv_pos_as_xyz
  'x, y, z'

loop_
  _atom_site_label
  _atom_site_occupancy
  _atom_site_fract_x
  _atom_site_fract_y
  _atom_site_fract_z
  _atom_site_thermal_displace_type
  _atom_site_B_iso_or_equiv
  _atom_site_type_symbol
  Ni1      1.0000 0.50000  0.00000  0.50000  Biso   1.000  Ni
  Ni2      1.0000 0.00000  0.50000  0.00000  Biso   1.000  Ni
  Ni3      1.0000 0.00000  0.00000  0.50000  Biso   1.000  Ni
  Ni4      1.0000 0.50000  0.50000  0.00000  Biso   1.000  Ni
  H1       1.0000 0.54920  0.96050  0.63910  Biso   1.000  H
  H2       1.0000 0.67000  0.97200  0.58400  Biso   1.000  H
  H3       1.0000 0.62450  0.47710  0.33510  Biso   1.000  H
  H4       1.0000 0.83710  0.83110  0.36390  Biso   1.000  H
  H5       1.0000 0.16290  0.99110  0.21810  Biso   1.000  H
  H6       1.0000 0.17130  0.84970  0.19570  Biso   1.000  H
  H7       1.0000 0.25860  0.92800  0.38920  Biso   1.000  H
  H8       1.0000 0.39790  0.78870  0.35570  Biso   1.000  H
  H9       1.0000 0.15970  0.63450  0.52670  Biso   1.000  H
  H10      1.0000 0.02280  0.77860  0.55380  Biso   1.000  H
  H11      1.0000 0.36300  0.32950  0.55050  Biso   1.000  H
  H12      1.0000 0.38560  0.16510  0.57770  Biso   1.000  H
  H13      1.0000 0.62720  0.15890  0.37150  Biso   1.000  H
  H14      1.0000 0.61850  0.32260  0.34040  Biso   1.000  H
  H15      1.0000 0.14880  0.53950  0.86090  Biso   1.000  H
  H16      1.0000 0.22600  0.52800  0.91600  Biso   1.000  H
  H17      1.0000 0.43670  0.02290  0.16490  Biso   1.000  H
  H18      1.0000 0.03210  0.66890  0.13610  Biso   1.000  H
  H19      1.0000 0.37210  0.50890  0.28190  Biso   1.000  H
  H20      1.0000 0.21670  0.65030  0.30430  Biso   1.000  H
  H21      1.0000 0.57580  0.57200  0.11080  Biso   1.000  H
  H22      1.0000 0.54230  0.71130  0.14430  Biso   1.000  H
  H23      1.0000 0.32090  0.86550  0.97330  Biso   1.000  H
  H24      1.0000 0.35520  0.72140  0.94620  Biso   1.000  H
  H25      1.0000 0.24300  0.17050  0.94950  Biso   1.000  H
  H26      1.0000 0.12840  0.33490  0.92230  Biso   1.000  H
  H27      1.0000 0.15760  0.34110  0.12850  Biso   1.000  H
  H28      1.0000 0.28150  0.17740  0.15960  Biso   1.000  H
  H29      1.0000 0.45080  0.03950  0.36090  Biso   1.000  H
  H30      1.0000 0.33000  0.02800  0.41600  Biso   1.000  H
  H31      1.0000 0.37550  0.52290  0.66490  Biso   1.000  H
  H32      1.0000 0.16290  0.16890  0.63610  Biso   1.000  H
  H33      1.0000 0.83710  0.00890  0.78190  Biso   1.000  H
  H34      1.0000 0.82870  0.15030  0.80430  Biso   1.000  H
  H35      1.0000 0.74140  0.07200  0.61080  Biso   1.000  H
  H36      1.0000 0.60210  0.21130  0.64430  Biso   1.000  H
  H37      1.0000 0.84030  0.36550  0.47330  Biso   1.000  H
  H38      1.0000 0.97720  0.22140  0.44620  Biso   1.000  H
  H39      1.0000 0.63700  0.67050  0.44950  Biso   1.000  H
  H40      1.0000 0.61440  0.83490  0.42230  Biso   1.000  H
  H41      1.0000 0.37280  0.84110  0.62850  Biso   1.000  H
  H42      1.0000 0.38150  0.67740  0.65960  Biso   1.000  H
  H43      1.0000 0.85120  0.46050  0.13910  Biso   1.000  H
  H44      1.0000 0.77400  0.47200  0.08400  Biso   1.000  H
  H45      1.0000 0.56330  0.97710  0.83510  Biso   1.000  H
  H46      1.0000 0.96790  0.33110  0.86390  Biso   1.000  H
  H47      1.0000 0.62790  0.49110  0.71810  Biso   1.000  H
  H48      1.0000 0.78330  0.34970  0.69570  Biso   1.000  H
  H49      1.0000 0.42420  0.42800  0.88920  Biso   1.000  H
  H50      1.0000 0.45770  0.28870  0.85570  Biso   1.000  H
  H51      1.0000 0.67910  0.13450  0.02670  Biso   1.000  H
  H52      1.0000 0.64480  0.27860  0.05380  Biso   1.000  H
  H53      1.0000 0.75700  0.82950  0.05050  Biso   1.000  H
  H54      1.0000 0.87160  0.66510  0.07770  Biso   1.000  H
  H55      1.0000 0.84240  0.65890  0.87150  Biso   1.000  H
  H56      1.0000 0.71850  0.82260  0.84040  Biso   1.000  H
  C1       1.0000 0.00410  0.82680  0.27560  Biso   1.000  C
  C2       1.0000 0.90600  0.86160  0.33640  Biso   1.000  C
  C3       1.0000 0.90878  0.94074  0.35670  Biso   1.000  C
  C4       1.0000 0.79933  0.96854  0.42580  Biso   1.000  C
  C5       1.0000 0.00290  0.99180  0.31120  Biso   1.000  C
  C6       1.0000 0.01040  0.08340  0.32280  Biso   1.000  C
  C7       1.0000 0.09930  0.95680  0.24960  Biso   1.000  C
  C8       1.0000 0.10210  0.87400  0.23440  Biso   1.000  C
  C9       1.0000 0.23750  0.86820  0.41700  Biso   1.000  C
  C10      1.0000 0.32229  0.78452  0.39690  Biso   1.000  C
  C11      1.0000 0.29575  0.69520  0.43730  Biso   1.000  C
  C12      1.0000 0.18140  0.69410  0.49730  Biso   1.000  C
  C13      1.0000 0.09990  0.78080  0.51360  Biso   1.000  C
  C14      1.0000 0.38494  0.60262  0.42010  Biso   1.000  C
  C15      1.0000 0.46778  0.45294  0.42110  Biso   1.000  C
  C16      1.0000 0.48508  0.34654  0.44070  Biso   1.000  C
  C17      1.0000 0.41742  0.29636  0.51280  Biso   1.000  C
  C18      1.0000 0.43069  0.19782  0.52840  Biso   1.000  C
  C19      1.0000 0.57315  0.19390  0.40800  Biso   1.000  C
  C20      1.0000 0.56743  0.29284  0.38830  Biso   1.000  C
  C21      1.0000 0.10650  0.67320  0.22440  Biso   1.000  C
  C22      1.0000 0.10400  0.63840  0.16360  Biso   1.000  C
  C23      1.0000 0.20622  0.55926  0.14330  Biso   1.000  C
  C24      1.0000 0.19367  0.53146  0.07420  Biso   1.000  C
  C25      1.0000 0.30590  0.50820  0.18880  Biso   1.000  C
  C26      1.0000 0.41660  0.41660  0.17720  Biso   1.000  C
  C27      1.0000 0.30570  0.54320  0.25040  Biso   1.000  C
  C28      1.0000 0.21050  0.62600  0.26560  Biso   1.000  C
  C29      1.0000 0.52270  0.63180  0.08300  Biso   1.000  C
  C30      1.0000 0.50371  0.71548  0.10310  Biso   1.000  C
  C31      1.0000 0.42825  0.80480  0.06270  Biso   1.000  C
  C32      1.0000 0.37280  0.80590  0.00270  Biso   1.000  C
  C33      1.0000 0.39430  0.71920  0.98640  Biso   1.000  C
  C34      1.0000 0.40766  0.89738  0.07990  Biso   1.000  C
  C35      1.0000 0.34182  0.04706  0.07890  Biso   1.000  C
  C36      1.0000 0.27232  0.15346  0.05930  Biso   1.000  C
  C37      1.0000 0.22658  0.20364  0.98720  Biso   1.000  C
  C38      1.0000 0.15691  0.30218  0.97160  Biso   1.000  C
  C39      1.0000 0.17505  0.30610  0.09200  Biso   1.000  C
  C40      1.0000 0.24857  0.20716  0.11170  Biso   1.000  C
  C41      1.0000 0.99590  0.17320  0.72440  Biso   1.000  C
  C42      1.0000 0.09400  0.13840  0.66360  Biso   1.000  C
  C43      1.0000 0.09122  0.05926  0.64330  Biso   1.000  C
  C44      1.0000 0.20067  0.03146  0.57420  Biso   1.000  C
  C45      1.0000 0.99710  0.00820  0.68880  Biso   1.000  C
  C46      1.0000 0.98960  0.91660  0.67720  Biso   1.000  C
  C47      1.0000 0.90070  0.04320  0.75040  Biso   1.000  C
  C48      1.0000 0.89790  0.12600  0.76560  Biso   1.000  C
  C49      1.0000 0.76250  0.13180  0.58300  Biso   1.000  C
  C50      1.0000 0.67771  0.21548  0.60310  Biso   1.000  C
  C51      1.0000 0.70425  0.30480  0.56270  Biso   1.000  C
  C52      1.0000 0.81860  0.30590  0.50270  Biso   1.000  C
  C53      1.0000 0.90010  0.21920  0.48640  Biso   1.000  C
  C54      1.0000 0.61506  0.39738  0.57990  Biso   1.000  C
  C55      1.0000 0.53222  0.54706  0.57890  Biso   1.000  C
  C56      1.0000 0.51492  0.65346  0.55930  Biso   1.000  C
  C57      1.0000 0.58258  0.70364  0.48720  Biso   1.000  C
  C58      1.0000 0.56931  0.80218  0.47160  Biso   1.000  C
  C59      1.0000 0.42685  0.80610  0.59200  Biso   1.000  C
  C60      1.0000 0.43257  0.70716  0.61170  Biso   1.000  C
  C61      1.0000 0.89350  0.32680  0.77560  Biso   1.000  C
  C62      1.0000 0.89600  0.36160  0.83640  Biso   1.000  C
  C63      1.0000 0.79378  0.44074  0.85670  Biso   1.000  C
  C64      1.0000 0.80633  0.46854  0.92580  Biso   1.000  C
  C65      1.0000 0.69410  0.49180  0.81120  Biso   1.000  C
  C66      1.0000 0.58340  0.58340  0.82280  Biso   1.000  C
  C67      1.0000 0.69430  0.45680  0.74960  Biso   1.000  C
  C68      1.0000 0.78950  0.37400  0.73440  Biso   1.000  C
  C69      1.0000 0.47730  0.36820  0.91700  Biso   1.000  C
  C70      1.0000 0.49629  0.28452  0.89690  Biso   1.000  C
  C71      1.0000 0.57175  0.19520  0.93730  Biso   1.000  C
  C72      1.0000 0.62720  0.19410  0.99730  Biso   1.000  C
  C73      1.0000 0.60570  0.28080  0.01360  Biso   1.000  C
  C74      1.0000 0.59234  0.10262  0.92010  Biso   1.000  C
  C75      1.0000 0.65818  0.95294  0.92110  Biso   1.000  C
  C76      1.0000 0.72768  0.84654  0.94070  Biso   1.000  C
  C77      1.0000 0.77342  0.79636  0.01280  Biso   1.000  C
  C78      1.0000 0.84309  0.69782  0.02840  Biso   1.000  C
  C79      1.0000 0.82495  0.69390  0.90800  Biso   1.000  C
  C80      1.0000 0.75143  0.79284  0.88830  Biso   1.000  C
  C81      1.0000 0.98640  0.75000  0.25000  Biso   1.000  C
  C82      1.0000 0.01360  0.25000  0.75000  Biso   1.000  C
  N1       1.0000 0.12617  0.86796  0.47450  Biso   1.000  N
  N2       1.0000 0.36216  0.51278  0.45710  Biso   1.000  N
  N3       1.0000 0.49766  0.59798  0.36430  Biso   1.000  N
  N4       1.0000 0.55114  0.50172  0.36500  Biso   1.000  N
  N5       1.0000 0.50543  0.14604  0.47650  Biso   1.000  N
  N6       1.0000 0.46863  0.63204  0.02550  Biso   1.000  N
  N7       1.0000 0.33204  0.98722  0.04290  Biso   1.000  N
  N8       1.0000 0.45994  0.90202  0.13570  Biso   1.000  N
  N9       1.0000 0.41786  0.99828  0.13500  Biso   1.000  N
  N10      1.0000 0.12797  0.35396  0.02350  Biso   1.000  N
  N11      1.0000 0.87383  0.13204  0.52550  Biso   1.000  N
  N12      1.0000 0.63784  0.48722  0.54290  Biso   1.000  N
  N13      1.0000 0.50234  0.40202  0.63570  Biso   1.000  N
  N14      1.0000 0.44886  0.49828  0.63500  Biso   1.000  N
  N15      1.0000 0.49457  0.85396  0.52350  Biso   1.000  N
  N16      1.0000 0.53137  0.36796  0.97450  Biso   1.000  N
  N17      1.0000 0.66796  0.01278  0.95710  Biso   1.000  N
  N18      1.0000 0.54006  0.09798  0.86430  Biso   1.000  N
  N19      1.0000 0.58214  0.00172  0.86500  Biso   1.000  N
  N20      1.0000 0.87203  0.64604  0.97650  Biso   1.000  N
  O1       1.0000 0.68260  0.97110  0.42370  Biso   1.000  O
  O2       1.0000 0.82839  0.98522  0.48040  Biso   1.000  O
  O3       1.0000 0.04259  0.08062  0.38360  Biso   1.000  O
  O4       1.0000 0.99500  0.15900  0.26400  Biso   1.000  O
  O5       1.0000 0.60186  0.95058  0.59610  Biso   1.000  O
  O6       1.0000 0.07740  0.52890  0.07630  Biso   1.000  O
  O7       1.0000 0.29401  0.51478  0.01960  Biso   1.000  O
  O8       1.0000 0.50681  0.41938  0.11640  Biso   1.000  O
  O9       1.0000 0.41800  0.34100  0.23600  Biso   1.000  O
  O10      1.0000 0.14854  0.54942  0.90390  Biso   1.000  O
  O11      1.0000 0.31740  0.02890  0.57630  Biso   1.000  O
  O12      1.0000 0.17161  0.01478  0.51960  Biso   1.000  O
  O13      1.0000 0.95741  0.91938  0.61640  Biso   1.000  O
  O14      1.0000 0.00500  0.84100  0.73600  Biso   1.000  O
  O15      1.0000 0.39814  0.04942  0.40390  Biso   1.000  O
  O16      1.0000 0.92260  0.47110  0.92370  Biso   1.000  O
  O17      1.0000 0.70599  0.48522  0.98040  Biso   1.000  O
  O18      1.0000 0.49319  0.58062  0.88360  Biso   1.000  O
  O19      1.0000 0.58200  0.65900  0.76400  Biso   1.000  O
  O20      1.0000 0.85146  0.45058  0.09610  Biso   1.000  O
  O21      1.0000 0.87090  0.75000  0.25000  Biso   1.000  O
  O22      1.0000 0.12910  0.25000  0.75000  Biso   1.000  O
