data_image0
_cell_length_a       17.5608
_cell_length_b       20.8804
_cell_length_c       25.3474
_cell_angle_alpha    90
_cell_angle_beta     90
_cell_angle_gamma    90

_symmetry_space_group_name_H-M    P 1
_symmetry_int_tables_number       1

loop_
  _symmetry_equiv_pos_as_xyz
  'x, y, z'

loop_
  _atom_site_label
  _atom_site_occupancy
  _atom_site_fract_x
  _atom_site_fract_y
  _atom_site_fract_z
  _atom_site_thermal_displace_type
  _atom_site_B_iso_or_equiv
  _atom_site_type_symbol
  Co1      1.0000 0.49614  0.93507  0.31779  Biso   1.000  Co
  Co2      1.0000 0.00386  0.43507  0.68221  Biso   1.000  Co
  Co3      1.0000 0.49614  0.93507  0.18221  Biso   1.000  Co
  Co4      1.0000 0.00386  0.43507  0.81779  Biso   1.000  Co
  Co5      1.0000 0.38685  0.83537  0.25000  Biso   1.000  Co
  Co6      1.0000 0.11315  0.33537  0.75000  Biso   1.000  Co
  H1       1.0000 0.75630  0.97040  0.30850  Biso   1.000  H
  H2       1.0000 0.87580  0.99910  0.33580  Biso   1.000  H
  H3       1.0000 0.78580  0.04290  0.47410  Biso   1.000  H
  H4       1.0000 0.66900  0.00550  0.44660  Biso   1.000  H
  H5       1.0000 0.30710  0.04150  0.38340  Biso   1.000  H
  H6       1.0000 0.19590  0.08300  0.41790  Biso   1.000  H
  H7       1.0000 0.08430  0.92600  0.37760  Biso   1.000  H
  H8       1.0000 0.19240  0.88760  0.33750  Biso   1.000  H
  H9       1.0000 0.93150  0.28870  0.56950  Biso   1.000  H
  H10      1.0000 0.92040  0.21600  0.50570  Biso   1.000  H
  H11      1.0000 0.08800  0.11030  0.57010  Biso   1.000  H
  H12      1.0000 0.09430  0.18490  0.63850  Biso   1.000  H
  H13      1.0000 0.98290  0.99150  0.37910  Biso   1.000  H
  H14      1.0000 0.10890  0.08970  0.48110  Biso   1.000  H
  H15      1.0000 0.88060  0.10660  0.47980  Biso   1.000  H
  H16      1.0000 0.74370  0.47040  0.69150  Biso   1.000  H
  H17      1.0000 0.62420  0.49910  0.66420  Biso   1.000  H
  H18      1.0000 0.71420  0.54290  0.52590  Biso   1.000  H
  H19      1.0000 0.83100  0.50550  0.55340  Biso   1.000  H
  H20      1.0000 0.19290  0.54150  0.61660  Biso   1.000  H
  H21      1.0000 0.30410  0.58300  0.58210  Biso   1.000  H
  H22      1.0000 0.41570  0.42600  0.62240  Biso   1.000  H
  H23      1.0000 0.30760  0.38760  0.66250  Biso   1.000  H
  H24      1.0000 0.56850  0.78870  0.43050  Biso   1.000  H
  H25      1.0000 0.57960  0.71600  0.49430  Biso   1.000  H
  H26      1.0000 0.41200  0.61030  0.42990  Biso   1.000  H
  H27      1.0000 0.40570  0.68490  0.36150  Biso   1.000  H
  H28      1.0000 0.51710  0.49150  0.62090  Biso   1.000  H
  H29      1.0000 0.39110  0.58970  0.51890  Biso   1.000  H
  H30      1.0000 0.61940  0.60660  0.52020  Biso   1.000  H
  H31      1.0000 0.75630  0.97040  0.19150  Biso   1.000  H
  H32      1.0000 0.87580  0.99910  0.16420  Biso   1.000  H
  H33      1.0000 0.78580  0.04290  0.02590  Biso   1.000  H
  H34      1.0000 0.66900  0.00550  0.05340  Biso   1.000  H
  H35      1.0000 0.30710  0.04150  0.11660  Biso   1.000  H
  H36      1.0000 0.19590  0.08300  0.08210  Biso   1.000  H
  H37      1.0000 0.08430  0.92600  0.12240  Biso   1.000  H
  H38      1.0000 0.19240  0.88760  0.16250  Biso   1.000  H
  H39      1.0000 0.93150  0.28870  0.93050  Biso   1.000  H
  H40      1.0000 0.92040  0.21600  0.99430  Biso   1.000  H
  H41      1.0000 0.08800  0.11030  0.92990  Biso   1.000  H
  H42      1.0000 0.09430  0.18490  0.86150  Biso   1.000  H
  H43      1.0000 0.98290  0.99150  0.12090  Biso   1.000  H
  H44      1.0000 0.10890  0.08970  0.01890  Biso   1.000  H
  H45      1.0000 0.88060  0.10660  0.02020  Biso   1.000  H
  H46      1.0000 0.74370  0.47040  0.80850  Biso   1.000  H
  H47      1.0000 0.62420  0.49910  0.83580  Biso   1.000  H
  H48      1.0000 0.71420  0.54290  0.97410  Biso   1.000  H
  H49      1.0000 0.83100  0.50550  0.94660  Biso   1.000  H
  H50      1.0000 0.19290  0.54150  0.88340  Biso   1.000  H
  H51      1.0000 0.30410  0.58300  0.91790  Biso   1.000  H
  H52      1.0000 0.41570  0.42600  0.87760  Biso   1.000  H
  H53      1.0000 0.30760  0.38760  0.83750  Biso   1.000  H
  H54      1.0000 0.56850  0.78870  0.06950  Biso   1.000  H
  H55      1.0000 0.57960  0.71600  0.00570  Biso   1.000  H
  H56      1.0000 0.41200  0.61030  0.07010  Biso   1.000  H
  H57      1.0000 0.40570  0.68490  0.13850  Biso   1.000  H
  H58      1.0000 0.51710  0.49150  0.87910  Biso   1.000  H
  H59      1.0000 0.39110  0.58970  0.98110  Biso   1.000  H
  H60      1.0000 0.61940  0.60660  0.97980  Biso   1.000  H
  C1       1.0000 0.61440  0.97150  0.34520  Biso   1.000  C
  C2       1.0000 0.70140  0.98770  0.37330  Biso   1.000  C
  C3       1.0000 0.76250  0.98510  0.34290  Biso   1.000  C
  C4       1.0000 0.83440  0.00260  0.35850  Biso   1.000  C
  C5       1.0000 0.84260  0.02440  0.40640  Biso   1.000  C
  C6       1.0000 0.78000  0.02700  0.44000  Biso   1.000  C
  C7       1.0000 0.71000  0.00640  0.42340  Biso   1.000  C
  C8       1.0000 0.33280  0.93140  0.33040  Biso   1.000  C
  C9       1.0000 0.26140  0.96050  0.35810  Biso   1.000  C
  C10      1.0000 0.26220  0.01800  0.38160  Biso   1.000  C
  C11      1.0000 0.19570  0.04220  0.40320  Biso   1.000  C
  C12      1.0000 0.12850  0.00650  0.40340  Biso   1.000  C
  C13      1.0000 0.12880  0.95010  0.37890  Biso   1.000  C
  C14      1.0000 0.19390  0.92650  0.35530  Biso   1.000  C
  C15      1.0000 0.02600  0.29470  0.65200  Biso   1.000  C
  C16      1.0000 0.01550  0.24590  0.61120  Biso   1.000  C
  C17      1.0000 0.96270  0.25260  0.57020  Biso   1.000  C
  C18      1.0000 0.95570  0.20920  0.53250  Biso   1.000  C
  C19      1.0000 0.00120  0.15210  0.53170  Biso   1.000  C
  C20      1.0000 0.05500  0.14510  0.57050  Biso   1.000  C
  C21      1.0000 0.06000  0.19140  0.61110  Biso   1.000  C
  C22      1.0000 0.92130  0.04490  0.42700  Biso   1.000  C
  C23      1.0000 0.98600  0.02050  0.40690  Biso   1.000  C
  C24      1.0000 0.05620  0.03680  0.42600  Biso   1.000  C
  C25      1.0000 0.06140  0.07880  0.46760  Biso   1.000  C
  C26      1.0000 0.99600  0.10500  0.48950  Biso   1.000  C
  C27      1.0000 0.92510  0.08810  0.46700  Biso   1.000  C
  C28      1.0000 0.88560  0.47150  0.65480  Biso   1.000  C
  C29      1.0000 0.79860  0.48770  0.62670  Biso   1.000  C
  C30      1.0000 0.73750  0.48510  0.65710  Biso   1.000  C
  C31      1.0000 0.66560  0.50260  0.64150  Biso   1.000  C
  C32      1.0000 0.65740  0.52440  0.59360  Biso   1.000  C
  C33      1.0000 0.72000  0.52700  0.56000  Biso   1.000  C
  C34      1.0000 0.79000  0.50640  0.57660  Biso   1.000  C
  C35      1.0000 0.16720  0.43140  0.66960  Biso   1.000  C
  C36      1.0000 0.23860  0.46050  0.64190  Biso   1.000  C
  C37      1.0000 0.23780  0.51800  0.61840  Biso   1.000  C
  C38      1.0000 0.30430  0.54220  0.59680  Biso   1.000  C
  C39      1.0000 0.37150  0.50650  0.59660  Biso   1.000  C
  C40      1.0000 0.37120  0.45010  0.62110  Biso   1.000  C
  C41      1.0000 0.30610  0.42650  0.64470  Biso   1.000  C
  C42      1.0000 0.47400  0.79470  0.34800  Biso   1.000  C
  C43      1.0000 0.48450  0.74590  0.38880  Biso   1.000  C
  C44      1.0000 0.53730  0.75260  0.42980  Biso   1.000  C
  C45      1.0000 0.54430  0.70920  0.46750  Biso   1.000  C
  C46      1.0000 0.49880  0.65210  0.46830  Biso   1.000  C
  C47      1.0000 0.44500  0.64510  0.42950  Biso   1.000  C
  C48      1.0000 0.44000  0.69140  0.38890  Biso   1.000  C
  C49      1.0000 0.57870  0.54490  0.57300  Biso   1.000  C
  C50      1.0000 0.51400  0.52050  0.59310  Biso   1.000  C
  C51      1.0000 0.44380  0.53680  0.57400  Biso   1.000  C
  C52      1.0000 0.43860  0.57880  0.53240  Biso   1.000  C
  C53      1.0000 0.50400  0.60500  0.51050  Biso   1.000  C
  C54      1.0000 0.57490  0.58810  0.53300  Biso   1.000  C
  C55      1.0000 0.61440  0.97150  0.15480  Biso   1.000  C
  C56      1.0000 0.70140  0.98770  0.12670  Biso   1.000  C
  C57      1.0000 0.76250  0.98510  0.15710  Biso   1.000  C
  C58      1.0000 0.83440  0.00260  0.14150  Biso   1.000  C
  C59      1.0000 0.84260  0.02440  0.09360  Biso   1.000  C
  C60      1.0000 0.78000  0.02700  0.06000  Biso   1.000  C
  C61      1.0000 0.71000  0.00640  0.07660  Biso   1.000  C
  C62      1.0000 0.33280  0.93140  0.16960  Biso   1.000  C
  C63      1.0000 0.26140  0.96050  0.14190  Biso   1.000  C
  C64      1.0000 0.26220  0.01800  0.11840  Biso   1.000  C
  C65      1.0000 0.19570  0.04220  0.09680  Biso   1.000  C
  C66      1.0000 0.12850  0.00650  0.09660  Biso   1.000  C
  C67      1.0000 0.12880  0.95010  0.12110  Biso   1.000  C
  C68      1.0000 0.19390  0.92650  0.14470  Biso   1.000  C
  C69      1.0000 0.02600  0.29470  0.84800  Biso   1.000  C
  C70      1.0000 0.01550  0.24590  0.88880  Biso   1.000  C
  C71      1.0000 0.96270  0.25260  0.92980  Biso   1.000  C
  C72      1.0000 0.95570  0.20920  0.96750  Biso   1.000  C
  C73      1.0000 0.00120  0.15210  0.96830  Biso   1.000  C
  C74      1.0000 0.05500  0.14510  0.92950  Biso   1.000  C
  C75      1.0000 0.06000  0.19140  0.88890  Biso   1.000  C
  C76      1.0000 0.92130  0.04490  0.07300  Biso   1.000  C
  C77      1.0000 0.98600  0.02050  0.09310  Biso   1.000  C
  C78      1.0000 0.05620  0.03680  0.07400  Biso   1.000  C
  C79      1.0000 0.06140  0.07880  0.03240  Biso   1.000  C
  C80      1.0000 0.99600  0.10500  0.01050  Biso   1.000  C
  C81      1.0000 0.92510  0.08810  0.03300  Biso   1.000  C
  C82      1.0000 0.88560  0.47150  0.84520  Biso   1.000  C
  C83      1.0000 0.79860  0.48770  0.87330  Biso   1.000  C
  C84      1.0000 0.73750  0.48510  0.84290  Biso   1.000  C
  C85      1.0000 0.66560  0.50260  0.85850  Biso   1.000  C
  C86      1.0000 0.65740  0.52440  0.90640  Biso   1.000  C
  C87      1.0000 0.72000  0.52700  0.94000  Biso   1.000  C
  C88      1.0000 0.79000  0.50640  0.92340  Biso   1.000  C
  C89      1.0000 0.16720  0.43140  0.83040  Biso   1.000  C
  C90      1.0000 0.23860  0.46050  0.85810  Biso   1.000  C
  C91      1.0000 0.23780  0.51800  0.88160  Biso   1.000  C
  C92      1.0000 0.30430  0.54220  0.90320  Biso   1.000  C
  C93      1.0000 0.37150  0.50650  0.90340  Biso   1.000  C
  C94      1.0000 0.37120  0.45010  0.87890  Biso   1.000  C
  C95      1.0000 0.30610  0.42650  0.85530  Biso   1.000  C
  C96      1.0000 0.47400  0.79470  0.15200  Biso   1.000  C
  C97      1.0000 0.48450  0.74590  0.11120  Biso   1.000  C
  C98      1.0000 0.53730  0.75260  0.07020  Biso   1.000  C
  C99      1.0000 0.54430  0.70920  0.03250  Biso   1.000  C
  C100     1.0000 0.49880  0.65210  0.03170  Biso   1.000  C
  C101     1.0000 0.44500  0.64510  0.07050  Biso   1.000  C
  C102     1.0000 0.44000  0.69140  0.11110  Biso   1.000  C
  C103     1.0000 0.57870  0.54490  0.92700  Biso   1.000  C
  C104     1.0000 0.51400  0.52050  0.90690  Biso   1.000  C
  C105     1.0000 0.44380  0.53680  0.92600  Biso   1.000  C
  C106     1.0000 0.43860  0.57880  0.96760  Biso   1.000  C
  C107     1.0000 0.50400  0.60500  0.98950  Biso   1.000  C
  C108     1.0000 0.57490  0.58810  0.96700  Biso   1.000  C
  O1       1.0000 0.56560  0.98350  0.37610  Biso   1.000  O
  O2       1.0000 0.61980  0.93290  0.31360  Biso   1.000  O
  O3       1.0000 0.32630  0.88440  0.30626  Biso   1.000  O
  O4       1.0000 0.39390  0.96520  0.33930  Biso   1.000  O
  O5       1.0000 0.06330  0.28100  0.69142  Biso   1.000  O
  O6       1.0000 0.00010  0.35020  0.64210  Biso   1.000  O
  O7       1.0000 0.93440  0.48350  0.62390  Biso   1.000  O
  O8       1.0000 0.88020  0.43290  0.68640  Biso   1.000  O
  O9       1.0000 0.17370  0.38440  0.69374  Biso   1.000  O
  O10      1.0000 0.10610  0.46520  0.66070  Biso   1.000  O
  O11      1.0000 0.43670  0.78100  0.30858  Biso   1.000  O
  O12      1.0000 0.49990  0.85020  0.35790  Biso   1.000  O
  O13      1.0000 0.56560  0.98350  0.12390  Biso   1.000  O
  O14      1.0000 0.61980  0.93290  0.18640  Biso   1.000  O
  O15      1.0000 0.32630  0.88440  0.19374  Biso   1.000  O
  O16      1.0000 0.39390  0.96520  0.16070  Biso   1.000  O
  O17      1.0000 0.06330  0.28100  0.80858  Biso   1.000  O
  O18      1.0000 0.00010  0.35020  0.85790  Biso   1.000  O
  O19      1.0000 0.93440  0.48350  0.87610  Biso   1.000  O
  O20      1.0000 0.88020  0.43290  0.81360  Biso   1.000  O
  O21      1.0000 0.17370  0.38440  0.80626  Biso   1.000  O
  O22      1.0000 0.10610  0.46520  0.83930  Biso   1.000  O
  O23      1.0000 0.43670  0.78100  0.19142  Biso   1.000  O
  O24      1.0000 0.49990  0.85020  0.14210  Biso   1.000  O
  O25      1.0000 0.29560  0.76870  0.25000  Biso   1.000  O
  O26      1.0000 0.48210  0.89430  0.25000  Biso   1.000  O
  O27      1.0000 0.20440  0.26870  0.75000  Biso   1.000  O
  O28      1.0000 0.01790  0.39430  0.75000  Biso   1.000  O
  Co7      1.0000 0.50386  0.06493  0.81779  Biso   1.000  Co
  Co8      1.0000 0.99614  0.56493  0.18221  Biso   1.000  Co
  Co9      1.0000 0.50386  0.06493  0.68221  Biso   1.000  Co
  Co10     1.0000 0.99614  0.56493  0.31779  Biso   1.000  Co
  Co11     1.0000 0.61315  0.16463  0.75000  Biso   1.000  Co
  Co12     1.0000 0.88685  0.66463  0.25000  Biso   1.000  Co
  H61      1.0000 0.24370  0.02960  0.80850  Biso   1.000  H
  H62      1.0000 0.12420  0.00090  0.83580  Biso   1.000  H
  H63      1.0000 0.21420  0.95710  0.97410  Biso   1.000  H
  H64      1.0000 0.33100  0.99450  0.94660  Biso   1.000  H
  H65      1.0000 0.69290  0.95850  0.88340  Biso   1.000  H
  H66      1.0000 0.80410  0.91700  0.91790  Biso   1.000  H
  H67      1.0000 0.91570  0.07400  0.87760  Biso   1.000  H
  H68      1.0000 0.80760  0.11240  0.83750  Biso   1.000  H
  H69      1.0000 0.06850  0.71130  0.06950  Biso   1.000  H
  H70      1.0000 0.07960  0.78400  0.00570  Biso   1.000  H
  H71      1.0000 0.91200  0.88970  0.07010  Biso   1.000  H
  H72      1.0000 0.90570  0.81510  0.13850  Biso   1.000  H
  H73      1.0000 0.01710  0.00850  0.87910  Biso   1.000  H
  H74      1.0000 0.89110  0.91030  0.98110  Biso   1.000  H
  H75      1.0000 0.11940  0.89340  0.97980  Biso   1.000  H
  H76      1.0000 0.25630  0.52960  0.19150  Biso   1.000  H
  H77      1.0000 0.37580  0.50090  0.16420  Biso   1.000  H
  H78      1.0000 0.28580  0.45710  0.02590  Biso   1.000  H
  H79      1.0000 0.16900  0.49450  0.05340  Biso   1.000  H
  H80      1.0000 0.80710  0.45850  0.11660  Biso   1.000  H
  H81      1.0000 0.69590  0.41700  0.08210  Biso   1.000  H
  H82      1.0000 0.58430  0.57400  0.12240  Biso   1.000  H
  H83      1.0000 0.69240  0.61240  0.16250  Biso   1.000  H
  H84      1.0000 0.43150  0.21130  0.93050  Biso   1.000  H
  H85      1.0000 0.42040  0.28400  0.99430  Biso   1.000  H
  H86      1.0000 0.58800  0.38970  0.92990  Biso   1.000  H
  H87      1.0000 0.59430  0.31510  0.86150  Biso   1.000  H
  H88      1.0000 0.48290  0.50850  0.12090  Biso   1.000  H
  H89      1.0000 0.60890  0.41030  0.01890  Biso   1.000  H
  H90      1.0000 0.38060  0.39340  0.02020  Biso   1.000  H
  H91      1.0000 0.24370  0.02960  0.69150  Biso   1.000  H
  H92      1.0000 0.12420  0.00090  0.66420  Biso   1.000  H
  H93      1.0000 0.21420  0.95710  0.52590  Biso   1.000  H
  H94      1.0000 0.33100  0.99450  0.55340  Biso   1.000  H
  H95      1.0000 0.69290  0.95850  0.61660  Biso   1.000  H
  H96      1.0000 0.80410  0.91700  0.58210  Biso   1.000  H
  H97      1.0000 0.91570  0.07400  0.62240  Biso   1.000  H
  H98      1.0000 0.80760  0.11240  0.66250  Biso   1.000  H
  H99      1.0000 0.06850  0.71130  0.43050  Biso   1.000  H
  H100     1.0000 0.07960  0.78400  0.49430  Biso   1.000  H
  H101     1.0000 0.91200  0.88970  0.42990  Biso   1.000  H
  H102     1.0000 0.90570  0.81510  0.36150  Biso   1.000  H
  H103     1.0000 0.01710  0.00850  0.62090  Biso   1.000  H
  H104     1.0000 0.89110  0.91030  0.51890  Biso   1.000  H
  H105     1.0000 0.11940  0.89340  0.52020  Biso   1.000  H
  H106     1.0000 0.25630  0.52960  0.30850  Biso   1.000  H
  H107     1.0000 0.37580  0.50090  0.33580  Biso   1.000  H
  H108     1.0000 0.28580  0.45710  0.47410  Biso   1.000  H
  H109     1.0000 0.16900  0.49450  0.44660  Biso   1.000  H
  H110     1.0000 0.80710  0.45850  0.38340  Biso   1.000  H
  H111     1.0000 0.69590  0.41700  0.41790  Biso   1.000  H
  H112     1.0000 0.58430  0.57400  0.37760  Biso   1.000  H
  H113     1.0000 0.69240  0.61240  0.33750  Biso   1.000  H
  H114     1.0000 0.43150  0.21130  0.56950  Biso   1.000  H
  H115     1.0000 0.42040  0.28400  0.50570  Biso   1.000  H
  H116     1.0000 0.58800  0.38970  0.57010  Biso   1.000  H
  H117     1.0000 0.59430  0.31510  0.63850  Biso   1.000  H
  H118     1.0000 0.48290  0.50850  0.37910  Biso   1.000  H
  H119     1.0000 0.60890  0.41030  0.48110  Biso   1.000  H
  H120     1.0000 0.38060  0.39340  0.47980  Biso   1.000  H
  C109     1.0000 0.38560  0.02850  0.84520  Biso   1.000  C
  C110     1.0000 0.29860  0.01230  0.87330  Biso   1.000  C
  C111     1.0000 0.23750  0.01490  0.84290  Biso   1.000  C
  C112     1.0000 0.16560  0.99740  0.85850  Biso   1.000  C
  C113     1.0000 0.15740  0.97560  0.90640  Biso   1.000  C
  C114     1.0000 0.22000  0.97300  0.94000  Biso   1.000  C
  C115     1.0000 0.29000  0.99360  0.92340  Biso   1.000  C
  C116     1.0000 0.66720  0.06860  0.83040  Biso   1.000  C
  C117     1.0000 0.73860  0.03950  0.85810  Biso   1.000  C
  C118     1.0000 0.73780  0.98200  0.88160  Biso   1.000  C
  C119     1.0000 0.80430  0.95780  0.90320  Biso   1.000  C
  C120     1.0000 0.87150  0.99350  0.90340  Biso   1.000  C
  C121     1.0000 0.87120  0.04990  0.87890  Biso   1.000  C
  C122     1.0000 0.80610  0.07350  0.85530  Biso   1.000  C
  C123     1.0000 0.97400  0.70530  0.15200  Biso   1.000  C
  C124     1.0000 0.98450  0.75410  0.11120  Biso   1.000  C
  C125     1.0000 0.03730  0.74740  0.07020  Biso   1.000  C
  C126     1.0000 0.04430  0.79080  0.03250  Biso   1.000  C
  C127     1.0000 0.99880  0.84790  0.03170  Biso   1.000  C
  C128     1.0000 0.94500  0.85490  0.07050  Biso   1.000  C
  C129     1.0000 0.94000  0.80860  0.11110  Biso   1.000  C
  C130     1.0000 0.07870  0.95510  0.92700  Biso   1.000  C
  C131     1.0000 0.01400  0.97950  0.90690  Biso   1.000  C
  C132     1.0000 0.94380  0.96320  0.92600  Biso   1.000  C
  C133     1.0000 0.93860  0.92120  0.96760  Biso   1.000  C
  C134     1.0000 0.00400  0.89500  0.98950  Biso   1.000  C
  C135     1.0000 0.07490  0.91190  0.96700  Biso   1.000  C
  C136     1.0000 0.11440  0.52850  0.15480  Biso   1.000  C
  C137     1.0000 0.20140  0.51230  0.12670  Biso   1.000  C
  C138     1.0000 0.26250  0.51490  0.15710  Biso   1.000  C
  C139     1.0000 0.33440  0.49740  0.14150  Biso   1.000  C
  C140     1.0000 0.34260  0.47560  0.09360  Biso   1.000  C
  C141     1.0000 0.28000  0.47300  0.06000  Biso   1.000  C
  C142     1.0000 0.21000  0.49360  0.07660  Biso   1.000  C
  C143     1.0000 0.83280  0.56860  0.16960  Biso   1.000  C
  C144     1.0000 0.76140  0.53950  0.14190  Biso   1.000  C
  C145     1.0000 0.76220  0.48200  0.11840  Biso   1.000  C
  C146     1.0000 0.69570  0.45780  0.09680  Biso   1.000  C
  C147     1.0000 0.62850  0.49350  0.09660  Biso   1.000  C
  C148     1.0000 0.62880  0.54990  0.12110  Biso   1.000  C
  C149     1.0000 0.69390  0.57350  0.14470  Biso   1.000  C
  C150     1.0000 0.52600  0.20530  0.84800  Biso   1.000  C
  C151     1.0000 0.51550  0.25410  0.88880  Biso   1.000  C
  C152     1.0000 0.46270  0.24740  0.92980  Biso   1.000  C
  C153     1.0000 0.45570  0.29080  0.96750  Biso   1.000  C
  C154     1.0000 0.50120  0.34790  0.96830  Biso   1.000  C
  C155     1.0000 0.55500  0.35490  0.92950  Biso   1.000  C
  C156     1.0000 0.56000  0.30860  0.88890  Biso   1.000  C
  C157     1.0000 0.42130  0.45510  0.07300  Biso   1.000  C
  C158     1.0000 0.48600  0.47950  0.09310  Biso   1.000  C
  C159     1.0000 0.55620  0.46320  0.07400  Biso   1.000  C
  C160     1.0000 0.56140  0.42120  0.03240  Biso   1.000  C
  C161     1.0000 0.49600  0.39500  0.01050  Biso   1.000  C
  C162     1.0000 0.42510  0.41190  0.03300  Biso   1.000  C
  C163     1.0000 0.38560  0.02850  0.65480  Biso   1.000  C
  C164     1.0000 0.29860  0.01230  0.62670  Biso   1.000  C
  C165     1.0000 0.23750  0.01490  0.65710  Biso   1.000  C
  C166     1.0000 0.16560  0.99740  0.64150  Biso   1.000  C
  C167     1.0000 0.15740  0.97560  0.59360  Biso   1.000  C
  C168     1.0000 0.22000  0.97300  0.56000  Biso   1.000  C
  C169     1.0000 0.29000  0.99360  0.57660  Biso   1.000  C
  C170     1.0000 0.66720  0.06860  0.66960  Biso   1.000  C
  C171     1.0000 0.73860  0.03950  0.64190  Biso   1.000  C
  C172     1.0000 0.73780  0.98200  0.61840  Biso   1.000  C
  C173     1.0000 0.80430  0.95780  0.59680  Biso   1.000  C
  C174     1.0000 0.87150  0.99350  0.59660  Biso   1.000  C
  C175     1.0000 0.87120  0.04990  0.62110  Biso   1.000  C
  C176     1.0000 0.80610  0.07350  0.64470  Biso   1.000  C
  C177     1.0000 0.97400  0.70530  0.34800  Biso   1.000  C
  C178     1.0000 0.98450  0.75410  0.38880  Biso   1.000  C
  C179     1.0000 0.03730  0.74740  0.42980  Biso   1.000  C
  C180     1.0000 0.04430  0.79080  0.46750  Biso   1.000  C
  C181     1.0000 0.99880  0.84790  0.46830  Biso   1.000  C
  C182     1.0000 0.94500  0.85490  0.42950  Biso   1.000  C
  C183     1.0000 0.94000  0.80860  0.38890  Biso   1.000  C
  C184     1.0000 0.07870  0.95510  0.57300  Biso   1.000  C
  C185     1.0000 0.01400  0.97950  0.59310  Biso   1.000  C
  C186     1.0000 0.94380  0.96320  0.57400  Biso   1.000  C
  C187     1.0000 0.93860  0.92120  0.53240  Biso   1.000  C
  C188     1.0000 0.00400  0.89500  0.51050  Biso   1.000  C
  C189     1.0000 0.07490  0.91190  0.53300  Biso   1.000  C
  C190     1.0000 0.11440  0.52850  0.34520  Biso   1.000  C
  C191     1.0000 0.20140  0.51230  0.37330  Biso   1.000  C
  C192     1.0000 0.26250  0.51490  0.34290  Biso   1.000  C
  C193     1.0000 0.33440  0.49740  0.35850  Biso   1.000  C
  C194     1.0000 0.34260  0.47560  0.40640  Biso   1.000  C
  C195     1.0000 0.28000  0.47300  0.44000  Biso   1.000  C
  C196     1.0000 0.21000  0.49360  0.42340  Biso   1.000  C
  C197     1.0000 0.83280  0.56860  0.33040  Biso   1.000  C
  C198     1.0000 0.76140  0.53950  0.35810  Biso   1.000  C
  C199     1.0000 0.76220  0.48200  0.38160  Biso   1.000  C
  C200     1.0000 0.69570  0.45780  0.40320  Biso   1.000  C
  C201     1.0000 0.62850  0.49350  0.40340  Biso   1.000  C
  C202     1.0000 0.62880  0.54990  0.37890  Biso   1.000  C
  C203     1.0000 0.69390  0.57350  0.35530  Biso   1.000  C
  C204     1.0000 0.52600  0.20530  0.65200  Biso   1.000  C
  C205     1.0000 0.51550  0.25410  0.61120  Biso   1.000  C
  C206     1.0000 0.46270  0.24740  0.57020  Biso   1.000  C
  C207     1.0000 0.45570  0.29080  0.53250  Biso   1.000  C
  C208     1.0000 0.50120  0.34790  0.53170  Biso   1.000  C
  C209     1.0000 0.55500  0.35490  0.57050  Biso   1.000  C
  C210     1.0000 0.56000  0.30860  0.61110  Biso   1.000  C
  C211     1.0000 0.42130  0.45510  0.42700  Biso   1.000  C
  C212     1.0000 0.48600  0.47950  0.40690  Biso   1.000  C
  C213     1.0000 0.55620  0.46320  0.42600  Biso   1.000  C
  C214     1.0000 0.56140  0.42120  0.46760  Biso   1.000  C
  C215     1.0000 0.49600  0.39500  0.48950  Biso   1.000  C
  C216     1.0000 0.42510  0.41190  0.46700  Biso   1.000  C
  O29      1.0000 0.43440  0.01650  0.87610  Biso   1.000  O
  O30      1.0000 0.38020  0.06710  0.81360  Biso   1.000  O
  O31      1.0000 0.67370  0.11560  0.80626  Biso   1.000  O
  O32      1.0000 0.60610  0.03480  0.83930  Biso   1.000  O
  O33      1.0000 0.93670  0.71900  0.19142  Biso   1.000  O
  O34      1.0000 0.99990  0.64980  0.14210  Biso   1.000  O
  O35      1.0000 0.06560  0.51650  0.12390  Biso   1.000  O
  O36      1.0000 0.11980  0.56710  0.18640  Biso   1.000  O
  O37      1.0000 0.82630  0.61560  0.19374  Biso   1.000  O
  O38      1.0000 0.89390  0.53480  0.16070  Biso   1.000  O
  O39      1.0000 0.56330  0.21900  0.80858  Biso   1.000  O
  O40      1.0000 0.50010  0.14980  0.85790  Biso   1.000  O
  O41      1.0000 0.43440  0.01650  0.62390  Biso   1.000  O
  O42      1.0000 0.38020  0.06710  0.68640  Biso   1.000  O
  O43      1.0000 0.67370  0.11560  0.69374  Biso   1.000  O
  O44      1.0000 0.60610  0.03480  0.66070  Biso   1.000  O
  O45      1.0000 0.93670  0.71900  0.30858  Biso   1.000  O
  O46      1.0000 0.99990  0.64980  0.35790  Biso   1.000  O
  O47      1.0000 0.06560  0.51650  0.37610  Biso   1.000  O
  O48      1.0000 0.11980  0.56710  0.31360  Biso   1.000  O
  O49      1.0000 0.82630  0.61560  0.30626  Biso   1.000  O
  O50      1.0000 0.89390  0.53480  0.33930  Biso   1.000  O
  O51      1.0000 0.56330  0.21900  0.69142  Biso   1.000  O
  O52      1.0000 0.50010  0.14980  0.64210  Biso   1.000  O
  O53      1.0000 0.70440  0.23130  0.75000  Biso   1.000  O
  O54      1.0000 0.51790  0.10570  0.75000  Biso   1.000  O
  O55      1.0000 0.79560  0.73130  0.25000  Biso   1.000  O
  O56      1.0000 0.98210  0.60570  0.25000  Biso   1.000  O
