data_image0
_cell_length_a       10.6761
_cell_length_b       10.7356
_cell_length_c       11.9637
_cell_angle_alpha    69.991
_cell_angle_beta     77.562
_cell_angle_gamma    60.8412

_symmetry_space_group_name_H-M    P 1
_symmetry_int_tables_number       1

loop_
  _symmetry_equiv_pos_as_xyz
  'x, y, z'

loop_
  _atom_site_label
  _atom_site_occupancy
  _atom_site_fract_x
  _atom_site_fract_y
  _atom_site_fract_z
  _atom_site_thermal_displace_type
  _atom_site_B_iso_or_equiv
  _atom_site_type_symbol
  Dy1      1.0000 0.54863  0.99837  0.16145  Biso   1.000  Dy
  Dy2      1.0000 0.45137  0.00163  0.83855  Biso   1.000  Dy
  Cu1      1.0000 0.00000  0.00000  0.00000  Biso   1.000  Cu
  Cu2      1.0000 0.00000  0.00000  0.50000  Biso   1.000  Cu
  H1       1.0000 0.01060  0.27220  0.51470  Biso   1.000  H
  H2       1.0000 0.91130  0.52130  0.43010  Biso   1.000  H
  H3       1.0000 0.69260  0.47970  0.22700  Biso   1.000  H
  H4       1.0000 0.79190  0.23280  0.32090  Biso   1.000  H
  H5       1.0000 0.99950  0.71830  0.18480  Biso   1.000  H
  H6       1.0000 0.13280  0.46520  0.21970  Biso   1.000  H
  H7       1.0000 0.39480  0.53140  0.93500  Biso   1.000  H
  H8       1.0000 0.25570  0.78160  0.90560  Biso   1.000  H
  H9       1.0000 0.71400  0.03900  0.29800  Biso   1.000  H
  H10      1.0000 0.59000  0.15300  0.29900  Biso   1.000  H
  H11      1.0000 0.98940  0.72780  0.48530  Biso   1.000  H
  H12      1.0000 0.08870  0.47870  0.56990  Biso   1.000  H
  H13      1.0000 0.30740  0.52030  0.77300  Biso   1.000  H
  H14      1.0000 0.20810  0.76720  0.67910  Biso   1.000  H
  H15      1.0000 0.00050  0.28170  0.81520  Biso   1.000  H
  H16      1.0000 0.86720  0.53480  0.78030  Biso   1.000  H
  H17      1.0000 0.60520  0.46860  0.06500  Biso   1.000  H
  H18      1.0000 0.74430  0.21840  0.09440  Biso   1.000  H
  H19      1.0000 0.28600  0.96100  0.70200  Biso   1.000  H
  H20      1.0000 0.41000  0.84700  0.70100  Biso   1.000  H
  C1       1.0000 0.17780  0.97870  0.28320  Biso   1.000  C
  C2       1.0000 0.17160  0.98810  0.16390  Biso   1.000  C
  C3       1.0000 0.28260  0.96530  0.35680  Biso   1.000  C
  C4       1.0000 0.26560  0.00440  0.05620  Biso   1.000  C
  C5       1.0000 0.94420  0.31420  0.45720  Biso   1.000  C
  C6       1.0000 0.88560  0.46400  0.40550  Biso   1.000  C
  C7       1.0000 0.78820  0.53300  0.31670  Biso   1.000  C
  C8       1.0000 0.75600  0.44100  0.28600  Biso   1.000  C
  C9       1.0000 0.81700  0.29200  0.34330  Biso   1.000  C
  C10      1.0000 0.72330  0.69570  0.25410  Biso   1.000  C
  C11      1.0000 0.07770  0.67950  0.13340  Biso   1.000  C
  C12      1.0000 0.15800  0.52860  0.15490  Biso   1.000  C
  C13      1.0000 0.27600  0.47120  0.08020  Biso   1.000  C
  C14      1.0000 0.31410  0.56740  0.98530  Biso   1.000  C
  C15      1.0000 0.22990  0.71640  0.96810  Biso   1.000  C
  C16      1.0000 0.37140  0.30350  0.10820  Biso   1.000  C
  C17      1.0000 0.82220  0.02130  0.71680  Biso   1.000  C
  C18      1.0000 0.82840  0.01190  0.83610  Biso   1.000  C
  C19      1.0000 0.71740  0.03470  0.64320  Biso   1.000  C
  C20      1.0000 0.73440  0.99560  0.94380  Biso   1.000  C
  C21      1.0000 0.05580  0.68580  0.54280  Biso   1.000  C
  C22      1.0000 0.11440  0.53600  0.59450  Biso   1.000  C
  C23      1.0000 0.21180  0.46700  0.68330  Biso   1.000  C
  C24      1.0000 0.24400  0.55900  0.71400  Biso   1.000  C
  C25      1.0000 0.18300  0.70800  0.65670  Biso   1.000  C
  C26      1.0000 0.27670  0.30430  0.74590  Biso   1.000  C
  C27      1.0000 0.92230  0.32050  0.86660  Biso   1.000  C
  C28      1.0000 0.84200  0.47140  0.84510  Biso   1.000  C
  C29      1.0000 0.72400  0.52880  0.91980  Biso   1.000  C
  C30      1.0000 0.68590  0.43260  0.01470  Biso   1.000  C
  C31      1.0000 0.77010  0.28360  0.03190  Biso   1.000  C
  C32      1.0000 0.62860  0.69650  0.89180  Biso   1.000  C
  N1       1.0000 0.05940  0.97830  0.33720  Biso   1.000  N
  N2       1.0000 0.97910  0.97860  0.25980  Biso   1.000  N
  N3       1.0000 0.04710  0.99180  0.15530  Biso   1.000  N
  N4       1.0000 0.90930  0.22670  0.42810  Biso   1.000  N
  N5       1.0000 0.11230  0.77260  0.03700  Biso   1.000  N
  N6       1.0000 0.94060  0.02170  0.66280  Biso   1.000  N
  N7       1.0000 0.02090  0.02140  0.74020  Biso   1.000  N
  N8       1.0000 0.95290  0.00820  0.84470  Biso   1.000  N
  N9       1.0000 0.09070  0.77330  0.57190  Biso   1.000  N
  N10      1.0000 0.88770  0.22740  0.96300  Biso   1.000  N
  O1       1.0000 0.23560  0.99290  0.45580  Biso   1.000  O
  O2       1.0000 0.41410  0.92560  0.31490  Biso   1.000  O
  O3       1.0000 0.38260  0.00650  0.05500  Biso   1.000  O
  O4       1.0000 0.22140  0.01450  0.95810  Biso   1.000  O
  O5       1.0000 0.73720  0.78210  0.29370  Biso   1.000  O
  O6       1.0000 0.64540  0.74180  0.17100  Biso   1.000  O
  O7       1.0000 0.48750  0.25170  0.04460  Biso   1.000  O
  O8       1.0000 0.33350  0.21830  0.19210  Biso   1.000  O
  O9       1.0000 0.63040  0.07960  0.27780  Biso   1.000  O
  O10      1.0000 0.76440  0.00710  0.54420  Biso   1.000  O
  O11      1.0000 0.58590  0.07440  0.68510  Biso   1.000  O
  O12      1.0000 0.61740  0.99350  0.94500  Biso   1.000  O
  O13      1.0000 0.77860  0.98550  0.04190  Biso   1.000  O
  O14      1.0000 0.26280  0.21790  0.70630  Biso   1.000  O
  O15      1.0000 0.35460  0.25820  0.82900  Biso   1.000  O
  O16      1.0000 0.51250  0.74830  0.95540  Biso   1.000  O
  O17      1.0000 0.66650  0.78170  0.80790  Biso   1.000  O
  O18      1.0000 0.36960  0.92040  0.72220  Biso   1.000  O
