data_image0
_cell_length_a       18.8306
_cell_length_b       18.8306
_cell_length_c       20.968
_cell_angle_alpha    63.3184
_cell_angle_beta     63.3184
_cell_angle_gamma    60

_symmetry_space_group_name_H-M    P 1
_symmetry_int_tables_number       1

loop_
  _symmetry_equiv_pos_as_xyz
  'x, y, z'

loop_
  _atom_site_label
  _atom_site_occupancy
  _atom_site_fract_x
  _atom_site_fract_y
  _atom_site_fract_z
  _atom_site_thermal_displace_type
  _atom_site_B_iso_or_equiv
  _atom_site_type_symbol
  Cu1      1.0000 0.06586  0.49792  0.93830  Biso   1.000  Cu
  Cu2      1.0000 0.49792  0.49792  0.93830  Biso   1.000  Cu
  Cu3      1.0000 0.49792  0.06586  0.93830  Biso   1.000  Cu
  Cu4      1.0000 0.93414  0.50208  0.06170  Biso   1.000  Cu
  Cu5      1.0000 0.50208  0.93414  0.06170  Biso   1.000  Cu
  Cu6      1.0000 0.50208  0.50208  0.06170  Biso   1.000  Cu
  H1       1.0000 0.03120  0.53460  0.18990  Biso   1.000  H
  H2       1.0000 0.92610  0.49920  0.43590  Biso   1.000  H
  H3       1.0000 0.16540  0.46510  0.81130  Biso   1.000  H
  H4       1.0000 0.53460  0.24430  0.18990  Biso   1.000  H
  H5       1.0000 0.49920  0.13880  0.43590  Biso   1.000  H
  H6       1.0000 0.46510  0.55820  0.81130  Biso   1.000  H
  H7       1.0000 0.24430  0.03120  0.18990  Biso   1.000  H
  H8       1.0000 0.13880  0.92610  0.43590  Biso   1.000  H
  H9       1.0000 0.55820  0.16540  0.81130  Biso   1.000  H
  H10      1.0000 0.96880  0.75570  0.81010  Biso   1.000  H
  H11      1.0000 0.07390  0.86120  0.56410  Biso   1.000  H
  H12      1.0000 0.83460  0.44180  0.18870  Biso   1.000  H
  H13      1.0000 0.46540  0.96880  0.81010  Biso   1.000  H
  H14      1.0000 0.50080  0.07390  0.56410  Biso   1.000  H
  H15      1.0000 0.53490  0.83460  0.18870  Biso   1.000  H
  H16      1.0000 0.75570  0.46540  0.81010  Biso   1.000  H
  H17      1.0000 0.86120  0.50080  0.56410  Biso   1.000  H
  H18      1.0000 0.44180  0.53490  0.18870  Biso   1.000  H
  H19      1.0000 0.96880  0.46540  0.81010  Biso   1.000  H
  H20      1.0000 0.07390  0.50080  0.56410  Biso   1.000  H
  H21      1.0000 0.83460  0.53490  0.18870  Biso   1.000  H
  H22      1.0000 0.46540  0.75570  0.81010  Biso   1.000  H
  H23      1.0000 0.50080  0.86120  0.56410  Biso   1.000  H
  H24      1.0000 0.53490  0.44180  0.18870  Biso   1.000  H
  H25      1.0000 0.75570  0.96880  0.81010  Biso   1.000  H
  H26      1.0000 0.86120  0.07390  0.56410  Biso   1.000  H
  H27      1.0000 0.44180  0.83460  0.18870  Biso   1.000  H
  H28      1.0000 0.03120  0.24430  0.18990  Biso   1.000  H
  H29      1.0000 0.92610  0.13880  0.43590  Biso   1.000  H
  H30      1.0000 0.16540  0.55820  0.81130  Biso   1.000  H
  H31      1.0000 0.53460  0.03120  0.18990  Biso   1.000  H
  H32      1.0000 0.49920  0.92610  0.43590  Biso   1.000  H
  H33      1.0000 0.46510  0.16540  0.81130  Biso   1.000  H
  H34      1.0000 0.24430  0.53460  0.18990  Biso   1.000  H
  H35      1.0000 0.13880  0.49920  0.43590  Biso   1.000  H
  H36      1.0000 0.55820  0.46510  0.81130  Biso   1.000  H
  H37      1.0000 0.23050  0.53150  0.00750  Biso   1.000  H
  H38      1.0000 0.53150  0.23050  0.00750  Biso   1.000  H
  H39      1.0000 0.23050  0.23050  0.00750  Biso   1.000  H
  H40      1.0000 0.76950  0.76950  0.99250  Biso   1.000  H
  H41      1.0000 0.46850  0.76950  0.99250  Biso   1.000  H
  H42      1.0000 0.76950  0.46850  0.99250  Biso   1.000  H
  C1       1.0000 0.07525  0.52618  0.05568  Biso   1.000  C
  C2       1.0000 0.12261  0.53248  0.09174  Biso   1.000  C
  C3       1.0000 0.08616  0.53488  0.16476  Biso   1.000  C
  C4       1.0000 0.95525  0.50148  0.46038  Biso   1.000  C
  C5       1.0000 0.52618  0.34289  0.05568  Biso   1.000  C
  C6       1.0000 0.53248  0.25317  0.09174  Biso   1.000  C
  C7       1.0000 0.53488  0.21420  0.16476  Biso   1.000  C
  C8       1.0000 0.50148  0.08289  0.46038  Biso   1.000  C
  C9       1.0000 0.34289  0.07525  0.05568  Biso   1.000  C
  C10      1.0000 0.25317  0.12261  0.09174  Biso   1.000  C
  C11      1.0000 0.21420  0.08616  0.16476  Biso   1.000  C
  C12      1.0000 0.08289  0.95525  0.46038  Biso   1.000  C
  C13      1.0000 0.92475  0.65711  0.94432  Biso   1.000  C
  C14      1.0000 0.87739  0.74683  0.90826  Biso   1.000  C
  C15      1.0000 0.91384  0.78580  0.83524  Biso   1.000  C
  C16      1.0000 0.04475  0.91711  0.53962  Biso   1.000  C
  C17      1.0000 0.47382  0.92475  0.94432  Biso   1.000  C
  C18      1.0000 0.46752  0.87739  0.90826  Biso   1.000  C
  C19      1.0000 0.46512  0.91384  0.83524  Biso   1.000  C
  C20      1.0000 0.49852  0.04475  0.53962  Biso   1.000  C
  C21      1.0000 0.65711  0.47382  0.94432  Biso   1.000  C
  C22      1.0000 0.74683  0.46752  0.90826  Biso   1.000  C
  C23      1.0000 0.78580  0.46512  0.83524  Biso   1.000  C
  C24      1.0000 0.91711  0.49852  0.53962  Biso   1.000  C
  C25      1.0000 0.92475  0.47382  0.94432  Biso   1.000  C
  C26      1.0000 0.87739  0.46752  0.90826  Biso   1.000  C
  C27      1.0000 0.91384  0.46512  0.83524  Biso   1.000  C
  C28      1.0000 0.04475  0.49852  0.53962  Biso   1.000  C
  C29      1.0000 0.47382  0.65711  0.94432  Biso   1.000  C
  C30      1.0000 0.46752  0.74683  0.90826  Biso   1.000  C
  C31      1.0000 0.46512  0.78580  0.83524  Biso   1.000  C
  C32      1.0000 0.49852  0.91711  0.53962  Biso   1.000  C
  C33      1.0000 0.65711  0.92475  0.94432  Biso   1.000  C
  C34      1.0000 0.74683  0.87739  0.90826  Biso   1.000  C
  C35      1.0000 0.78580  0.91384  0.83524  Biso   1.000  C
  C36      1.0000 0.91711  0.04475  0.53962  Biso   1.000  C
  C37      1.0000 0.07525  0.34289  0.05568  Biso   1.000  C
  C38      1.0000 0.12261  0.25317  0.09174  Biso   1.000  C
  C39      1.0000 0.08616  0.21420  0.16476  Biso   1.000  C
  C40      1.0000 0.95525  0.08289  0.46038  Biso   1.000  C
  C41      1.0000 0.52618  0.07525  0.05568  Biso   1.000  C
  C42      1.0000 0.53248  0.12261  0.09174  Biso   1.000  C
  C43      1.0000 0.53488  0.08616  0.16476  Biso   1.000  C
  C44      1.0000 0.50148  0.95525  0.46038  Biso   1.000  C
  C45      1.0000 0.34289  0.52618  0.05568  Biso   1.000  C
  C46      1.0000 0.25317  0.53248  0.09174  Biso   1.000  C
  C47      1.0000 0.21420  0.53488  0.16476  Biso   1.000  C
  C48      1.0000 0.08289  0.50148  0.46038  Biso   1.000  C
  C49      1.0000 0.20551  0.53206  0.05691  Biso   1.000  C
  C50      1.0000 0.13058  0.53775  0.20109  Biso   1.000  C
  C51      1.0000 0.09479  0.53259  0.27783  Biso   1.000  C
  C52      1.0000 0.07021  0.51539  0.34419  Biso   1.000  C
  C53      1.0000 0.03480  0.50761  0.42279  Biso   1.000  C
  C54      1.0000 0.53206  0.20552  0.05690  Biso   1.000  C
  C55      1.0000 0.53775  0.13058  0.20109  Biso   1.000  C
  C56      1.0000 0.53259  0.09479  0.27783  Biso   1.000  C
  C57      1.0000 0.51539  0.07021  0.34419  Biso   1.000  C
  C58      1.0000 0.50761  0.03480  0.42279  Biso   1.000  C
  C59      1.0000 0.20552  0.20552  0.05690  Biso   1.000  C
  C60      1.0000 0.13058  0.13058  0.20109  Biso   1.000  C
  C61      1.0000 0.09479  0.09479  0.27783  Biso   1.000  C
  C62      1.0000 0.07021  0.07021  0.34419  Biso   1.000  C
  C63      1.0000 0.03480  0.03480  0.42279  Biso   1.000  C
  C64      1.0000 0.79449  0.79448  0.94309  Biso   1.000  C
  C65      1.0000 0.86942  0.86942  0.79891  Biso   1.000  C
  C66      1.0000 0.90521  0.90521  0.72217  Biso   1.000  C
  C67      1.0000 0.92979  0.92979  0.65581  Biso   1.000  C
  C68      1.0000 0.96520  0.96520  0.57721  Biso   1.000  C
  C69      1.0000 0.46794  0.79449  0.94309  Biso   1.000  C
  C70      1.0000 0.46225  0.86942  0.79891  Biso   1.000  C
  C71      1.0000 0.46741  0.90521  0.72217  Biso   1.000  C
  C72      1.0000 0.48461  0.92979  0.65581  Biso   1.000  C
  C73      1.0000 0.49239  0.96520  0.57721  Biso   1.000  C
  C74      1.0000 0.79448  0.46794  0.94309  Biso   1.000  C
  C75      1.0000 0.86942  0.46225  0.79891  Biso   1.000  C
  C76      1.0000 0.90521  0.46741  0.72217  Biso   1.000  C
  C77      1.0000 0.92979  0.48461  0.65581  Biso   1.000  C
  C78      1.0000 0.96520  0.49239  0.57721  Biso   1.000  C
  O1       1.0000 0.00412  0.52407  0.09261  Biso   1.000  O
  O2       1.0000 0.11453  0.51987  0.99022  Biso   1.000  O
  O3       1.0000 0.52407  0.37920  0.09261  Biso   1.000  O
  O4       1.0000 0.51987  0.37538  0.99022  Biso   1.000  O
  O5       1.0000 0.37920  0.00412  0.09261  Biso   1.000  O
  O6       1.0000 0.37538  0.11453  0.99022  Biso   1.000  O
  O7       1.0000 0.99588  0.62080  0.90739  Biso   1.000  O
  O8       1.0000 0.88547  0.62462  0.00978  Biso   1.000  O
  O9       1.0000 0.47593  0.99588  0.90739  Biso   1.000  O
  O10      1.0000 0.48013  0.88547  0.00978  Biso   1.000  O
  O11      1.0000 0.62080  0.47593  0.90739  Biso   1.000  O
  O12      1.0000 0.62462  0.48013  0.00978  Biso   1.000  O
  O13      1.0000 0.99588  0.47593  0.90739  Biso   1.000  O
  O14      1.0000 0.88547  0.48013  0.00978  Biso   1.000  O
  O15      1.0000 0.47593  0.62080  0.90739  Biso   1.000  O
  O16      1.0000 0.48013  0.62462  0.00978  Biso   1.000  O
  O17      1.0000 0.62080  0.99588  0.90739  Biso   1.000  O
  O18      1.0000 0.62462  0.88547  0.00978  Biso   1.000  O
  O19      1.0000 0.00412  0.37920  0.09261  Biso   1.000  O
  O20      1.0000 0.11453  0.37538  0.99022  Biso   1.000  O
  O21      1.0000 0.52407  0.00412  0.09261  Biso   1.000  O
  O22      1.0000 0.51987  0.11453  0.99022  Biso   1.000  O
  O23      1.0000 0.37920  0.52407  0.09261  Biso   1.000  O
  O24      1.0000 0.37538  0.51987  0.99022  Biso   1.000  O
  O25      1.0000 0.16132  0.50280  0.83308  Biso   1.000  O
  O26      1.0000 0.50280  0.50280  0.83308  Biso   1.000  O
  O27      1.0000 0.50280  0.16132  0.83308  Biso   1.000  O
  O28      1.0000 0.83868  0.49720  0.16692  Biso   1.000  O
  O29      1.0000 0.49720  0.83868  0.16692  Biso   1.000  O
  O30      1.0000 0.49720  0.49720  0.16692  Biso   1.000  O
