data_image0
_cell_length_a       8.2402
_cell_length_b       16.5758
_cell_length_c       26.692
_cell_angle_alpha    90
_cell_angle_beta     90
_cell_angle_gamma    100.848

_symmetry_space_group_name_H-M    P 1
_symmetry_int_tables_number       1

loop_
  _symmetry_equiv_pos_as_xyz
  'x, y, z'

loop_
  _atom_site_label
  _atom_site_occupancy
  _atom_site_fract_x
  _atom_site_fract_y
  _atom_site_fract_z
  _atom_site_thermal_displace_type
  _atom_site_B_iso_or_equiv
  _atom_site_type_symbol
  Pr1      1.0000 0.21513  0.73197  0.74385  Biso   1.000  Pr
  Pr2      1.0000 0.28487  0.26802  0.24385  Biso   1.000  Pr
  Pr3      1.0000 0.78487  0.26802  0.25615  Biso   1.000  Pr
  Pr4      1.0000 0.71513  0.73197  0.75615  Biso   1.000  Pr
  H1       1.0000 0.50100  0.50500  0.78080  Biso   1.000  H
  H2       1.0000 0.25830  0.43160  0.74540  Biso   1.000  H
  H3       1.0000 0.16590  0.43180  0.79690  Biso   1.000  H
  H4       1.0000 0.42790  0.34790  0.77750  Biso   1.000  H
  H5       1.0000 0.24450  0.30570  0.78860  Biso   1.000  H
  H6       1.0000 0.49640  0.42050  0.90400  Biso   1.000  H
  H7       1.0000 0.59220  0.42430  0.85290  Biso   1.000  H
  H8       1.0000 0.32180  0.50410  0.87170  Biso   1.000  H
  H9       1.0000 0.50550  0.54960  0.86450  Biso   1.000  H
  H10      1.0000 0.88600  0.07810  0.81870  Biso   1.000  H
  H11      1.0000 0.04420  0.14070  0.80210  Biso   1.000  H
  H12      1.0000 0.00960  0.01780  0.75420  Biso   1.000  H
  H13      1.0000 0.18050  0.03450  0.78210  Biso   1.000  H
  H14      1.0000 0.89600  0.92300  0.81490  Biso   1.000  H
  H15      1.0000 0.20270  0.95400  0.86620  Biso   1.000  H
  H16      1.0000 0.04510  0.89230  0.88410  Biso   1.000  H
  H17      1.0000 0.07520  0.01780  0.92820  Biso   1.000  H
  H18      1.0000 0.90620  0.99920  0.89930  Biso   1.000  H
  H19      1.0000 0.28700  0.09370  0.01090  Biso   1.000  H
  H20      1.0000 0.47980  0.10160  0.01230  Biso   1.000  H
  H21      1.0000 0.29010  0.16120  0.08710  Biso   1.000  H
  H22      1.0000 0.38170  0.08700  0.09390  Biso   1.000  H
  H23      1.0000 0.65100  0.31820  0.07810  Biso   1.000  H
  H24      1.0000 0.45720  0.30490  0.07720  Biso   1.000  H
  H25      1.0000 0.65340  0.25010  0.00160  Biso   1.000  H
  H26      1.0000 0.55180  0.32050  0.99460  Biso   1.000  H
  H27      1.0000 0.63900  0.17500  0.08580  Biso   1.000  H
  H28      1.0000 0.99900  0.49500  0.28080  Biso   1.000  H
  H29      1.0000 0.24170  0.56840  0.24540  Biso   1.000  H
  H30      1.0000 0.33410  0.56820  0.29690  Biso   1.000  H
  H31      1.0000 0.07210  0.65210  0.27750  Biso   1.000  H
  H32      1.0000 0.25550  0.69430  0.28860  Biso   1.000  H
  H33      1.0000 0.00360  0.57950  0.40400  Biso   1.000  H
  H34      1.0000 0.90780  0.57570  0.35290  Biso   1.000  H
  H35      1.0000 0.17820  0.49590  0.37170  Biso   1.000  H
  H36      1.0000 0.99450  0.45040  0.36450  Biso   1.000  H
  H37      1.0000 0.61400  0.92190  0.31870  Biso   1.000  H
  H38      1.0000 0.45580  0.85930  0.30210  Biso   1.000  H
  H39      1.0000 0.49040  0.98220  0.25420  Biso   1.000  H
  H40      1.0000 0.31950  0.96550  0.28210  Biso   1.000  H
  H41      1.0000 0.60400  0.07700  0.31490  Biso   1.000  H
  H42      1.0000 0.29730  0.04600  0.36620  Biso   1.000  H
  H43      1.0000 0.45490  0.10770  0.38410  Biso   1.000  H
  H44      1.0000 0.42480  0.98220  0.42820  Biso   1.000  H
  H45      1.0000 0.59380  0.00080  0.39930  Biso   1.000  H
  H46      1.0000 0.21300  0.90630  0.51090  Biso   1.000  H
  H47      1.0000 0.02020  0.89840  0.51230  Biso   1.000  H
  H48      1.0000 0.20990  0.83880  0.58710  Biso   1.000  H
  H49      1.0000 0.11830  0.91300  0.59390  Biso   1.000  H
  H50      1.0000 0.84900  0.68180  0.57810  Biso   1.000  H
  H51      1.0000 0.04280  0.69510  0.57720  Biso   1.000  H
  H52      1.0000 0.84660  0.74990  0.50160  Biso   1.000  H
  H53      1.0000 0.94820  0.67950  0.49460  Biso   1.000  H
  H54      1.0000 0.86100  0.82500  0.58580  Biso   1.000  H
  H55      1.0000 0.49900  0.49500  0.21920  Biso   1.000  H
  H56      1.0000 0.74170  0.56840  0.25460  Biso   1.000  H
  H57      1.0000 0.83410  0.56820  0.20310  Biso   1.000  H
  H58      1.0000 0.57210  0.65210  0.22250  Biso   1.000  H
  H59      1.0000 0.75550  0.69430  0.21140  Biso   1.000  H
  H60      1.0000 0.50360  0.57950  0.09600  Biso   1.000  H
  H61      1.0000 0.40780  0.57570  0.14710  Biso   1.000  H
  H62      1.0000 0.67820  0.49590  0.12830  Biso   1.000  H
  H63      1.0000 0.49450  0.45040  0.13550  Biso   1.000  H
  H64      1.0000 0.11400  0.92190  0.18130  Biso   1.000  H
  H65      1.0000 0.95580  0.85930  0.19790  Biso   1.000  H
  H66      1.0000 0.99040  0.98220  0.24580  Biso   1.000  H
  H67      1.0000 0.81950  0.96550  0.21790  Biso   1.000  H
  H68      1.0000 0.10400  0.07700  0.18510  Biso   1.000  H
  H69      1.0000 0.79730  0.04600  0.13380  Biso   1.000  H
  H70      1.0000 0.95490  0.10770  0.11590  Biso   1.000  H
  H71      1.0000 0.92480  0.98220  0.07180  Biso   1.000  H
  H72      1.0000 0.09380  0.00080  0.10070  Biso   1.000  H
  H73      1.0000 0.71300  0.90630  0.98910  Biso   1.000  H
  H74      1.0000 0.52020  0.89840  0.98770  Biso   1.000  H
  H75      1.0000 0.70990  0.83880  0.91290  Biso   1.000  H
  H76      1.0000 0.61830  0.91300  0.90610  Biso   1.000  H
  H77      1.0000 0.34900  0.68180  0.92190  Biso   1.000  H
  H78      1.0000 0.54280  0.69510  0.92280  Biso   1.000  H
  H79      1.0000 0.34660  0.74990  0.99840  Biso   1.000  H
  H80      1.0000 0.44820  0.67950  0.00540  Biso   1.000  H
  H81      1.0000 0.36100  0.82500  0.91420  Biso   1.000  H
  H82      1.0000 0.00100  0.50500  0.71920  Biso   1.000  H
  H83      1.0000 0.75830  0.43160  0.75460  Biso   1.000  H
  H84      1.0000 0.66590  0.43180  0.70310  Biso   1.000  H
  H85      1.0000 0.92790  0.34790  0.72250  Biso   1.000  H
  H86      1.0000 0.74450  0.30570  0.71140  Biso   1.000  H
  H87      1.0000 0.99640  0.42050  0.59600  Biso   1.000  H
  H88      1.0000 0.09220  0.42430  0.64710  Biso   1.000  H
  H89      1.0000 0.82180  0.50410  0.62830  Biso   1.000  H
  H90      1.0000 0.00550  0.54960  0.63550  Biso   1.000  H
  H91      1.0000 0.38600  0.07810  0.68130  Biso   1.000  H
  H92      1.0000 0.54420  0.14070  0.69790  Biso   1.000  H
  H93      1.0000 0.50960  0.01780  0.74580  Biso   1.000  H
  H94      1.0000 0.68050  0.03450  0.71790  Biso   1.000  H
  H95      1.0000 0.39600  0.92300  0.68510  Biso   1.000  H
  H96      1.0000 0.70270  0.95400  0.63380  Biso   1.000  H
  H97      1.0000 0.54510  0.89230  0.61590  Biso   1.000  H
  H98      1.0000 0.57520  0.01780  0.57180  Biso   1.000  H
  H99      1.0000 0.40620  0.99920  0.60070  Biso   1.000  H
  H100     1.0000 0.78700  0.09370  0.48910  Biso   1.000  H
  H101     1.0000 0.97980  0.10160  0.48770  Biso   1.000  H
  H102     1.0000 0.79010  0.16120  0.41290  Biso   1.000  H
  H103     1.0000 0.88170  0.08700  0.40610  Biso   1.000  H
  H104     1.0000 0.15100  0.31820  0.42190  Biso   1.000  H
  H105     1.0000 0.95720  0.30490  0.42280  Biso   1.000  H
  H106     1.0000 0.15340  0.25010  0.49840  Biso   1.000  H
  H107     1.0000 0.05180  0.32050  0.50540  Biso   1.000  H
  H108     1.0000 0.13900  0.17500  0.41420  Biso   1.000  H
  C1       1.0000 0.39630  0.50620  0.79773  Biso   1.000  C
  C2       1.0000 0.27220  0.43070  0.78150  Biso   1.000  C
  C3       1.0000 0.32990  0.35270  0.79654  Biso   1.000  C
  C4       1.0000 0.48480  0.42370  0.86790  Biso   1.000  C
  C5       1.0000 0.42430  0.50240  0.85415  Biso   1.000  C
  C6       1.0000 0.32420  0.28280  0.87800  Biso   1.000  C
  C7       1.0000 0.17630  0.15480  0.88725  Biso   1.000  C
  C8       1.0000 0.34090  0.21240  0.94923  Biso   1.000  C
  C9       1.0000 0.33950  0.58550  0.78356  Biso   1.000  C
  C10      1.0000 0.00580  0.08770  0.81781  Biso   1.000  C
  C11      1.0000 0.06190  0.02090  0.78691  Biso   1.000  C
  C12      1.0000 0.01650  0.93770  0.81330  Biso   1.000  C
  C13      1.0000 0.08290  0.94390  0.86689  Biso   1.000  C
  C14      1.0000 0.02520  0.01250  0.89513  Biso   1.000  C
  C15      1.0000 0.38930  0.12860  0.02143  Biso   1.000  C
  C16      1.0000 0.38740  0.13980  0.07759  Biso   1.000  C
  C17      1.0000 0.55140  0.28080  0.06796  Biso   1.000  C
  C18      1.0000 0.55310  0.26860  0.01126  Biso   1.000  C
  C19      1.0000 0.54710  0.21560  0.15147  Biso   1.000  C
  C20      1.0000 0.07930  0.87100  0.78562  Biso   1.000  C
  C21      1.0000 0.54140  0.19850  0.09500  Biso   1.000  C
  C22      1.0000 0.10370  0.49380  0.29773  Biso   1.000  C
  C23      1.0000 0.22780  0.56930  0.28150  Biso   1.000  C
  C24      1.0000 0.17010  0.64730  0.29654  Biso   1.000  C
  C25      1.0000 0.01520  0.57630  0.36790  Biso   1.000  C
  C26      1.0000 0.07570  0.49760  0.35415  Biso   1.000  C
  C27      1.0000 0.17580  0.71720  0.37800  Biso   1.000  C
  C28      1.0000 0.32370  0.84520  0.38725  Biso   1.000  C
  C29      1.0000 0.15910  0.78760  0.44923  Biso   1.000  C
  C30      1.0000 0.16050  0.41450  0.28356  Biso   1.000  C
  C31      1.0000 0.49420  0.91230  0.31781  Biso   1.000  C
  C32      1.0000 0.43810  0.97910  0.28691  Biso   1.000  C
  C33      1.0000 0.48350  0.06230  0.31330  Biso   1.000  C
  C34      1.0000 0.41710  0.05610  0.36689  Biso   1.000  C
  C35      1.0000 0.47480  0.98750  0.39513  Biso   1.000  C
  C36      1.0000 0.11070  0.87140  0.52143  Biso   1.000  C
  C37      1.0000 0.11260  0.86020  0.57759  Biso   1.000  C
  C38      1.0000 0.94860  0.71920  0.56796  Biso   1.000  C
  C39      1.0000 0.94690  0.73140  0.51126  Biso   1.000  C
  C40      1.0000 0.95290  0.78440  0.65147  Biso   1.000  C
  C41      1.0000 0.42070  0.12900  0.28562  Biso   1.000  C
  C42      1.0000 0.95860  0.80150  0.59500  Biso   1.000  C
  C43      1.0000 0.60370  0.49380  0.20227  Biso   1.000  C
  C44      1.0000 0.72780  0.56930  0.21850  Biso   1.000  C
  C45      1.0000 0.67010  0.64730  0.20346  Biso   1.000  C
  C46      1.0000 0.51520  0.57630  0.13210  Biso   1.000  C
  C47      1.0000 0.57570  0.49760  0.14585  Biso   1.000  C
  C48      1.0000 0.67580  0.71720  0.12200  Biso   1.000  C
  C49      1.0000 0.82370  0.84520  0.11275  Biso   1.000  C
  C50      1.0000 0.65910  0.78760  0.05077  Biso   1.000  C
  C51      1.0000 0.66050  0.41450  0.21644  Biso   1.000  C
  C52      1.0000 0.99420  0.91230  0.18219  Biso   1.000  C
  C53      1.0000 0.93810  0.97910  0.21309  Biso   1.000  C
  C54      1.0000 0.98350  0.06230  0.18670  Biso   1.000  C
  C55      1.0000 0.91710  0.05610  0.13311  Biso   1.000  C
  C56      1.0000 0.97480  0.98750  0.10487  Biso   1.000  C
  C57      1.0000 0.61070  0.87140  0.97857  Biso   1.000  C
  C58      1.0000 0.61260  0.86020  0.92241  Biso   1.000  C
  C59      1.0000 0.44860  0.71920  0.93204  Biso   1.000  C
  C60      1.0000 0.44690  0.73140  0.98874  Biso   1.000  C
  C61      1.0000 0.45290  0.78440  0.84853  Biso   1.000  C
  C62      1.0000 0.92070  0.12900  0.21438  Biso   1.000  C
  C63      1.0000 0.45860  0.80150  0.90500  Biso   1.000  C
  C64      1.0000 0.89630  0.50620  0.70227  Biso   1.000  C
  C65      1.0000 0.77220  0.43070  0.71850  Biso   1.000  C
  C66      1.0000 0.82990  0.35270  0.70346  Biso   1.000  C
  C67      1.0000 0.98480  0.42370  0.63210  Biso   1.000  C
  C68      1.0000 0.92430  0.50240  0.64585  Biso   1.000  C
  C69      1.0000 0.82420  0.28280  0.62200  Biso   1.000  C
  C70      1.0000 0.67630  0.15480  0.61275  Biso   1.000  C
  C71      1.0000 0.84090  0.21240  0.55077  Biso   1.000  C
  C72      1.0000 0.83950  0.58550  0.71644  Biso   1.000  C
  C73      1.0000 0.50580  0.08770  0.68219  Biso   1.000  C
  C74      1.0000 0.56190  0.02090  0.71309  Biso   1.000  C
  C75      1.0000 0.51650  0.93770  0.68670  Biso   1.000  C
  C76      1.0000 0.58290  0.94390  0.63311  Biso   1.000  C
  C77      1.0000 0.52520  0.01250  0.60487  Biso   1.000  C
  C78      1.0000 0.88930  0.12860  0.47857  Biso   1.000  C
  C79      1.0000 0.88740  0.13980  0.42241  Biso   1.000  C
  C80      1.0000 0.05140  0.28080  0.43204  Biso   1.000  C
  C81      1.0000 0.05310  0.26860  0.48874  Biso   1.000  C
  C82      1.0000 0.04710  0.21560  0.34853  Biso   1.000  C
  C83      1.0000 0.57930  0.87100  0.71438  Biso   1.000  C
  C84      1.0000 0.04140  0.19850  0.40500  Biso   1.000  C
  N1       1.0000 0.36730  0.35200  0.85003  Biso   1.000  N
  N2       1.0000 0.21830  0.22030  0.85687  Biso   1.000  N
  N3       1.0000 0.39100  0.28280  0.92338  Biso   1.000  N
  N4       1.0000 0.23150  0.14750  0.93387  Biso   1.000  N
  N5       1.0000 0.06930  0.08930  0.86861  Biso   1.000  N
  N6       1.0000 0.40840  0.20780  0.99564  Biso   1.000  N
  N7       1.0000 0.13270  0.64800  0.35003  Biso   1.000  N
  N8       1.0000 0.28170  0.77970  0.35687  Biso   1.000  N
  N9       1.0000 0.10900  0.71720  0.42338  Biso   1.000  N
  N10      1.0000 0.26850  0.85250  0.43387  Biso   1.000  N
  N11      1.0000 0.43070  0.91070  0.36861  Biso   1.000  N
  N12      1.0000 0.09160  0.79220  0.49564  Biso   1.000  N
  N13      1.0000 0.63270  0.64800  0.14997  Biso   1.000  N
  N14      1.0000 0.78170  0.77970  0.14313  Biso   1.000  N
  N15      1.0000 0.60900  0.71720  0.07662  Biso   1.000  N
  N16      1.0000 0.76850  0.85250  0.06613  Biso   1.000  N
  N17      1.0000 0.93070  0.91070  0.13139  Biso   1.000  N
  N18      1.0000 0.59160  0.79220  0.00436  Biso   1.000  N
  N19      1.0000 0.86730  0.35200  0.64997  Biso   1.000  N
  N20      1.0000 0.71830  0.22030  0.64313  Biso   1.000  N
  N21      1.0000 0.89100  0.28280  0.57662  Biso   1.000  N
  N22      1.0000 0.73150  0.14750  0.56613  Biso   1.000  N
  N23      1.0000 0.56930  0.08930  0.63139  Biso   1.000  N
  N24      1.0000 0.90840  0.20780  0.50436  Biso   1.000  N
  O1       1.0000 0.44280  0.64560  0.76659  Biso   1.000  O
  O2       1.0000 0.19080  0.59120  0.78753  Biso   1.000  O
  O3       1.0000 0.98780  0.79840  0.78472  Biso   1.000  O
  O4       1.0000 0.27340  0.65480  0.66549  Biso   1.000  O
  O5       1.0000 0.41410  0.20830  0.17494  Biso   1.000  O
  O6       1.0000 0.21830  0.88350  0.76595  Biso   1.000  O
  O7       1.0000 0.69040  0.23890  0.16997  Biso   1.000  O
  O8       1.0000 0.05720  0.35440  0.26659  Biso   1.000  O
  O9       1.0000 0.30920  0.40880  0.28753  Biso   1.000  O
  O10      1.0000 0.51220  0.20160  0.28472  Biso   1.000  O
  O11      1.0000 0.22660  0.34520  0.16549  Biso   1.000  O
  O12      1.0000 0.08590  0.79170  0.67494  Biso   1.000  O
  O13      1.0000 0.28170  0.11650  0.26595  Biso   1.000  O
  O14      1.0000 0.80960  0.76110  0.66997  Biso   1.000  O
  O15      1.0000 0.55720  0.35440  0.23341  Biso   1.000  O
  O16      1.0000 0.80920  0.40880  0.21247  Biso   1.000  O
  O17      1.0000 0.01220  0.20160  0.21528  Biso   1.000  O
  O18      1.0000 0.72660  0.34520  0.33451  Biso   1.000  O
  O19      1.0000 0.58590  0.79170  0.82506  Biso   1.000  O
  O20      1.0000 0.78170  0.11650  0.23405  Biso   1.000  O
  O21      1.0000 0.30960  0.76110  0.83003  Biso   1.000  O
  O22      1.0000 0.94280  0.64560  0.73341  Biso   1.000  O
  O23      1.0000 0.69080  0.59120  0.71247  Biso   1.000  O
  O24      1.0000 0.48780  0.79840  0.71528  Biso   1.000  O
  O25      1.0000 0.77340  0.65480  0.83451  Biso   1.000  O
  O26      1.0000 0.91410  0.20830  0.32506  Biso   1.000  O
  O27      1.0000 0.71830  0.88350  0.73405  Biso   1.000  O
  O28      1.0000 0.19040  0.23890  0.33003  Biso   1.000  O
