data_image0
_cell_length_a       12.695
_cell_length_b       22.6904
_cell_length_c       22.6904
_cell_angle_alpha    90
_cell_angle_beta     90
_cell_angle_gamma    90

_symmetry_space_group_name_H-M    P 1
_symmetry_int_tables_number       1

loop_
  _symmetry_equiv_pos_as_xyz
  'x, y, z'

loop_
  _atom_site_label
  _atom_site_occupancy
  _atom_site_fract_x
  _atom_site_fract_y
  _atom_site_fract_z
  _atom_site_thermal_displace_type
  _atom_site_B_iso_or_equiv
  _atom_site_type_symbol
  Co1      1.0000 0.74665  0.76792  0.75914  Biso   1.000  Co
  Co2      1.0000 0.74665  0.23208  0.24086  Biso   1.000  Co
  Co3      1.0000 0.25335  0.73208  0.25914  Biso   1.000  Co
  Co4      1.0000 0.25335  0.26792  0.74086  Biso   1.000  Co
  H1       1.0000 0.46130  0.21360  0.70840  Biso   1.000  H
  H2       1.0000 0.56060  0.12750  0.72250  Biso   1.000  H
  H3       1.0000 0.33440  0.07060  0.83450  Biso   1.000  H
  H4       1.0000 0.23870  0.15540  0.81270  Biso   1.000  H
  H5       1.0000 0.66360  0.06700  0.77540  Biso   1.000  H
  H6       1.0000 0.75120  0.97800  0.77530  Biso   1.000  H
  H7       1.0000 0.48170  0.89210  0.80760  Biso   1.000  H
  H8       1.0000 0.38970  0.98250  0.80880  Biso   1.000  H
  H9       1.0000 0.30730  0.74940  0.38960  Biso   1.000  H
  H10      1.0000 0.22300  0.75950  0.47870  Biso   1.000  H
  H11      1.0000 0.94880  0.77590  0.39250  Biso   1.000  H
  H12      1.0000 0.04070  0.76530  0.30360  Biso   1.000  H
  H13      1.0000 0.11270  0.71890  0.54980  Biso   1.000  H
  H14      1.0000 0.02000  0.72280  0.63800  Biso   1.000  H
  H15      1.0000 0.80450  0.82940  0.56070  Biso   1.000  H
  H16      1.0000 0.89960  0.82500  0.47180  Biso   1.000  H
  H17      1.0000 0.46130  0.78640  0.29160  Biso   1.000  H
  H18      1.0000 0.56060  0.87250  0.27750  Biso   1.000  H
  H19      1.0000 0.33440  0.92940  0.16550  Biso   1.000  H
  H20      1.0000 0.23870  0.84460  0.18730  Biso   1.000  H
  H21      1.0000 0.66360  0.93300  0.22460  Biso   1.000  H
  H22      1.0000 0.75120  0.02200  0.22470  Biso   1.000  H
  H23      1.0000 0.48170  0.10790  0.19240  Biso   1.000  H
  H24      1.0000 0.38970  0.01750  0.19120  Biso   1.000  H
  H25      1.0000 0.30730  0.25060  0.61040  Biso   1.000  H
  H26      1.0000 0.22300  0.24050  0.52130  Biso   1.000  H
  H27      1.0000 0.94880  0.22410  0.60750  Biso   1.000  H
  H28      1.0000 0.04070  0.23470  0.69640  Biso   1.000  H
  H29      1.0000 0.11270  0.28110  0.45020  Biso   1.000  H
  H30      1.0000 0.02000  0.27720  0.36200  Biso   1.000  H
  H31      1.0000 0.80450  0.17060  0.43930  Biso   1.000  H
  H32      1.0000 0.89960  0.17500  0.52820  Biso   1.000  H
  H33      1.0000 0.53870  0.28640  0.20840  Biso   1.000  H
  H34      1.0000 0.43940  0.37250  0.22250  Biso   1.000  H
  H35      1.0000 0.66560  0.42940  0.33450  Biso   1.000  H
  H36      1.0000 0.76130  0.34460  0.31270  Biso   1.000  H
  H37      1.0000 0.33640  0.43300  0.27540  Biso   1.000  H
  H38      1.0000 0.24880  0.52200  0.27530  Biso   1.000  H
  H39      1.0000 0.51830  0.60790  0.30760  Biso   1.000  H
  H40      1.0000 0.61030  0.51750  0.30880  Biso   1.000  H
  H41      1.0000 0.69270  0.75060  0.88960  Biso   1.000  H
  H42      1.0000 0.77700  0.74050  0.97870  Biso   1.000  H
  H43      1.0000 0.05120  0.72410  0.89250  Biso   1.000  H
  H44      1.0000 0.95930  0.73470  0.80360  Biso   1.000  H
  H45      1.0000 0.88730  0.78110  0.04980  Biso   1.000  H
  H46      1.0000 0.98000  0.77720  0.13800  Biso   1.000  H
  H47      1.0000 0.19550  0.67060  0.06070  Biso   1.000  H
  H48      1.0000 0.10040  0.67500  0.97180  Biso   1.000  H
  H49      1.0000 0.53870  0.71360  0.79160  Biso   1.000  H
  H50      1.0000 0.43940  0.62750  0.77750  Biso   1.000  H
  H51      1.0000 0.66560  0.57060  0.66550  Biso   1.000  H
  H52      1.0000 0.76130  0.65540  0.68730  Biso   1.000  H
  H53      1.0000 0.33640  0.56700  0.72460  Biso   1.000  H
  H54      1.0000 0.24880  0.47800  0.72470  Biso   1.000  H
  H55      1.0000 0.51830  0.39210  0.69240  Biso   1.000  H
  H56      1.0000 0.61030  0.48250  0.69120  Biso   1.000  H
  H57      1.0000 0.69270  0.24940  0.11040  Biso   1.000  H
  H58      1.0000 0.77700  0.25950  0.02130  Biso   1.000  H
  H59      1.0000 0.05120  0.27590  0.10750  Biso   1.000  H
  H60      1.0000 0.95930  0.26530  0.19640  Biso   1.000  H
  H61      1.0000 0.88730  0.21890  0.95020  Biso   1.000  H
  H62      1.0000 0.98000  0.22280  0.86200  Biso   1.000  H
  H63      1.0000 0.19550  0.32940  0.93930  Biso   1.000  H
  H64      1.0000 0.10040  0.32500  0.02820  Biso   1.000  H
  C1       1.0000 0.43320  0.18350  0.73290  Biso   1.000  C
  C2       1.0000 0.49500  0.13250  0.74210  Biso   1.000  C
  C3       1.0000 0.45700  0.09020  0.78050  Biso   1.000  C
  C4       1.0000 0.36150  0.09880  0.80740  Biso   1.000  C
  C5       1.0000 0.30510  0.14970  0.79410  Biso   1.000  C
  C6       1.0000 0.51620  0.03390  0.78740  Biso   1.000  C
  C7       1.0000 0.62500  0.03150  0.78070  Biso   1.000  C
  C8       1.0000 0.67730  0.97880  0.78160  Biso   1.000  C
  C9       1.0000 0.62390  0.92720  0.79160  Biso   1.000  C
  C10      1.0000 0.51840  0.92790  0.80080  Biso   1.000  C
  C11      1.0000 0.46300  0.98170  0.80030  Biso   1.000  C
  C12      1.0000 0.68020  0.86730  0.78550  Biso   1.000  C
  C13      1.0000 0.23300  0.75400  0.39000  Biso   1.000  C
  C14      1.0000 0.18310  0.76010  0.44330  Biso   1.000  C
  C15      1.0000 0.07520  0.76700  0.44570  Biso   1.000  C
  C16      1.0000 0.02280  0.76970  0.39310  Biso   1.000  C
  C17      1.0000 0.07820  0.76320  0.33980  Biso   1.000  C
  C18      1.0000 0.01560  0.77240  0.50170  Biso   1.000  C
  C19      1.0000 0.04990  0.74150  0.55200  Biso   1.000  C
  C20      1.0000 0.99460  0.74340  0.60440  Biso   1.000  C
  C21      1.0000 0.90190  0.77530  0.60760  Biso   1.000  C
  C22      1.0000 0.86700  0.80650  0.55840  Biso   1.000  C
  C23      1.0000 0.92450  0.80420  0.50540  Biso   1.000  C
  C24      1.0000 0.83780  0.77470  0.66280  Biso   1.000  C
  C25      1.0000 0.43320  0.81650  0.26710  Biso   1.000  C
  C26      1.0000 0.49500  0.86750  0.25790  Biso   1.000  C
  C27      1.0000 0.45700  0.90980  0.21950  Biso   1.000  C
  C28      1.0000 0.36150  0.90120  0.19260  Biso   1.000  C
  C29      1.0000 0.30510  0.85030  0.20590  Biso   1.000  C
  C30      1.0000 0.51620  0.96610  0.21260  Biso   1.000  C
  C31      1.0000 0.62500  0.96850  0.21930  Biso   1.000  C
  C32      1.0000 0.67730  0.02120  0.21840  Biso   1.000  C
  C33      1.0000 0.62390  0.07280  0.20840  Biso   1.000  C
  C34      1.0000 0.51840  0.07210  0.19920  Biso   1.000  C
  C35      1.0000 0.46300  0.01830  0.19970  Biso   1.000  C
  C36      1.0000 0.68020  0.13270  0.21450  Biso   1.000  C
  C37      1.0000 0.23300  0.24600  0.61000  Biso   1.000  C
  C38      1.0000 0.18310  0.23990  0.55670  Biso   1.000  C
  C39      1.0000 0.07520  0.23300  0.55430  Biso   1.000  C
  C40      1.0000 0.02280  0.23030  0.60690  Biso   1.000  C
  C41      1.0000 0.07820  0.23680  0.66020  Biso   1.000  C
  C42      1.0000 0.01560  0.22760  0.49830  Biso   1.000  C
  C43      1.0000 0.04990  0.25850  0.44800  Biso   1.000  C
  C44      1.0000 0.99460  0.25660  0.39560  Biso   1.000  C
  C45      1.0000 0.90190  0.22470  0.39240  Biso   1.000  C
  C46      1.0000 0.86700  0.19350  0.44160  Biso   1.000  C
  C47      1.0000 0.92450  0.19580  0.49460  Biso   1.000  C
  C48      1.0000 0.83780  0.22530  0.33720  Biso   1.000  C
  C49      1.0000 0.56680  0.31650  0.23290  Biso   1.000  C
  C50      1.0000 0.50500  0.36750  0.24210  Biso   1.000  C
  C51      1.0000 0.54300  0.40980  0.28050  Biso   1.000  C
  C52      1.0000 0.63850  0.40120  0.30740  Biso   1.000  C
  C53      1.0000 0.69490  0.35030  0.29410  Biso   1.000  C
  C54      1.0000 0.48380  0.46610  0.28740  Biso   1.000  C
  C55      1.0000 0.37500  0.46850  0.28070  Biso   1.000  C
  C56      1.0000 0.32270  0.52120  0.28160  Biso   1.000  C
  C57      1.0000 0.37610  0.57280  0.29160  Biso   1.000  C
  C58      1.0000 0.48160  0.57210  0.30080  Biso   1.000  C
  C59      1.0000 0.53700  0.51830  0.30030  Biso   1.000  C
  C60      1.0000 0.31980  0.63270  0.28550  Biso   1.000  C
  C61      1.0000 0.76700  0.74600  0.89000  Biso   1.000  C
  C62      1.0000 0.81690  0.73990  0.94330  Biso   1.000  C
  C63      1.0000 0.92480  0.73300  0.94570  Biso   1.000  C
  C64      1.0000 0.97720  0.73030  0.89310  Biso   1.000  C
  C65      1.0000 0.92180  0.73680  0.83980  Biso   1.000  C
  C66      1.0000 0.98440  0.72760  0.00170  Biso   1.000  C
  C67      1.0000 0.95010  0.75850  0.05200  Biso   1.000  C
  C68      1.0000 0.00540  0.75660  0.10440  Biso   1.000  C
  C69      1.0000 0.09810  0.72470  0.10760  Biso   1.000  C
  C70      1.0000 0.13300  0.69350  0.05840  Biso   1.000  C
  C71      1.0000 0.07550  0.69580  0.00540  Biso   1.000  C
  C72      1.0000 0.16220  0.72530  0.16280  Biso   1.000  C
  C73      1.0000 0.56680  0.68350  0.76710  Biso   1.000  C
  C74      1.0000 0.50500  0.63250  0.75790  Biso   1.000  C
  C75      1.0000 0.54300  0.59020  0.71950  Biso   1.000  C
  C76      1.0000 0.63850  0.59880  0.69260  Biso   1.000  C
  C77      1.0000 0.69490  0.64970  0.70590  Biso   1.000  C
  C78      1.0000 0.48380  0.53390  0.71260  Biso   1.000  C
  C79      1.0000 0.37500  0.53150  0.71930  Biso   1.000  C
  C80      1.0000 0.32270  0.47880  0.71840  Biso   1.000  C
  C81      1.0000 0.37610  0.42720  0.70840  Biso   1.000  C
  C82      1.0000 0.48160  0.42790  0.69920  Biso   1.000  C
  C83      1.0000 0.53700  0.48170  0.69970  Biso   1.000  C
  C84      1.0000 0.31980  0.36730  0.71450  Biso   1.000  C
  C85      1.0000 0.76700  0.25400  0.11000  Biso   1.000  C
  C86      1.0000 0.81690  0.26010  0.05670  Biso   1.000  C
  C87      1.0000 0.92480  0.26700  0.05430  Biso   1.000  C
  C88      1.0000 0.97720  0.26970  0.10690  Biso   1.000  C
  C89      1.0000 0.92180  0.26320  0.16020  Biso   1.000  C
  C90      1.0000 0.98440  0.27240  0.99830  Biso   1.000  C
  C91      1.0000 0.95010  0.24150  0.94800  Biso   1.000  C
  C92      1.0000 0.00540  0.24340  0.89560  Biso   1.000  C
  C93      1.0000 0.09810  0.27530  0.89240  Biso   1.000  C
  C94      1.0000 0.13300  0.30650  0.94160  Biso   1.000  C
  C95      1.0000 0.07550  0.30420  0.99460  Biso   1.000  C
  C96      1.0000 0.16220  0.27470  0.83720  Biso   1.000  C
  N1       1.0000 0.33990  0.19200  0.75590  Biso   1.000  N
  N2       1.0000 0.18130  0.75430  0.33870  Biso   1.000  N
  N3       1.0000 0.33990  0.80800  0.24410  Biso   1.000  N
  N4       1.0000 0.18130  0.24570  0.66130  Biso   1.000  N
  N5       1.0000 0.66010  0.30800  0.25590  Biso   1.000  N
  N6       1.0000 0.81870  0.74570  0.83870  Biso   1.000  N
  N7       1.0000 0.66010  0.69200  0.74410  Biso   1.000  N
  N8       1.0000 0.81870  0.25430  0.16130  Biso   1.000  N
  O1       1.0000 0.62510  0.82138  0.78596  Biso   1.000  O
  O2       1.0000 0.77730  0.86665  0.77880  Biso   1.000  O
  O3       1.0000 0.74680  0.79381  0.66346  Biso   1.000  O
  O4       1.0000 0.87700  0.74942  0.70794  Biso   1.000  O
  O5       1.0000 0.62510  0.17862  0.21404  Biso   1.000  O
  O6       1.0000 0.77730  0.13335  0.22120  Biso   1.000  O
  O7       1.0000 0.74680  0.20619  0.33654  Biso   1.000  O
  O8       1.0000 0.87700  0.25058  0.29206  Biso   1.000  O
  O9       1.0000 0.37490  0.67862  0.28596  Biso   1.000  O
  O10      1.0000 0.22270  0.63335  0.27880  Biso   1.000  O
  O11      1.0000 0.25320  0.70619  0.16346  Biso   1.000  O
  O12      1.0000 0.12300  0.75058  0.20794  Biso   1.000  O
  O13      1.0000 0.37490  0.32138  0.71404  Biso   1.000  O
  O14      1.0000 0.22270  0.36665  0.72120  Biso   1.000  O
  O15      1.0000 0.25320  0.29381  0.83654  Biso   1.000  O
  O16      1.0000 0.12300  0.24942  0.79206  Biso   1.000  O
  Co5      1.0000 0.74665  0.74086  0.26792  Biso   1.000  Co
  Co6      1.0000 0.74665  0.25914  0.73208  Biso   1.000  Co
  Co7      1.0000 0.25335  0.75914  0.76792  Biso   1.000  Co
  Co8      1.0000 0.25335  0.24086  0.23208  Biso   1.000  Co
  H65      1.0000 0.46130  0.79160  0.71360  Biso   1.000  H
  H66      1.0000 0.56060  0.77750  0.62750  Biso   1.000  H
  H67      1.0000 0.33440  0.66550  0.57060  Biso   1.000  H
  H68      1.0000 0.23870  0.68730  0.65540  Biso   1.000  H
  H69      1.0000 0.66360  0.72460  0.56700  Biso   1.000  H
  H70      1.0000 0.75120  0.72470  0.47800  Biso   1.000  H
  H71      1.0000 0.48170  0.69240  0.39210  Biso   1.000  H
  H72      1.0000 0.38970  0.69120  0.48250  Biso   1.000  H
  H73      1.0000 0.30730  0.11040  0.24940  Biso   1.000  H
  H74      1.0000 0.22300  0.02130  0.25950  Biso   1.000  H
  H75      1.0000 0.94880  0.10750  0.27590  Biso   1.000  H
  H76      1.0000 0.04070  0.19640  0.26530  Biso   1.000  H
  H77      1.0000 0.11270  0.95020  0.21890  Biso   1.000  H
  H78      1.0000 0.02000  0.86200  0.22280  Biso   1.000  H
  H79      1.0000 0.80450  0.93930  0.32940  Biso   1.000  H
  H80      1.0000 0.89960  0.02820  0.32500  Biso   1.000  H
  H81      1.0000 0.46130  0.20840  0.28640  Biso   1.000  H
  H82      1.0000 0.56060  0.22250  0.37250  Biso   1.000  H
  H83      1.0000 0.33440  0.33450  0.42940  Biso   1.000  H
  H84      1.0000 0.23870  0.31270  0.34460  Biso   1.000  H
  H85      1.0000 0.66360  0.27540  0.43300  Biso   1.000  H
  H86      1.0000 0.75120  0.27530  0.52200  Biso   1.000  H
  H87      1.0000 0.48170  0.30760  0.60790  Biso   1.000  H
  H88      1.0000 0.38970  0.30880  0.51750  Biso   1.000  H
  H89      1.0000 0.30730  0.88960  0.75060  Biso   1.000  H
  H90      1.0000 0.22300  0.97870  0.74050  Biso   1.000  H
  H91      1.0000 0.94880  0.89250  0.72410  Biso   1.000  H
  H92      1.0000 0.04070  0.80360  0.73470  Biso   1.000  H
  H93      1.0000 0.11270  0.04980  0.78110  Biso   1.000  H
  H94      1.0000 0.02000  0.13800  0.77720  Biso   1.000  H
  H95      1.0000 0.80450  0.06070  0.67060  Biso   1.000  H
  H96      1.0000 0.89960  0.97180  0.67500  Biso   1.000  H
  H97      1.0000 0.53870  0.70840  0.21360  Biso   1.000  H
  H98      1.0000 0.43940  0.72250  0.12750  Biso   1.000  H
  H99      1.0000 0.66560  0.83450  0.07060  Biso   1.000  H
  H100     1.0000 0.76130  0.81270  0.15540  Biso   1.000  H
  H101     1.0000 0.33640  0.77540  0.06700  Biso   1.000  H
  H102     1.0000 0.24880  0.77530  0.97800  Biso   1.000  H
  H103     1.0000 0.51830  0.80760  0.89210  Biso   1.000  H
  H104     1.0000 0.61030  0.80880  0.98250  Biso   1.000  H
  H105     1.0000 0.69270  0.38960  0.74940  Biso   1.000  H
  H106     1.0000 0.77700  0.47870  0.75950  Biso   1.000  H
  H107     1.0000 0.05120  0.39250  0.77590  Biso   1.000  H
  H108     1.0000 0.95930  0.30360  0.76530  Biso   1.000  H
  H109     1.0000 0.88730  0.54980  0.71890  Biso   1.000  H
  H110     1.0000 0.98000  0.63800  0.72280  Biso   1.000  H
  H111     1.0000 0.19550  0.56070  0.82940  Biso   1.000  H
  H112     1.0000 0.10040  0.47180  0.82500  Biso   1.000  H
  H113     1.0000 0.53870  0.29160  0.78640  Biso   1.000  H
  H114     1.0000 0.43940  0.27750  0.87250  Biso   1.000  H
  H115     1.0000 0.66560  0.16550  0.92940  Biso   1.000  H
  H116     1.0000 0.76130  0.18730  0.84460  Biso   1.000  H
  H117     1.0000 0.33640  0.22460  0.93300  Biso   1.000  H
  H118     1.0000 0.24880  0.22470  0.02200  Biso   1.000  H
  H119     1.0000 0.51830  0.19240  0.10790  Biso   1.000  H
  H120     1.0000 0.61030  0.19120  0.01750  Biso   1.000  H
  H121     1.0000 0.69270  0.61040  0.25060  Biso   1.000  H
  H122     1.0000 0.77700  0.52130  0.24050  Biso   1.000  H
  H123     1.0000 0.05120  0.60750  0.22410  Biso   1.000  H
  H124     1.0000 0.95930  0.69640  0.23470  Biso   1.000  H
  H125     1.0000 0.88730  0.45020  0.28110  Biso   1.000  H
  H126     1.0000 0.98000  0.36200  0.27720  Biso   1.000  H
  H127     1.0000 0.19550  0.43930  0.17060  Biso   1.000  H
  H128     1.0000 0.10040  0.52820  0.17500  Biso   1.000  H
  C97      1.0000 0.43320  0.76710  0.68350  Biso   1.000  C
  C98      1.0000 0.49500  0.75790  0.63250  Biso   1.000  C
  C99      1.0000 0.45700  0.71950  0.59020  Biso   1.000  C
  C100     1.0000 0.36150  0.69260  0.59880  Biso   1.000  C
  C101     1.0000 0.30510  0.70590  0.64970  Biso   1.000  C
  C102     1.0000 0.51620  0.71260  0.53390  Biso   1.000  C
  C103     1.0000 0.62500  0.71930  0.53150  Biso   1.000  C
  C104     1.0000 0.67730  0.71840  0.47880  Biso   1.000  C
  C105     1.0000 0.62390  0.70840  0.42720  Biso   1.000  C
  C106     1.0000 0.51840  0.69920  0.42790  Biso   1.000  C
  C107     1.0000 0.46300  0.69970  0.48170  Biso   1.000  C
  C108     1.0000 0.68020  0.71450  0.36730  Biso   1.000  C
  C109     1.0000 0.23300  0.11000  0.25400  Biso   1.000  C
  C110     1.0000 0.18310  0.05670  0.26010  Biso   1.000  C
  C111     1.0000 0.07520  0.05430  0.26700  Biso   1.000  C
  C112     1.0000 0.02280  0.10690  0.26970  Biso   1.000  C
  C113     1.0000 0.07820  0.16020  0.26320  Biso   1.000  C
  C114     1.0000 0.01560  0.99830  0.27240  Biso   1.000  C
  C115     1.0000 0.04990  0.94800  0.24150  Biso   1.000  C
  C116     1.0000 0.99460  0.89560  0.24340  Biso   1.000  C
  C117     1.0000 0.90190  0.89240  0.27530  Biso   1.000  C
  C118     1.0000 0.86700  0.94160  0.30650  Biso   1.000  C
  C119     1.0000 0.92450  0.99460  0.30420  Biso   1.000  C
  C120     1.0000 0.83780  0.83720  0.27470  Biso   1.000  C
  C121     1.0000 0.43320  0.23290  0.31650  Biso   1.000  C
  C122     1.0000 0.49500  0.24210  0.36750  Biso   1.000  C
  C123     1.0000 0.45700  0.28050  0.40980  Biso   1.000  C
  C124     1.0000 0.36150  0.30740  0.40120  Biso   1.000  C
  C125     1.0000 0.30510  0.29410  0.35030  Biso   1.000  C
  C126     1.0000 0.51620  0.28740  0.46610  Biso   1.000  C
  C127     1.0000 0.62500  0.28070  0.46850  Biso   1.000  C
  C128     1.0000 0.67730  0.28160  0.52120  Biso   1.000  C
  C129     1.0000 0.62390  0.29160  0.57280  Biso   1.000  C
  C130     1.0000 0.51840  0.30080  0.57210  Biso   1.000  C
  C131     1.0000 0.46300  0.30030  0.51830  Biso   1.000  C
  C132     1.0000 0.68020  0.28550  0.63270  Biso   1.000  C
  C133     1.0000 0.23300  0.89000  0.74600  Biso   1.000  C
  C134     1.0000 0.18310  0.94330  0.73990  Biso   1.000  C
  C135     1.0000 0.07520  0.94570  0.73300  Biso   1.000  C
  C136     1.0000 0.02280  0.89310  0.73030  Biso   1.000  C
  C137     1.0000 0.07820  0.83980  0.73680  Biso   1.000  C
  C138     1.0000 0.01560  0.00170  0.72760  Biso   1.000  C
  C139     1.0000 0.04990  0.05200  0.75850  Biso   1.000  C
  C140     1.0000 0.99460  0.10440  0.75660  Biso   1.000  C
  C141     1.0000 0.90190  0.10760  0.72470  Biso   1.000  C
  C142     1.0000 0.86700  0.05840  0.69350  Biso   1.000  C
  C143     1.0000 0.92450  0.00540  0.69580  Biso   1.000  C
  C144     1.0000 0.83780  0.16280  0.72530  Biso   1.000  C
  C145     1.0000 0.56680  0.73290  0.18350  Biso   1.000  C
  C146     1.0000 0.50500  0.74210  0.13250  Biso   1.000  C
  C147     1.0000 0.54300  0.78050  0.09020  Biso   1.000  C
  C148     1.0000 0.63850  0.80740  0.09880  Biso   1.000  C
  C149     1.0000 0.69490  0.79410  0.14970  Biso   1.000  C
  C150     1.0000 0.48380  0.78740  0.03390  Biso   1.000  C
  C151     1.0000 0.37500  0.78070  0.03150  Biso   1.000  C
  C152     1.0000 0.32270  0.78160  0.97880  Biso   1.000  C
  C153     1.0000 0.37610  0.79160  0.92720  Biso   1.000  C
  C154     1.0000 0.48160  0.80080  0.92790  Biso   1.000  C
  C155     1.0000 0.53700  0.80030  0.98170  Biso   1.000  C
  C156     1.0000 0.31980  0.78550  0.86730  Biso   1.000  C
  C157     1.0000 0.76700  0.39000  0.75400  Biso   1.000  C
  C158     1.0000 0.81690  0.44330  0.76010  Biso   1.000  C
  C159     1.0000 0.92480  0.44570  0.76700  Biso   1.000  C
  C160     1.0000 0.97720  0.39310  0.76970  Biso   1.000  C
  C161     1.0000 0.92180  0.33980  0.76320  Biso   1.000  C
  C162     1.0000 0.98440  0.50170  0.77240  Biso   1.000  C
  C163     1.0000 0.95010  0.55200  0.74150  Biso   1.000  C
  C164     1.0000 0.00540  0.60440  0.74340  Biso   1.000  C
  C165     1.0000 0.09810  0.60760  0.77530  Biso   1.000  C
  C166     1.0000 0.13300  0.55840  0.80650  Biso   1.000  C
  C167     1.0000 0.07550  0.50540  0.80420  Biso   1.000  C
  C168     1.0000 0.16220  0.66280  0.77470  Biso   1.000  C
  C169     1.0000 0.56680  0.26710  0.81650  Biso   1.000  C
  C170     1.0000 0.50500  0.25790  0.86750  Biso   1.000  C
  C171     1.0000 0.54300  0.21950  0.90980  Biso   1.000  C
  C172     1.0000 0.63850  0.19260  0.90120  Biso   1.000  C
  C173     1.0000 0.69490  0.20590  0.85030  Biso   1.000  C
  C174     1.0000 0.48380  0.21260  0.96610  Biso   1.000  C
  C175     1.0000 0.37500  0.21930  0.96850  Biso   1.000  C
  C176     1.0000 0.32270  0.21840  0.02120  Biso   1.000  C
  C177     1.0000 0.37610  0.20840  0.07280  Biso   1.000  C
  C178     1.0000 0.48160  0.19920  0.07210  Biso   1.000  C
  C179     1.0000 0.53700  0.19970  0.01830  Biso   1.000  C
  C180     1.0000 0.31980  0.21450  0.13270  Biso   1.000  C
  C181     1.0000 0.76700  0.61000  0.24600  Biso   1.000  C
  C182     1.0000 0.81690  0.55670  0.23990  Biso   1.000  C
  C183     1.0000 0.92480  0.55430  0.23300  Biso   1.000  C
  C184     1.0000 0.97720  0.60690  0.23030  Biso   1.000  C
  C185     1.0000 0.92180  0.66020  0.23680  Biso   1.000  C
  C186     1.0000 0.98440  0.49830  0.22760  Biso   1.000  C
  C187     1.0000 0.95010  0.44800  0.25850  Biso   1.000  C
  C188     1.0000 0.00540  0.39560  0.25660  Biso   1.000  C
  C189     1.0000 0.09810  0.39240  0.22470  Biso   1.000  C
  C190     1.0000 0.13300  0.44160  0.19350  Biso   1.000  C
  C191     1.0000 0.07550  0.49460  0.19580  Biso   1.000  C
  C192     1.0000 0.16220  0.33720  0.22530  Biso   1.000  C
  N9       1.0000 0.33990  0.74410  0.69200  Biso   1.000  N
  N10      1.0000 0.18130  0.16130  0.25430  Biso   1.000  N
  N11      1.0000 0.33990  0.25590  0.30800  Biso   1.000  N
  N12      1.0000 0.18130  0.83870  0.74570  Biso   1.000  N
  N13      1.0000 0.66010  0.75590  0.19200  Biso   1.000  N
  N14      1.0000 0.81870  0.33870  0.75430  Biso   1.000  N
  N15      1.0000 0.66010  0.24410  0.80800  Biso   1.000  N
  N16      1.0000 0.81870  0.66130  0.24570  Biso   1.000  N
  O17      1.0000 0.62510  0.71404  0.32138  Biso   1.000  O
  O18      1.0000 0.77730  0.72120  0.36665  Biso   1.000  O
  O19      1.0000 0.74680  0.83654  0.29381  Biso   1.000  O
  O20      1.0000 0.87700  0.79206  0.24942  Biso   1.000  O
  O21      1.0000 0.62510  0.28596  0.67862  Biso   1.000  O
  O22      1.0000 0.77730  0.27880  0.63335  Biso   1.000  O
  O23      1.0000 0.74680  0.16346  0.70619  Biso   1.000  O
  O24      1.0000 0.87700  0.20794  0.75058  Biso   1.000  O
  O25      1.0000 0.37490  0.78596  0.82138  Biso   1.000  O
  O26      1.0000 0.22270  0.77880  0.86665  Biso   1.000  O
  O27      1.0000 0.25320  0.66346  0.79381  Biso   1.000  O
  O28      1.0000 0.12300  0.70794  0.74942  Biso   1.000  O
  O29      1.0000 0.37490  0.21404  0.17862  Biso   1.000  O
  O30      1.0000 0.22270  0.22120  0.13335  Biso   1.000  O
  O31      1.0000 0.25320  0.33654  0.20619  Biso   1.000  O
  O32      1.0000 0.12300  0.29206  0.25058  Biso   1.000  O
