data_image0
_cell_length_a       12.7315
_cell_length_b       22.614
_cell_length_c       22.614
_cell_angle_alpha    90
_cell_angle_beta     90
_cell_angle_gamma    90

_symmetry_space_group_name_H-M    P 1
_symmetry_int_tables_number       1

loop_
  _symmetry_equiv_pos_as_xyz
  'x, y, z'

loop_
  _atom_site_label
  _atom_site_occupancy
  _atom_site_fract_x
  _atom_site_fract_y
  _atom_site_fract_z
  _atom_site_thermal_displace_type
  _atom_site_B_iso_or_equiv
  _atom_site_type_symbol
  Co1      1.0000 0.25249  0.73827  0.25624  Biso   1.000  Co
  Co2      1.0000 0.25249  0.26173  0.74376  Biso   1.000  Co
  Co3      1.0000 0.74751  0.76173  0.75624  Biso   1.000  Co
  Co4      1.0000 0.74751  0.23827  0.24376  Biso   1.000  Co
  H1       1.0000 0.76240  0.35300  0.31410  Biso   1.000  H
  H2       1.0000 0.66540  0.43610  0.33220  Biso   1.000  H
  H3       1.0000 0.43880  0.37500  0.22560  Biso   1.000  H
  H4       1.0000 0.53990  0.29090  0.21040  Biso   1.000  H
  H5       1.0000 0.60980  0.52470  0.30300  Biso   1.000  H
  H6       1.0000 0.51960  0.61450  0.30210  Biso   1.000  H
  H7       1.0000 0.24790  0.52670  0.27290  Biso   1.000  H
  H8       1.0000 0.34010  0.43920  0.27330  Biso   1.000  H
  H9       1.0000 0.69060  0.73890  0.88610  Biso   1.000  H
  H10      1.0000 0.77760  0.73550  0.97590  Biso   1.000  H
  H11      1.0000 0.05220  0.72200  0.88760  Biso   1.000  H
  H12      1.0000 0.95780  0.73200  0.80040  Biso   1.000  H
  H13      1.0000 0.88010  0.77590  0.04710  Biso   1.000  H
  H14      1.0000 0.97690  0.77640  0.13350  Biso   1.000  H
  H15      1.0000 0.19590  0.67240  0.05860  Biso   1.000  H
  H16      1.0000 0.10180  0.67530  0.97080  Biso   1.000  H
  H17      1.0000 0.76240  0.64700  0.68590  Biso   1.000  H
  H18      1.0000 0.66540  0.56390  0.66780  Biso   1.000  H
  H19      1.0000 0.43880  0.62500  0.77440  Biso   1.000  H
  H20      1.0000 0.53990  0.70910  0.78960  Biso   1.000  H
  H21      1.0000 0.60980  0.47530  0.69700  Biso   1.000  H
  H22      1.0000 0.51960  0.38550  0.69790  Biso   1.000  H
  H23      1.0000 0.24790  0.47330  0.72710  Biso   1.000  H
  H24      1.0000 0.34010  0.56080  0.72670  Biso   1.000  H
  H25      1.0000 0.69060  0.26110  0.11390  Biso   1.000  H
  H26      1.0000 0.77760  0.26450  0.02410  Biso   1.000  H
  H27      1.0000 0.05220  0.27800  0.11240  Biso   1.000  H
  H28      1.0000 0.95780  0.26800  0.19960  Biso   1.000  H
  H29      1.0000 0.88010  0.22410  0.95290  Biso   1.000  H
  H30      1.0000 0.97690  0.22360  0.86650  Biso   1.000  H
  H31      1.0000 0.19590  0.32760  0.94140  Biso   1.000  H
  H32      1.0000 0.10180  0.32470  0.02920  Biso   1.000  H
  H33      1.0000 0.23760  0.14700  0.81410  Biso   1.000  H
  H34      1.0000 0.33460  0.06390  0.83220  Biso   1.000  H
  H35      1.0000 0.56120  0.12500  0.72560  Biso   1.000  H
  H36      1.0000 0.46010  0.20910  0.71040  Biso   1.000  H
  H37      1.0000 0.39020  0.97530  0.80300  Biso   1.000  H
  H38      1.0000 0.48040  0.88550  0.80210  Biso   1.000  H
  H39      1.0000 0.75210  0.97330  0.77290  Biso   1.000  H
  H40      1.0000 0.65990  0.06080  0.77330  Biso   1.000  H
  H41      1.0000 0.30940  0.76110  0.38610  Biso   1.000  H
  H42      1.0000 0.22240  0.76450  0.47590  Biso   1.000  H
  H43      1.0000 0.94780  0.77800  0.38760  Biso   1.000  H
  H44      1.0000 0.04220  0.76800  0.30040  Biso   1.000  H
  H45      1.0000 0.11990  0.72410  0.54710  Biso   1.000  H
  H46      1.0000 0.02310  0.72360  0.63350  Biso   1.000  H
  H47      1.0000 0.80410  0.82760  0.55860  Biso   1.000  H
  H48      1.0000 0.89820  0.82470  0.47080  Biso   1.000  H
  H49      1.0000 0.23760  0.85300  0.18590  Biso   1.000  H
  H50      1.0000 0.33460  0.93610  0.16780  Biso   1.000  H
  H51      1.0000 0.56120  0.87500  0.27440  Biso   1.000  H
  H52      1.0000 0.46010  0.79090  0.28960  Biso   1.000  H
  H53      1.0000 0.39020  0.02470  0.19700  Biso   1.000  H
  H54      1.0000 0.48040  0.11450  0.19790  Biso   1.000  H
  H55      1.0000 0.75210  0.02670  0.22710  Biso   1.000  H
  H56      1.0000 0.65990  0.93920  0.22670  Biso   1.000  H
  H57      1.0000 0.30940  0.23890  0.61390  Biso   1.000  H
  H58      1.0000 0.22240  0.23550  0.52410  Biso   1.000  H
  H59      1.0000 0.94780  0.22200  0.61240  Biso   1.000  H
  H60      1.0000 0.04220  0.23200  0.69960  Biso   1.000  H
  H61      1.0000 0.11990  0.27590  0.45290  Biso   1.000  H
  H62      1.0000 0.02310  0.27640  0.36650  Biso   1.000  H
  H63      1.0000 0.80410  0.17240  0.44140  Biso   1.000  H
  H64      1.0000 0.89820  0.17530  0.52920  Biso   1.000  H
  C1       1.0000 0.69590  0.35750  0.29550  Biso   1.000  C
  C2       1.0000 0.63910  0.40710  0.30560  Biso   1.000  C
  C3       1.0000 0.54370  0.41650  0.27810  Biso   1.000  C
  C4       1.0000 0.50600  0.37170  0.24360  Biso   1.000  C
  C5       1.0000 0.56670  0.32140  0.23500  Biso   1.000  C
  C6       1.0000 0.48330  0.47320  0.28490  Biso   1.000  C
  C7       1.0000 0.53640  0.52530  0.29570  Biso   1.000  C
  C8       1.0000 0.48230  0.57860  0.29590  Biso   1.000  C
  C9       1.0000 0.37770  0.58010  0.28730  Biso   1.000  C
  C10      1.0000 0.32180  0.52670  0.27850  Biso   1.000  C
  C11      1.0000 0.37720  0.47530  0.27830  Biso   1.000  C
  C12      1.0000 0.31990  0.63850  0.28140  Biso   1.000  C
  C13      1.0000 0.76520  0.73740  0.88660  Biso   1.000  C
  C14      1.0000 0.81710  0.73370  0.94030  Biso   1.000  C
  C15      1.0000 0.92270  0.72750  0.94320  Biso   1.000  C
  C16      1.0000 0.97810  0.72660  0.88860  Biso   1.000  C
  C17      1.0000 0.92070  0.73260  0.83680  Biso   1.000  C
  C18      1.0000 0.98260  0.72530  0.00010  Biso   1.000  C
  C19      1.0000 0.94510  0.75540  0.04910  Biso   1.000  C
  C20      1.0000 0.00230  0.75540  0.10010  Biso   1.000  C
  C21      1.0000 0.09620  0.72540  0.10400  Biso   1.000  C
  C22      1.0000 0.13250  0.69440  0.05620  Biso   1.000  C
  C23      1.0000 0.07560  0.69570  0.00440  Biso   1.000  C
  C24      1.0000 0.16120  0.72850  0.15850  Biso   1.000  C
  C25      1.0000 0.69590  0.64250  0.70450  Biso   1.000  C
  C26      1.0000 0.63910  0.59290  0.69440  Biso   1.000  C
  C27      1.0000 0.54370  0.58350  0.72190  Biso   1.000  C
  C28      1.0000 0.50600  0.62830  0.75640  Biso   1.000  C
  C29      1.0000 0.56670  0.67860  0.76500  Biso   1.000  C
  C30      1.0000 0.48330  0.52680  0.71510  Biso   1.000  C
  C31      1.0000 0.53640  0.47470  0.70430  Biso   1.000  C
  C32      1.0000 0.48230  0.42140  0.70410  Biso   1.000  C
  C33      1.0000 0.37770  0.41990  0.71270  Biso   1.000  C
  C34      1.0000 0.32180  0.47330  0.72150  Biso   1.000  C
  C35      1.0000 0.37720  0.52470  0.72170  Biso   1.000  C
  C36      1.0000 0.31990  0.36150  0.71860  Biso   1.000  C
  C37      1.0000 0.76520  0.26260  0.11340  Biso   1.000  C
  C38      1.0000 0.81710  0.26630  0.05970  Biso   1.000  C
  C39      1.0000 0.92270  0.27250  0.05680  Biso   1.000  C
  C40      1.0000 0.97810  0.27340  0.11140  Biso   1.000  C
  C41      1.0000 0.92070  0.26740  0.16320  Biso   1.000  C
  C42      1.0000 0.98260  0.27470  0.99990  Biso   1.000  C
  C43      1.0000 0.94510  0.24460  0.95090  Biso   1.000  C
  C44      1.0000 0.00230  0.24460  0.89990  Biso   1.000  C
  C45      1.0000 0.09620  0.27460  0.89600  Biso   1.000  C
  C46      1.0000 0.13250  0.30560  0.94380  Biso   1.000  C
  C47      1.0000 0.07560  0.30430  0.99560  Biso   1.000  C
  C48      1.0000 0.16120  0.27150  0.84150  Biso   1.000  C
  C49      1.0000 0.30410  0.14250  0.79550  Biso   1.000  C
  C50      1.0000 0.36090  0.09290  0.80560  Biso   1.000  C
  C51      1.0000 0.45630  0.08350  0.77810  Biso   1.000  C
  C52      1.0000 0.49400  0.12830  0.74360  Biso   1.000  C
  C53      1.0000 0.43330  0.17860  0.73500  Biso   1.000  C
  C54      1.0000 0.51670  0.02680  0.78490  Biso   1.000  C
  C55      1.0000 0.46360  0.97470  0.79570  Biso   1.000  C
  C56      1.0000 0.51770  0.92140  0.79590  Biso   1.000  C
  C57      1.0000 0.62230  0.91990  0.78730  Biso   1.000  C
  C58      1.0000 0.67820  0.97330  0.77850  Biso   1.000  C
  C59      1.0000 0.62280  0.02470  0.77830  Biso   1.000  C
  C60      1.0000 0.68010  0.86150  0.78140  Biso   1.000  C
  C61      1.0000 0.23480  0.76260  0.38660  Biso   1.000  C
  C62      1.0000 0.18290  0.76630  0.44030  Biso   1.000  C
  C63      1.0000 0.07730  0.77250  0.44320  Biso   1.000  C
  C64      1.0000 0.02190  0.77340  0.38860  Biso   1.000  C
  C65      1.0000 0.07930  0.76740  0.33680  Biso   1.000  C
  C66      1.0000 0.01740  0.77470  0.50010  Biso   1.000  C
  C67      1.0000 0.05490  0.74460  0.54910  Biso   1.000  C
  C68      1.0000 0.99770  0.74460  0.60010  Biso   1.000  C
  C69      1.0000 0.90380  0.77460  0.60400  Biso   1.000  C
  C70      1.0000 0.86750  0.80560  0.55620  Biso   1.000  C
  C71      1.0000 0.92440  0.80430  0.50440  Biso   1.000  C
  C72      1.0000 0.83880  0.77150  0.65850  Biso   1.000  C
  C73      1.0000 0.30410  0.85750  0.20450  Biso   1.000  C
  C74      1.0000 0.36090  0.90710  0.19440  Biso   1.000  C
  C75      1.0000 0.45630  0.91650  0.22190  Biso   1.000  C
  C76      1.0000 0.49400  0.87170  0.25640  Biso   1.000  C
  C77      1.0000 0.43330  0.82140  0.26500  Biso   1.000  C
  C78      1.0000 0.51670  0.97320  0.21510  Biso   1.000  C
  C79      1.0000 0.46360  0.02530  0.20430  Biso   1.000  C
  C80      1.0000 0.51770  0.07860  0.20410  Biso   1.000  C
  C81      1.0000 0.62230  0.08010  0.21270  Biso   1.000  C
  C82      1.0000 0.67820  0.02670  0.22150  Biso   1.000  C
  C83      1.0000 0.62280  0.97530  0.22170  Biso   1.000  C
  C84      1.0000 0.68010  0.13850  0.21860  Biso   1.000  C
  C85      1.0000 0.23480  0.23740  0.61340  Biso   1.000  C
  C86      1.0000 0.18290  0.23370  0.55970  Biso   1.000  C
  C87      1.0000 0.07730  0.22750  0.55680  Biso   1.000  C
  C88      1.0000 0.02190  0.22660  0.61140  Biso   1.000  C
  C89      1.0000 0.07930  0.23260  0.66320  Biso   1.000  C
  C90      1.0000 0.01740  0.22530  0.49990  Biso   1.000  C
  C91      1.0000 0.05490  0.25540  0.45090  Biso   1.000  C
  C92      1.0000 0.99770  0.25540  0.39990  Biso   1.000  C
  C93      1.0000 0.90380  0.22540  0.39600  Biso   1.000  C
  C94      1.0000 0.86750  0.19440  0.44380  Biso   1.000  C
  C95      1.0000 0.92440  0.19570  0.49560  Biso   1.000  C
  C96      1.0000 0.83880  0.22850  0.34150  Biso   1.000  C
  N1       1.0000 0.65970  0.31410  0.25930  Biso   1.000  N
  N2       1.0000 0.81820  0.73900  0.83510  Biso   1.000  N
  N3       1.0000 0.65970  0.68590  0.74070  Biso   1.000  N
  N4       1.0000 0.81820  0.26100  0.16490  Biso   1.000  N
  N5       1.0000 0.34030  0.18590  0.75930  Biso   1.000  N
  N6       1.0000 0.18180  0.76100  0.33510  Biso   1.000  N
  N7       1.0000 0.34030  0.81410  0.24070  Biso   1.000  N
  N8       1.0000 0.18180  0.23900  0.66490  Biso   1.000  N
  O1       1.0000 0.37410  0.68570  0.28190  Biso   1.000  O
  O2       1.0000 0.22180  0.64010  0.27560  Biso   1.000  O
  O3       1.0000 0.25340  0.71030  0.15990  Biso   1.000  O
  O4       1.0000 0.12160  0.75450  0.20440  Biso   1.000  O
  O5       1.0000 0.37410  0.31430  0.71810  Biso   1.000  O
  O6       1.0000 0.22180  0.35990  0.72440  Biso   1.000  O
  O7       1.0000 0.25340  0.28970  0.84010  Biso   1.000  O
  O8       1.0000 0.12160  0.24550  0.79560  Biso   1.000  O
  O9       1.0000 0.62590  0.81430  0.78190  Biso   1.000  O
  O10      1.0000 0.77820  0.85990  0.77560  Biso   1.000  O
  O11      1.0000 0.74660  0.78970  0.65990  Biso   1.000  O
  O12      1.0000 0.87840  0.74550  0.70440  Biso   1.000  O
  O13      1.0000 0.62590  0.18570  0.21810  Biso   1.000  O
  O14      1.0000 0.77820  0.14010  0.22440  Biso   1.000  O
  O15      1.0000 0.74660  0.21030  0.34010  Biso   1.000  O
  O16      1.0000 0.87840  0.25450  0.29560  Biso   1.000  O
  Co5      1.0000 0.25249  0.24376  0.23827  Biso   1.000  Co
  Co6      1.0000 0.25249  0.75624  0.76173  Biso   1.000  Co
  Co7      1.0000 0.74751  0.25624  0.73827  Biso   1.000  Co
  Co8      1.0000 0.74751  0.74376  0.26173  Biso   1.000  Co
  H65      1.0000 0.76240  0.18590  0.85300  Biso   1.000  H
  H66      1.0000 0.66540  0.16780  0.93610  Biso   1.000  H
  H67      1.0000 0.43880  0.27440  0.87500  Biso   1.000  H
  H68      1.0000 0.53990  0.28960  0.79090  Biso   1.000  H
  H69      1.0000 0.60980  0.19700  0.02470  Biso   1.000  H
  H70      1.0000 0.51960  0.19790  0.11450  Biso   1.000  H
  H71      1.0000 0.24790  0.22710  0.02670  Biso   1.000  H
  H72      1.0000 0.34010  0.22670  0.93920  Biso   1.000  H
  H73      1.0000 0.69060  0.61390  0.23890  Biso   1.000  H
  H74      1.0000 0.77760  0.52410  0.23550  Biso   1.000  H
  H75      1.0000 0.05220  0.61240  0.22200  Biso   1.000  H
  H76      1.0000 0.95780  0.69960  0.23200  Biso   1.000  H
  H77      1.0000 0.88010  0.45290  0.27590  Biso   1.000  H
  H78      1.0000 0.97690  0.36650  0.27640  Biso   1.000  H
  H79      1.0000 0.19590  0.44140  0.17240  Biso   1.000  H
  H80      1.0000 0.10180  0.52920  0.17530  Biso   1.000  H
  H81      1.0000 0.76240  0.81410  0.14700  Biso   1.000  H
  H82      1.0000 0.66540  0.83220  0.06390  Biso   1.000  H
  H83      1.0000 0.43880  0.72560  0.12500  Biso   1.000  H
  H84      1.0000 0.53990  0.71040  0.20910  Biso   1.000  H
  H85      1.0000 0.60980  0.80300  0.97530  Biso   1.000  H
  H86      1.0000 0.51960  0.80210  0.88550  Biso   1.000  H
  H87      1.0000 0.24790  0.77290  0.97330  Biso   1.000  H
  H88      1.0000 0.34010  0.77330  0.06080  Biso   1.000  H
  H89      1.0000 0.69060  0.38610  0.76110  Biso   1.000  H
  H90      1.0000 0.77760  0.47590  0.76450  Biso   1.000  H
  H91      1.0000 0.05220  0.38760  0.77800  Biso   1.000  H
  H92      1.0000 0.95780  0.30040  0.76800  Biso   1.000  H
  H93      1.0000 0.88010  0.54710  0.72410  Biso   1.000  H
  H94      1.0000 0.97690  0.63350  0.72360  Biso   1.000  H
  H95      1.0000 0.19590  0.55860  0.82760  Biso   1.000  H
  H96      1.0000 0.10180  0.47080  0.82470  Biso   1.000  H
  H97      1.0000 0.23760  0.31410  0.35300  Biso   1.000  H
  H98      1.0000 0.33460  0.33220  0.43610  Biso   1.000  H
  H99      1.0000 0.56120  0.22560  0.37500  Biso   1.000  H
  H100     1.0000 0.46010  0.21040  0.29090  Biso   1.000  H
  H101     1.0000 0.39020  0.30300  0.52470  Biso   1.000  H
  H102     1.0000 0.48040  0.30210  0.61450  Biso   1.000  H
  H103     1.0000 0.75210  0.27290  0.52670  Biso   1.000  H
  H104     1.0000 0.65990  0.27330  0.43920  Biso   1.000  H
  H105     1.0000 0.30940  0.88610  0.73890  Biso   1.000  H
  H106     1.0000 0.22240  0.97590  0.73550  Biso   1.000  H
  H107     1.0000 0.94780  0.88760  0.72200  Biso   1.000  H
  H108     1.0000 0.04220  0.80040  0.73200  Biso   1.000  H
  H109     1.0000 0.11990  0.04710  0.77590  Biso   1.000  H
  H110     1.0000 0.02310  0.13350  0.77640  Biso   1.000  H
  H111     1.0000 0.80410  0.05860  0.67240  Biso   1.000  H
  H112     1.0000 0.89820  0.97080  0.67530  Biso   1.000  H
  H113     1.0000 0.23760  0.68590  0.64700  Biso   1.000  H
  H114     1.0000 0.33460  0.66780  0.56390  Biso   1.000  H
  H115     1.0000 0.56120  0.77440  0.62500  Biso   1.000  H
  H116     1.0000 0.46010  0.78960  0.70910  Biso   1.000  H
  H117     1.0000 0.39020  0.69700  0.47530  Biso   1.000  H
  H118     1.0000 0.48040  0.69790  0.38550  Biso   1.000  H
  H119     1.0000 0.75210  0.72710  0.47330  Biso   1.000  H
  H120     1.0000 0.65990  0.72670  0.56080  Biso   1.000  H
  H121     1.0000 0.30940  0.11390  0.26110  Biso   1.000  H
  H122     1.0000 0.22240  0.02410  0.26450  Biso   1.000  H
  H123     1.0000 0.94780  0.11240  0.27800  Biso   1.000  H
  H124     1.0000 0.04220  0.19960  0.26800  Biso   1.000  H
  H125     1.0000 0.11990  0.95290  0.22410  Biso   1.000  H
  H126     1.0000 0.02310  0.86650  0.22360  Biso   1.000  H
  H127     1.0000 0.80410  0.94140  0.32760  Biso   1.000  H
  H128     1.0000 0.89820  0.02920  0.32470  Biso   1.000  H
  C97      1.0000 0.69590  0.20450  0.85750  Biso   1.000  C
  C98      1.0000 0.63910  0.19440  0.90710  Biso   1.000  C
  C99      1.0000 0.54370  0.22190  0.91650  Biso   1.000  C
  C100     1.0000 0.50600  0.25640  0.87170  Biso   1.000  C
  C101     1.0000 0.56670  0.26500  0.82140  Biso   1.000  C
  C102     1.0000 0.48330  0.21510  0.97320  Biso   1.000  C
  C103     1.0000 0.53640  0.20430  0.02530  Biso   1.000  C
  C104     1.0000 0.48230  0.20410  0.07860  Biso   1.000  C
  C105     1.0000 0.37770  0.21270  0.08010  Biso   1.000  C
  C106     1.0000 0.32180  0.22150  0.02670  Biso   1.000  C
  C107     1.0000 0.37720  0.22170  0.97530  Biso   1.000  C
  C108     1.0000 0.31990  0.21860  0.13850  Biso   1.000  C
  C109     1.0000 0.76520  0.61340  0.23740  Biso   1.000  C
  C110     1.0000 0.81710  0.55970  0.23370  Biso   1.000  C
  C111     1.0000 0.92270  0.55680  0.22750  Biso   1.000  C
  C112     1.0000 0.97810  0.61140  0.22660  Biso   1.000  C
  C113     1.0000 0.92070  0.66320  0.23260  Biso   1.000  C
  C114     1.0000 0.98260  0.49990  0.22530  Biso   1.000  C
  C115     1.0000 0.94510  0.45090  0.25540  Biso   1.000  C
  C116     1.0000 0.00230  0.39990  0.25540  Biso   1.000  C
  C117     1.0000 0.09620  0.39600  0.22540  Biso   1.000  C
  C118     1.0000 0.13250  0.44380  0.19440  Biso   1.000  C
  C119     1.0000 0.07560  0.49560  0.19570  Biso   1.000  C
  C120     1.0000 0.16120  0.34150  0.22850  Biso   1.000  C
  C121     1.0000 0.69590  0.79550  0.14250  Biso   1.000  C
  C122     1.0000 0.63910  0.80560  0.09290  Biso   1.000  C
  C123     1.0000 0.54370  0.77810  0.08350  Biso   1.000  C
  C124     1.0000 0.50600  0.74360  0.12830  Biso   1.000  C
  C125     1.0000 0.56670  0.73500  0.17860  Biso   1.000  C
  C126     1.0000 0.48330  0.78490  0.02680  Biso   1.000  C
  C127     1.0000 0.53640  0.79570  0.97470  Biso   1.000  C
  C128     1.0000 0.48230  0.79590  0.92140  Biso   1.000  C
  C129     1.0000 0.37770  0.78730  0.91990  Biso   1.000  C
  C130     1.0000 0.32180  0.77850  0.97330  Biso   1.000  C
  C131     1.0000 0.37720  0.77830  0.02470  Biso   1.000  C
  C132     1.0000 0.31990  0.78140  0.86150  Biso   1.000  C
  C133     1.0000 0.76520  0.38660  0.76260  Biso   1.000  C
  C134     1.0000 0.81710  0.44030  0.76630  Biso   1.000  C
  C135     1.0000 0.92270  0.44320  0.77250  Biso   1.000  C
  C136     1.0000 0.97810  0.38860  0.77340  Biso   1.000  C
  C137     1.0000 0.92070  0.33680  0.76740  Biso   1.000  C
  C138     1.0000 0.98260  0.50010  0.77470  Biso   1.000  C
  C139     1.0000 0.94510  0.54910  0.74460  Biso   1.000  C
  C140     1.0000 0.00230  0.60010  0.74460  Biso   1.000  C
  C141     1.0000 0.09620  0.60400  0.77460  Biso   1.000  C
  C142     1.0000 0.13250  0.55620  0.80560  Biso   1.000  C
  C143     1.0000 0.07560  0.50440  0.80430  Biso   1.000  C
  C144     1.0000 0.16120  0.65850  0.77150  Biso   1.000  C
  C145     1.0000 0.30410  0.29550  0.35750  Biso   1.000  C
  C146     1.0000 0.36090  0.30560  0.40710  Biso   1.000  C
  C147     1.0000 0.45630  0.27810  0.41650  Biso   1.000  C
  C148     1.0000 0.49400  0.24360  0.37170  Biso   1.000  C
  C149     1.0000 0.43330  0.23500  0.32140  Biso   1.000  C
  C150     1.0000 0.51670  0.28490  0.47320  Biso   1.000  C
  C151     1.0000 0.46360  0.29570  0.52530  Biso   1.000  C
  C152     1.0000 0.51770  0.29590  0.57860  Biso   1.000  C
  C153     1.0000 0.62230  0.28730  0.58010  Biso   1.000  C
  C154     1.0000 0.67820  0.27850  0.52670  Biso   1.000  C
  C155     1.0000 0.62280  0.27830  0.47530  Biso   1.000  C
  C156     1.0000 0.68010  0.28140  0.63850  Biso   1.000  C
  C157     1.0000 0.23480  0.88660  0.73740  Biso   1.000  C
  C158     1.0000 0.18290  0.94030  0.73370  Biso   1.000  C
  C159     1.0000 0.07730  0.94320  0.72750  Biso   1.000  C
  C160     1.0000 0.02190  0.88860  0.72660  Biso   1.000  C
  C161     1.0000 0.07930  0.83680  0.73260  Biso   1.000  C
  C162     1.0000 0.01740  0.00010  0.72530  Biso   1.000  C
  C163     1.0000 0.05490  0.04910  0.75540  Biso   1.000  C
  C164     1.0000 0.99770  0.10010  0.75540  Biso   1.000  C
  C165     1.0000 0.90380  0.10400  0.72540  Biso   1.000  C
  C166     1.0000 0.86750  0.05620  0.69440  Biso   1.000  C
  C167     1.0000 0.92440  0.00440  0.69570  Biso   1.000  C
  C168     1.0000 0.83880  0.15850  0.72850  Biso   1.000  C
  C169     1.0000 0.30410  0.70450  0.64250  Biso   1.000  C
  C170     1.0000 0.36090  0.69440  0.59290  Biso   1.000  C
  C171     1.0000 0.45630  0.72190  0.58350  Biso   1.000  C
  C172     1.0000 0.49400  0.75640  0.62830  Biso   1.000  C
  C173     1.0000 0.43330  0.76500  0.67860  Biso   1.000  C
  C174     1.0000 0.51670  0.71510  0.52680  Biso   1.000  C
  C175     1.0000 0.46360  0.70430  0.47470  Biso   1.000  C
  C176     1.0000 0.51770  0.70410  0.42140  Biso   1.000  C
  C177     1.0000 0.62230  0.71270  0.41990  Biso   1.000  C
  C178     1.0000 0.67820  0.72150  0.47330  Biso   1.000  C
  C179     1.0000 0.62280  0.72170  0.52470  Biso   1.000  C
  C180     1.0000 0.68010  0.71860  0.36150  Biso   1.000  C
  C181     1.0000 0.23480  0.11340  0.26260  Biso   1.000  C
  C182     1.0000 0.18290  0.05970  0.26630  Biso   1.000  C
  C183     1.0000 0.07730  0.05680  0.27250  Biso   1.000  C
  C184     1.0000 0.02190  0.11140  0.27340  Biso   1.000  C
  C185     1.0000 0.07930  0.16320  0.26740  Biso   1.000  C
  C186     1.0000 0.01740  0.99990  0.27470  Biso   1.000  C
  C187     1.0000 0.05490  0.95090  0.24460  Biso   1.000  C
  C188     1.0000 0.99770  0.89990  0.24460  Biso   1.000  C
  C189     1.0000 0.90380  0.89600  0.27460  Biso   1.000  C
  C190     1.0000 0.86750  0.94380  0.30560  Biso   1.000  C
  C191     1.0000 0.92440  0.99560  0.30430  Biso   1.000  C
  C192     1.0000 0.83880  0.84150  0.27150  Biso   1.000  C
  N9       1.0000 0.65970  0.24070  0.81410  Biso   1.000  N
  N10      1.0000 0.81820  0.66490  0.23900  Biso   1.000  N
  N11      1.0000 0.65970  0.75930  0.18590  Biso   1.000  N
  N12      1.0000 0.81820  0.33510  0.76100  Biso   1.000  N
  N13      1.0000 0.34030  0.25930  0.31410  Biso   1.000  N
  N14      1.0000 0.18180  0.83510  0.73900  Biso   1.000  N
  N15      1.0000 0.34030  0.74070  0.68590  Biso   1.000  N
  N16      1.0000 0.18180  0.16490  0.26100  Biso   1.000  N
  O17      1.0000 0.37410  0.21810  0.18570  Biso   1.000  O
  O18      1.0000 0.22180  0.22440  0.14010  Biso   1.000  O
  O19      1.0000 0.25340  0.34010  0.21030  Biso   1.000  O
  O20      1.0000 0.12160  0.29560  0.25450  Biso   1.000  O
  O21      1.0000 0.37410  0.78190  0.81430  Biso   1.000  O
  O22      1.0000 0.22180  0.77560  0.85990  Biso   1.000  O
  O23      1.0000 0.25340  0.65990  0.78970  Biso   1.000  O
  O24      1.0000 0.12160  0.70440  0.74550  Biso   1.000  O
  O25      1.0000 0.62590  0.28190  0.68570  Biso   1.000  O
  O26      1.0000 0.77820  0.27560  0.64010  Biso   1.000  O
  O27      1.0000 0.74660  0.15990  0.71030  Biso   1.000  O
  O28      1.0000 0.87840  0.20440  0.75450  Biso   1.000  O
  O29      1.0000 0.62590  0.71810  0.31430  Biso   1.000  O
  O30      1.0000 0.77820  0.72440  0.35990  Biso   1.000  O
  O31      1.0000 0.74660  0.84010  0.28970  Biso   1.000  O
  O32      1.0000 0.87840  0.79560  0.24550  Biso   1.000  O
