data_image0
_cell_length_a       16.2493
_cell_length_b       16.2493
_cell_length_c       22.99
_cell_angle_alpha    73.1216
_cell_angle_beta     73.1216
_cell_angle_gamma    66.2946

_symmetry_space_group_name_H-M    P 1
_symmetry_int_tables_number       1

loop_
  _symmetry_equiv_pos_as_xyz
  'x, y, z'

loop_
  _atom_site_label
  _atom_site_occupancy
  _atom_site_fract_x
  _atom_site_fract_y
  _atom_site_fract_z
  _atom_site_thermal_displace_type
  _atom_site_B_iso_or_equiv
  _atom_site_type_symbol
  Zn1      1.0000 0.99381  0.59657  0.48728  Biso   1.000  Zn
  Zn2      1.0000 0.40343  0.00619  0.01272  Biso   1.000  Zn
  Zn3      1.0000 0.00619  0.40343  0.51272  Biso   1.000  Zn
  Zn4      1.0000 0.59657  0.99381  0.98728  Biso   1.000  Zn
  H1       1.0000 0.22380  0.54080  0.56930  Biso   1.000  H
  H2       1.0000 0.33890  0.50430  0.62080  Biso   1.000  H
  H3       1.0000 0.37090  0.23550  0.64860  Biso   1.000  H
  H4       1.0000 0.24760  0.27660  0.59850  Biso   1.000  H
  H5       1.0000 0.58600  0.25360  0.70080  Biso   1.000  H
  H6       1.0000 0.60850  0.15850  0.79930  Biso   1.000  H
  H7       1.0000 0.33890  0.20030  0.84840  Biso   1.000  H
  H8       1.0000 0.31740  0.30120  0.75280  Biso   1.000  H
  H9       1.0000 0.08010  0.73190  0.40800  Biso   1.000  H
  H10      1.0000 0.10030  0.86050  0.40770  Biso   1.000  H
  H11      1.0000 0.90810  0.88470  0.56130  Biso   1.000  H
  H12      1.0000 0.88840  0.75380  0.55440  Biso   1.000  H
  H13      1.0000 0.03670  0.01110  0.44120  Biso   1.000  H
  H14      1.0000 0.45920  0.77620  0.93070  Biso   1.000  H
  H15      1.0000 0.49570  0.66110  0.87920  Biso   1.000  H
  H16      1.0000 0.76450  0.62910  0.85140  Biso   1.000  H
  H17      1.0000 0.72340  0.75240  0.90150  Biso   1.000  H
  H18      1.0000 0.74640  0.41400  0.79920  Biso   1.000  H
  H19      1.0000 0.84150  0.39150  0.70070  Biso   1.000  H
  H20      1.0000 0.79970  0.66110  0.65160  Biso   1.000  H
  H21      1.0000 0.69880  0.68260  0.74720  Biso   1.000  H
  H22      1.0000 0.26810  0.91990  0.09200  Biso   1.000  H
  H23      1.0000 0.13950  0.89970  0.09230  Biso   1.000  H
  H24      1.0000 0.11530  0.09190  0.93870  Biso   1.000  H
  H25      1.0000 0.24620  0.11160  0.94560  Biso   1.000  H
  H26      1.0000 0.98890  0.96330  0.05880  Biso   1.000  H
  H27      1.0000 0.77620  0.45920  0.43070  Biso   1.000  H
  H28      1.0000 0.66110  0.49570  0.37920  Biso   1.000  H
  H29      1.0000 0.62910  0.76450  0.35140  Biso   1.000  H
  H30      1.0000 0.75240  0.72340  0.40150  Biso   1.000  H
  H31      1.0000 0.41400  0.74640  0.29920  Biso   1.000  H
  H32      1.0000 0.39150  0.84150  0.20070  Biso   1.000  H
  H33      1.0000 0.66110  0.79970  0.15160  Biso   1.000  H
  H34      1.0000 0.68260  0.69880  0.24720  Biso   1.000  H
  H35      1.0000 0.91990  0.26810  0.59200  Biso   1.000  H
  H36      1.0000 0.89970  0.13950  0.59230  Biso   1.000  H
  H37      1.0000 0.09190  0.11530  0.43870  Biso   1.000  H
  H38      1.0000 0.11160  0.24620  0.44560  Biso   1.000  H
  H39      1.0000 0.96330  0.98890  0.55880  Biso   1.000  H
  H40      1.0000 0.54080  0.22380  0.06930  Biso   1.000  H
  H41      1.0000 0.50430  0.33890  0.12080  Biso   1.000  H
  H42      1.0000 0.23550  0.37090  0.14860  Biso   1.000  H
  H43      1.0000 0.27660  0.24760  0.09850  Biso   1.000  H
  H44      1.0000 0.25360  0.58600  0.20080  Biso   1.000  H
  H45      1.0000 0.15850  0.60850  0.29930  Biso   1.000  H
  H46      1.0000 0.20030  0.33890  0.34840  Biso   1.000  H
  H47      1.0000 0.30120  0.31740  0.25280  Biso   1.000  H
  H48      1.0000 0.73190  0.08010  0.90800  Biso   1.000  H
  H49      1.0000 0.86050  0.10030  0.90770  Biso   1.000  H
  H50      1.0000 0.88470  0.90810  0.06130  Biso   1.000  H
  H51      1.0000 0.75380  0.88840  0.05440  Biso   1.000  H
  H52      1.0000 0.01110  0.03670  0.94120  Biso   1.000  H
  C1       1.0000 0.14290  0.44030  0.54970  Biso   1.000  C
  C2       1.0000 0.22260  0.41220  0.57830  Biso   1.000  C
  C3       1.0000 0.25350  0.47810  0.58600  Biso   1.000  C
  C4       1.0000 0.32250  0.45730  0.61560  Biso   1.000  C
  C5       1.0000 0.36820  0.36680  0.63760  Biso   1.000  C
  C6       1.0000 0.34030  0.29810  0.63220  Biso   1.000  C
  C7       1.0000 0.26650  0.32270  0.60210  Biso   1.000  C
  C8       1.0000 0.45030  0.28410  0.71840  Biso   1.000  C
  C9       1.0000 0.53510  0.24350  0.73110  Biso   1.000  C
  C10      1.0000 0.54910  0.18590  0.78960  Biso   1.000  C
  C11      1.0000 0.47580  0.17060  0.83130  Biso   1.000  C
  C12      1.0000 0.38980  0.21160  0.81870  Biso   1.000  C
  C13      1.0000 0.37730  0.27050  0.76150  Biso   1.000  C
  C14      1.0000 0.48950  0.10470  0.89310  Biso   1.000  C
  C15      1.0000 0.04570  0.76190  0.44190  Biso   1.000  C
  C16      1.0000 0.05630  0.84010  0.43960  Biso   1.000  C
  C17      1.0000 0.00330  0.88990  0.48360  Biso   1.000  C
  C18      1.0000 0.94440  0.85400  0.52810  Biso   1.000  C
  C19      1.0000 0.93600  0.77300  0.52610  Biso   1.000  C
  C20      1.0000 0.01090  0.98210  0.48040  Biso   1.000  C
  C21      1.0000 0.55970  0.85710  0.95030  Biso   1.000  C
  C22      1.0000 0.58780  0.77740  0.92170  Biso   1.000  C
  C23      1.0000 0.52190  0.74650  0.91400  Biso   1.000  C
  C24      1.0000 0.54270  0.67750  0.88440  Biso   1.000  C
  C25      1.0000 0.63320  0.63180  0.86240  Biso   1.000  C
  C26      1.0000 0.70190  0.65970  0.86780  Biso   1.000  C
  C27      1.0000 0.67730  0.73350  0.89790  Biso   1.000  C
  C28      1.0000 0.71590  0.54970  0.78160  Biso   1.000  C
  C29      1.0000 0.75650  0.46490  0.76890  Biso   1.000  C
  C30      1.0000 0.81410  0.45090  0.71040  Biso   1.000  C
  C31      1.0000 0.82940  0.52420  0.66870  Biso   1.000  C
  C32      1.0000 0.78840  0.61020  0.68130  Biso   1.000  C
  C33      1.0000 0.72950  0.62270  0.73850  Biso   1.000  C
  C34      1.0000 0.89530  0.51050  0.60690  Biso   1.000  C
  C35      1.0000 0.23810  0.95430  0.05810  Biso   1.000  C
  C36      1.0000 0.15990  0.94370  0.06040  Biso   1.000  C
  C37      1.0000 0.11010  0.99670  0.01640  Biso   1.000  C
  C38      1.0000 0.14600  0.05560  0.97190  Biso   1.000  C
  C39      1.0000 0.22700  0.06400  0.97390  Biso   1.000  C
  C40      1.0000 0.01790  0.98910  0.01960  Biso   1.000  C
  C41      1.0000 0.85710  0.55970  0.45030  Biso   1.000  C
  C42      1.0000 0.77740  0.58780  0.42170  Biso   1.000  C
  C43      1.0000 0.74650  0.52190  0.41400  Biso   1.000  C
  C44      1.0000 0.67750  0.54270  0.38440  Biso   1.000  C
  C45      1.0000 0.63180  0.63320  0.36240  Biso   1.000  C
  C46      1.0000 0.65970  0.70190  0.36780  Biso   1.000  C
  C47      1.0000 0.73350  0.67730  0.39790  Biso   1.000  C
  C48      1.0000 0.54970  0.71590  0.28160  Biso   1.000  C
  C49      1.0000 0.46490  0.75650  0.26890  Biso   1.000  C
  C50      1.0000 0.45090  0.81410  0.21040  Biso   1.000  C
  C51      1.0000 0.52420  0.82940  0.16870  Biso   1.000  C
  C52      1.0000 0.61020  0.78840  0.18130  Biso   1.000  C
  C53      1.0000 0.62270  0.72950  0.23850  Biso   1.000  C
  C54      1.0000 0.51050  0.89530  0.10690  Biso   1.000  C
  C55      1.0000 0.95430  0.23810  0.55810  Biso   1.000  C
  C56      1.0000 0.94370  0.15990  0.56040  Biso   1.000  C
  C57      1.0000 0.99670  0.11010  0.51640  Biso   1.000  C
  C58      1.0000 0.05560  0.14600  0.47190  Biso   1.000  C
  C59      1.0000 0.06400  0.22700  0.47390  Biso   1.000  C
  C60      1.0000 0.98910  0.01790  0.51960  Biso   1.000  C
  C61      1.0000 0.44030  0.14290  0.04970  Biso   1.000  C
  C62      1.0000 0.41220  0.22260  0.07830  Biso   1.000  C
  C63      1.0000 0.47810  0.25350  0.08600  Biso   1.000  C
  C64      1.0000 0.45730  0.32250  0.11560  Biso   1.000  C
  C65      1.0000 0.36680  0.36820  0.13760  Biso   1.000  C
  C66      1.0000 0.29810  0.34030  0.13220  Biso   1.000  C
  C67      1.0000 0.32270  0.26650  0.10210  Biso   1.000  C
  C68      1.0000 0.28410  0.45030  0.21840  Biso   1.000  C
  C69      1.0000 0.24350  0.53510  0.23110  Biso   1.000  C
  C70      1.0000 0.18590  0.54910  0.28960  Biso   1.000  C
  C71      1.0000 0.17060  0.47580  0.33130  Biso   1.000  C
  C72      1.0000 0.21160  0.38980  0.31870  Biso   1.000  C
  C73      1.0000 0.27050  0.37730  0.26150  Biso   1.000  C
  C74      1.0000 0.10470  0.48950  0.39310  Biso   1.000  C
  C75      1.0000 0.76190  0.04570  0.94190  Biso   1.000  C
  C76      1.0000 0.84010  0.05630  0.93960  Biso   1.000  C
  C77      1.0000 0.88990  0.00330  0.98360  Biso   1.000  C
  C78      1.0000 0.85400  0.94440  0.02810  Biso   1.000  C
  C79      1.0000 0.77300  0.93600  0.02610  Biso   1.000  C
  C80      1.0000 0.98210  0.01090  0.98040  Biso   1.000  C
  N1       1.0000 0.99410  0.72170  0.48470  Biso   1.000  N
  N2       1.0000 0.27830  0.00590  0.01530  Biso   1.000  N
  N3       1.0000 0.00590  0.27830  0.51530  Biso   1.000  N
  N4       1.0000 0.72170  0.99410  0.98470  Biso   1.000  N
  O1       1.0000 0.10510  0.52330  0.52870  Biso   1.000  O
  O2       1.0000 0.11620  0.37780  0.54890  Biso   1.000  O
  O3       1.0000 0.44250  0.34530  0.66200  Biso   1.000  O
  O4       1.0000 0.56820  0.07520  0.90620  Biso   1.000  O
  O5       1.0000 0.42140  0.08680  0.92760  Biso   1.000  O
  O6       1.0000 0.47670  0.89490  0.97130  Biso   1.000  O
  O7       1.0000 0.62220  0.88380  0.95110  Biso   1.000  O
  O8       1.0000 0.65470  0.55750  0.83800  Biso   1.000  O
  O9       1.0000 0.92480  0.43180  0.59380  Biso   1.000  O
  O10      1.0000 0.91320  0.57860  0.57240  Biso   1.000  O
  O11      1.0000 0.89490  0.47670  0.47130  Biso   1.000  O
  O12      1.0000 0.88380  0.62220  0.45110  Biso   1.000  O
  O13      1.0000 0.55750  0.65470  0.33800  Biso   1.000  O
  O14      1.0000 0.43180  0.92480  0.09380  Biso   1.000  O
  O15      1.0000 0.57860  0.91320  0.07240  Biso   1.000  O
  O16      1.0000 0.52330  0.10510  0.02870  Biso   1.000  O
  O17      1.0000 0.37780  0.11620  0.04890  Biso   1.000  O
  O18      1.0000 0.34530  0.44250  0.16200  Biso   1.000  O
  O19      1.0000 0.07520  0.56820  0.40620  Biso   1.000  O
  O20      1.0000 0.08680  0.42140  0.42760  Biso   1.000  O
