data_image0
_cell_length_a       7.051
_cell_length_b       14.5981
_cell_length_c       10.6214
_cell_angle_alpha    90
_cell_angle_beta     108.046
_cell_angle_gamma    90

_symmetry_space_group_name_H-M    "P 1"
_symmetry_int_tables_number       1

loop_
  _symmetry_equiv_pos_as_xyz
  'x, y, z'

loop_
  _atom_site_label
  _atom_site_occupancy
  _atom_site_fract_x
  _atom_site_fract_y
  _atom_site_fract_z
  _atom_site_thermal_displace_type
  _atom_site_B_iso_or_equiv
  _atom_site_type_symbol
  La1      1.0000 0.72435  0.61146  0.49874  Biso   1.000  La
  O1       1.0000 0.39420  0.55791  0.54320  Biso   1.000  O
  O2       1.0000 0.08630  0.59213  0.53600  Biso   1.000  O
  O3       1.0000 0.52090  0.72487  0.58830  Biso   1.000  O
  O4       1.0000 0.91490  0.85192  0.80480  Biso   1.000  O
  O5       1.0000 0.90690  0.71960  0.69610  Biso   1.000  O
  C1       1.0000 0.26190  0.61390  0.55060  Biso   1.000  C
  C2       1.0000 0.31630  0.71310  0.57400  Biso   1.000  C
  H1       1.0000 0.23640  0.74940  0.49990  Biso   1.000  H
  H2       1.0000 0.28910  0.73400  0.65340  Biso   1.000  H
  C3       1.0000 0.60670  0.80480  0.66130  Biso   1.000  C
  H3       1.0000 0.54380  0.81710  0.72890  Biso   1.000  H
  H4       1.0000 0.58490  0.85720  0.60250  Biso   1.000  H
  C4       1.0000 0.82650  0.78990  0.72490  Biso   1.000  C
  O6       1.0000 0.83280  0.51540  0.71260  Biso   1.000  O
  H5       1.0000 0.84300  0.54700  0.78300  Biso   1.000  H
  H6       1.0000 0.76400  0.46770  0.71300  Biso   1.000  H
  O7       1.0000 0.76530  0.76660  0.40630  Biso   1.000  O
  H7       1.0000 0.67200  0.78300  0.33800  Biso   1.000  H
  H8       1.0000 0.84400  0.81100  0.43500  Biso   1.000  H
  O8       1.0000 0.78270  0.56920  0.28410  Biso   1.000  O
  H9       1.0000 0.69400  0.58000  0.21100  Biso   1.000  H
  H10      1.0000 0.86400  0.52800  0.27600  Biso   1.000  H
  La2      1.0000 0.77565  0.11146  0.00126  Biso   1.000  La
  O9       1.0000 0.10580  0.05791  0.95680  Biso   1.000  O
  O10      1.0000 0.41370  0.09213  0.96400  Biso   1.000  O
  O11      1.0000 0.97910  0.22487  0.91170  Biso   1.000  O
  O12      1.0000 0.58510  0.35192  0.69520  Biso   1.000  O
  O13      1.0000 0.59310  0.21960  0.80390  Biso   1.000  O
  C5       1.0000 0.23810  0.11390  0.94940  Biso   1.000  C
  C6       1.0000 0.18370  0.21310  0.92600  Biso   1.000  C
  H11      1.0000 0.26360  0.24940  0.00010  Biso   1.000  H
  H12      1.0000 0.21090  0.23400  0.84660  Biso   1.000  H
  C7       1.0000 0.89330  0.30480  0.83870  Biso   1.000  C
  H13      1.0000 0.95620  0.31710  0.77110  Biso   1.000  H
  H14      1.0000 0.91510  0.35720  0.89750  Biso   1.000  H
  C8       1.0000 0.67350  0.28990  0.77510  Biso   1.000  C
  O14      1.0000 0.66720  0.01540  0.78740  Biso   1.000  O
  H15      1.0000 0.65700  0.04700  0.71700  Biso   1.000  H
  H16      1.0000 0.73600  0.96770  0.78700  Biso   1.000  H
  O15      1.0000 0.73470  0.26660  0.09370  Biso   1.000  O
  H17      1.0000 0.82800  0.28300  0.16200  Biso   1.000  H
  H18      1.0000 0.65600  0.31100  0.06500  Biso   1.000  H
  O16      1.0000 0.71730  0.06920  0.21590  Biso   1.000  O
  H19      1.0000 0.80600  0.08000  0.28900  Biso   1.000  H
  H20      1.0000 0.63600  0.02800  0.22400  Biso   1.000  H
  La3      1.0000 0.27565  0.38854  0.50126  Biso   1.000  La
  O17      1.0000 0.60580  0.44209  0.45680  Biso   1.000  O
  O18      1.0000 0.91370  0.40787  0.46400  Biso   1.000  O
  O19      1.0000 0.47910  0.27513  0.41170  Biso   1.000  O
  O20      1.0000 0.08510  0.14808  0.19520  Biso   1.000  O
  O21      1.0000 0.09310  0.28040  0.30390  Biso   1.000  O
  C9       1.0000 0.73810  0.38610  0.44940  Biso   1.000  C
  C10      1.0000 0.68370  0.28690  0.42600  Biso   1.000  C
  H21      1.0000 0.76360  0.25060  0.50010  Biso   1.000  H
  H22      1.0000 0.71090  0.26600  0.34660  Biso   1.000  H
  C11      1.0000 0.39330  0.19520  0.33870  Biso   1.000  C
  H23      1.0000 0.45620  0.18290  0.27110  Biso   1.000  H
  H24      1.0000 0.41510  0.14280  0.39750  Biso   1.000  H
  C12      1.0000 0.17350  0.21010  0.27510  Biso   1.000  C
  O22      1.0000 0.16720  0.48460  0.28740  Biso   1.000  O
  H25      1.0000 0.15700  0.45300  0.21700  Biso   1.000  H
  H26      1.0000 0.23600  0.53230  0.28700  Biso   1.000  H
  O23      1.0000 0.23470  0.23340  0.59370  Biso   1.000  O
  H27      1.0000 0.32800  0.21700  0.66200  Biso   1.000  H
  H28      1.0000 0.15600  0.18900  0.56500  Biso   1.000  H
  O24      1.0000 0.21730  0.43080  0.71590  Biso   1.000  O
  H29      1.0000 0.30600  0.42000  0.78900  Biso   1.000  H
  H30      1.0000 0.13600  0.47200  0.72400  Biso   1.000  H
  La4      1.0000 0.22435  0.88853  0.99874  Biso   1.000  La
  O25      1.0000 0.89420  0.94209  0.04320  Biso   1.000  O
  O26      1.0000 0.58630  0.90787  0.03600  Biso   1.000  O
  O27      1.0000 0.02090  0.77513  0.08830  Biso   1.000  O
  O28      1.0000 0.41490  0.64808  0.30480  Biso   1.000  O
  O29      1.0000 0.40690  0.78040  0.19610  Biso   1.000  O
  C13      1.0000 0.76190  0.88610  0.05060  Biso   1.000  C
  C14      1.0000 0.81630  0.78690  0.07400  Biso   1.000  C
  H31      1.0000 0.73640  0.75060  0.99990  Biso   1.000  H
  H32      1.0000 0.78910  0.76600  0.15340  Biso   1.000  H
  C15      1.0000 0.10670  0.69520  0.16130  Biso   1.000  C
  H33      1.0000 0.04380  0.68290  0.22890  Biso   1.000  H
  H34      1.0000 0.08490  0.64280  0.10250  Biso   1.000  H
  C16      1.0000 0.32650  0.71010  0.22490  Biso   1.000  C
  O30      1.0000 0.33280  0.98460  0.21260  Biso   1.000  O
  H35      1.0000 0.34300  0.95300  0.28300  Biso   1.000  H
  H36      1.0000 0.26400  0.03230  0.21300  Biso   1.000  H
  O31      1.0000 0.26530  0.73340  0.90630  Biso   1.000  O
  H37      1.0000 0.17200  0.71700  0.83800  Biso   1.000  H
  H38      1.0000 0.34400  0.68900  0.93500  Biso   1.000  H
  O32      1.0000 0.28270  0.93080  0.78410  Biso   1.000  O
  H39      1.0000 0.19400  0.92000  0.71100  Biso   1.000  H
  H40      1.0000 0.36400  0.97200  0.77600  Biso   1.000  H
