data_DIPLUL_freeONLY
_audit_creation_date              2015-10-16
_audit_creation_method            'Materials Studio'
_symmetry_space_group_name_H-M    'P1'
_symmetry_Int_Tables_number       1
_symmetry_cell_setting            triclinic
loop_
_symmetry_equiv_pos_as_xyz
  x,y,z
_cell_length_a                    12.8889
_cell_length_b                    15.1963
_cell_length_c                    22.6770
_cell_angle_alpha                 78.4010
_cell_angle_beta                  77.2970
_cell_angle_gamma                 79.4720
loop_
_atom_site_label
_atom_site_type_symbol
_atom_site_fract_x
_atom_site_fract_y
_atom_site_fract_z
_atom_site_U_iso_or_equiv
_atom_site_adp_type
_atom_site_occupancy
Cu1    Cu    0.30371   0.89752   0.84499   0.01267  Uiso   1.00
Cu2    Cu    0.87768   0.15735   0.40065   0.01267  Uiso   1.00
Cu3    Cu    0.12232   0.84265   0.59935   0.01267  Uiso   1.00
Cu4    Cu    0.69629   0.10248   0.15501   0.01267  Uiso   1.00
Cu5    Cu    0.89733   0.71943   0.06189   0.01267  Uiso   1.00
Cu6    Cu    0.50000   0.50000   0.50000   0.01267  Uiso   1.00
Cu7    Cu    0.76303   0.66109   0.91370   0.01267  Uiso   1.00
Cu8    Cu    0.10267   0.28057   0.93811   0.01267  Uiso   1.00
Cu9    Cu    0.23697   0.33891   0.08630   0.01267  Uiso   1.00
P1     P     0.70870   0.21090   0.77088   0.01267  Uiso   1.00
P2     P     0.29130   0.78910   0.22912   0.01267  Uiso   1.00
P3     P     0.49590   0.56000   0.23555   0.01267  Uiso   1.00
P4     P     0.50410   0.44000   0.76445   0.01267  Uiso   1.00
H1     H     0.53730   0.69060   0.97310   0.01267  Uiso   1.00
H2     H     0.66330   0.04260   0.28680   0.01267  Uiso   1.00
H3     H     0.04180   0.15820   0.88150   0.01267  Uiso   1.00
H4     H     0.14150   0.66530   0.55750   0.01267  Uiso   1.00
H5     H     0.33150   0.98520   0.95230   0.01267  Uiso   1.00
H6     H     0.97250   0.58260   0.84290   0.01267  Uiso   1.00
H7     H     0.05560   0.00280   0.39910   0.01267  Uiso   1.00
H8     H     0.26220   0.54990   0.52370   0.01267  Uiso   1.00
H9     H     0.85850   0.33470   0.44250   0.01267  Uiso   1.00
H10    H     0.90960   0.54800   0.14180   0.01267  Uiso   1.00
H11    H     0.05970   0.80420   0.73740   0.01267  Uiso   1.00
H12    H     0.07520   0.62530   0.98420   0.01267  Uiso   1.00
H13    H     0.26630   0.12610   0.97810   0.01267  Uiso   1.00
H14    H     0.53050   0.85610   0.78610   0.01267  Uiso   1.00
H15    H     0.73370   0.87390   0.02190   0.01267  Uiso   1.00
H16    H     0.89540   0.98620   0.14070   0.01267  Uiso   1.00
H17    H     0.62360   0.22700   0.05000   0.01267  Uiso   1.00
H18    H     0.10460   0.01380   0.85930   0.01267  Uiso   1.00
H19    H     0.92480   0.37470   0.01580   0.01267  Uiso   1.00
H20    H     0.37640   0.77300   0.95000   0.01267  Uiso   1.00
H21    H     0.20340   0.50150   0.99880   0.01267  Uiso   1.00
H22    H     0.09770   0.87470   0.46820   0.01267  Uiso   1.00
H23    H     0.66850   0.01480   0.04770   0.01267  Uiso   1.00
H24    H     0.02750   0.41740   0.15710   0.01267  Uiso   1.00
H25    H     0.94030   0.19580   0.26260   0.01267  Uiso   1.00
H26    H     0.12860   0.81020   0.81930   0.01267  Uiso   1.00
H27    H     0.79660   0.49850   0.00120   0.01267  Uiso   1.00
H28    H     0.73780   0.45010   0.47630   0.01267  Uiso   1.00
H29    H     0.72070   0.06520   0.36950   0.01267  Uiso   1.00
H30    H     0.46270   0.30940   0.02690   0.01267  Uiso   1.00
H31    H     0.94440   0.99720   0.60090   0.01267  Uiso   1.00
H32    H     0.87140   0.18980   0.18070   0.01267  Uiso   1.00
H33    H     0.09040   0.45200   0.85820   0.01267  Uiso   1.00
H34    H     0.46950   0.14390   0.21390   0.01267  Uiso   1.00
H35    H     0.36600   0.80140   0.55930   0.01267  Uiso   1.00
H36    H     0.63400   0.19860   0.44070   0.01267  Uiso   1.00
H37    H     0.50840   0.31220   0.47630   0.01267  Uiso   1.00
H38    H     0.27930   0.93480   0.63050   0.01267  Uiso   1.00
H39    H     0.68660   0.78110   0.80800   0.01267  Uiso   1.00
H40    H     0.31340   0.21890   0.19200   0.01267  Uiso   1.00
H41    H     0.33670   0.95740   0.71320   0.01267  Uiso   1.00
H42    H     0.49160   0.68780   0.52370   0.01267  Uiso   1.00
H43    H     0.90230   0.12530   0.53180   0.01267  Uiso   1.00
H44    H     0.95820   0.84180   0.11850   0.01267  Uiso   1.00
W1     W     0.16285   0.97080   0.13504   0.01267  Uiso   1.00
W2     W     0.46482   0.67478   0.70667   0.01267  Uiso   1.00
W3     W     0.77069   0.98746   0.73752   0.01267  Uiso   1.00
W4     W     0.02563   0.89238   0.27596   0.01267  Uiso   1.00
W5     W     0.22931   0.01254   0.26248   0.01267  Uiso   1.00
W6     W     0.36561   0.82305   0.36276   0.01267  Uiso   1.00
W7     W     0.40996   0.51963   0.10548   0.01267  Uiso   1.00
W8     W     0.72125   0.55975   0.75358   0.01267  Uiso   1.00
W9     W     0.64937   0.51147   0.61653   0.01267  Uiso   1.00
W10    W     0.78279   0.26314   0.89953   0.01267  Uiso   1.00
W11    W     0.35063   0.48853   0.38347   0.01267  Uiso   1.00
W12    W     0.43892   0.39289   0.63425   0.01267  Uiso   1.00
W13    W     0.33323   0.60003   0.84996   0.01267  Uiso   1.00
W14    W     0.97437   0.10762   0.72404   0.01267  Uiso   1.00
W15    W     0.49164   0.09203   0.79177   0.01267  Uiso   1.00
W16    W     0.55817   0.13520   0.91717   0.01267  Uiso   1.00
W17    W     0.83715   0.02920   0.86496   0.01267  Uiso   1.00
W18    W     0.25788   0.55594   0.72574   0.01267  Uiso   1.00
W19    W     0.84023   0.29289   0.62222   0.01267  Uiso   1.00
W20    W     0.56108   0.60711   0.36575   0.01267  Uiso   1.00
W21    W     0.63389   0.64676   0.09045   0.01267  Uiso   1.00
W22    W     0.74212   0.44406   0.27426   0.01267  Uiso   1.00
W23    W     0.15977   0.70711   0.37778   0.01267  Uiso   1.00
W24    W     0.70543   0.69284   0.21373   0.01267  Uiso   1.00
W25    W     0.63439   0.17695   0.63724   0.01267  Uiso   1.00
W26    W     0.36611   0.35324   0.90955   0.01267  Uiso   1.00
W27    W     0.59004   0.48037   0.89452   0.01267  Uiso   1.00
W28    W     0.66677   0.39997   0.15004   0.01267  Uiso   1.00
W29    W     0.44183   0.86480   0.08283   0.01267  Uiso   1.00
W30    W     0.91405   0.34223   0.75903   0.01267  Uiso   1.00
W31    W     0.21721   0.73686   0.10047   0.01267  Uiso   1.00
W32    W     0.50836   0.90797   0.20823   0.01267  Uiso   1.00
W33    W     0.08595   0.65777   0.24097   0.01267  Uiso   1.00
W34    W     0.27875   0.44025   0.24642   0.01267  Uiso   1.00
W35    W     0.53518   0.32522   0.29333   0.01267  Uiso   1.00
W36    W     0.29457   0.30716   0.78627   0.01267  Uiso   1.00
C1     C     0.58080   0.31840   0.46870   0.01267  Uiso   1.00
C2     C     0.46940   0.17670   0.17450   0.01267  Uiso   1.00
C3     C     0.76780   0.89570   0.04700   0.01267  Uiso   1.00
C4     C     0.71460   0.39940   0.46900   0.01267  Uiso   1.00
C5     C     0.87980   0.16720   0.26930   0.01267  Uiso   1.00
C6     C     0.02870   0.46010   0.88800   0.01267  Uiso   1.00
C7     C     0.78580   0.32960   0.44970   0.01267  Uiso   1.00
C8     C     0.23220   0.10430   0.95300   0.01267  Uiso   1.00
C9     C     0.84090   0.16080   0.21910   0.01267  Uiso   1.00
C10    C     0.34370   0.75070   0.55140   0.01267  Uiso   1.00
C11    C     0.46330   0.27390   0.06540   0.01267  Uiso   1.00
C12    C     0.53060   0.82330   0.82550   0.01267  Uiso   1.00
C13    C     0.75480   0.08980   0.33070   0.01267  Uiso   1.00
C14    C     0.02700   0.00200   0.44060   0.01267  Uiso   1.00
C15    C     0.06200   0.92800   0.48230   0.01267  Uiso   1.00
C16    C     0.97300   0.99800   0.55940   0.01267  Uiso   1.00
C17    C     0.85760   0.49120   0.97090   0.01267  Uiso   1.00
C18    C     0.21420   0.67040   0.55030   0.01267  Uiso   1.00
C19    C     0.53670   0.72610   0.93460   0.01267  Uiso   1.00
C20    C     0.04490   0.46030   0.12240   0.01267  Uiso   1.00
C21    C     0.72770   0.98090   0.06280   0.01267  Uiso   1.00
C22    C     0.89980   0.87640   0.10290   0.01267  Uiso   1.00
C23    C     0.28170   0.92280   0.71910   0.01267  Uiso   1.00
C24    C     0.14240   0.50880   0.02910   0.01267  Uiso   1.00
C25    C     0.27230   0.01910   0.93720   0.01267  Uiso   1.00
C26    C     0.65630   0.24930   0.44860   0.01267  Uiso   1.00
C27    C     0.06660   0.58520   0.02110   0.01267  Uiso   1.00
C28    C     0.71830   0.07720   0.28090   0.01267  Uiso   1.00
C29    C     0.43960   0.77480   0.92090   0.01267  Uiso   1.00
C30    C     0.24520   0.91020   0.66930   0.01267  Uiso   1.00
C31    C     0.85930   0.96330   0.11720   0.01267  Uiso   1.00
C32    C     0.28540   0.60060   0.53100   0.01267  Uiso   1.00
C33    C     0.93800   0.07200   0.51770   0.01267  Uiso   1.00
C34    C     0.12020   0.83280   0.73070   0.01267  Uiso   1.00
C35    C     0.37560   0.22150   0.16210   0.01267  Uiso   1.00
C36    C     0.56040   0.22520   0.07910   0.01267  Uiso   1.00
C37    C     0.15910   0.83920   0.78090   0.01267  Uiso   1.00
C38    C     0.62440   0.77850   0.83790   0.01267  Uiso   1.00
C39    C     0.10020   0.12360   0.89710   0.01267  Uiso   1.00
C40    C     0.97130   0.53990   0.11200   0.01267  Uiso   1.00
C41    C     0.14070   0.03670   0.88280   0.01267  Uiso   1.00
C42    C     0.41920   0.68160   0.53130   0.01267  Uiso   1.00
C43    C     0.95510   0.53970   0.87760   0.01267  Uiso   1.00
C44    C     0.93340   0.41480   0.97890   0.01267  Uiso   1.00
N1     N     0.76110   0.11450   0.22370   0.01267  Uiso   1.00
N2     N     0.77350   0.01500   0.09970   0.01267  Uiso   1.00
N3     N     0.56070   0.17500   0.13620   0.01267  Uiso   1.00
N4     N     0.62850   0.72930   0.89410   0.01267  Uiso   1.00
N5     N     0.75870   0.25350   0.44030   0.01267  Uiso   1.00
N6     N     0.86960   0.55250   0.92260   0.01267  Uiso   1.00
N7     N     0.39130   0.60600   0.52250   0.01267  Uiso   1.00
N8     N     0.83760   0.13570   0.32690   0.01267  Uiso   1.00
N9     N     0.85180   0.84450   0.06600   0.01267  Uiso   1.00
N10    N     0.16240   0.86430   0.67310   0.01267  Uiso   1.00
N11    N     0.22650   0.98500   0.90030   0.01267  Uiso   1.00
N12    N     0.13040   0.44750   0.07740   0.01267  Uiso   1.00
N13    N     0.23890   0.88550   0.77630   0.01267  Uiso   1.00
N14    N     0.37150   0.27070   0.10590   0.01267  Uiso   1.00
N15    N     0.01750   0.39690   0.93570   0.01267  Uiso   1.00
N16    N     0.04400   0.93070   0.54290   0.01267  Uiso   1.00
N17    N     0.14820   0.15550   0.93400   0.01267  Uiso   1.00
N18    N     0.43930   0.82500   0.86380   0.01267  Uiso   1.00
N19    N     0.24130   0.74650   0.55970   0.01267  Uiso   1.00
N20    N     0.95600   0.06930   0.45710   0.01267  Uiso   1.00
N21    N     0.98250   0.60310   0.06430   0.01267  Uiso   1.00
N22    N     0.60870   0.39400   0.47750   0.01267  Uiso   1.00
O1     O     0.08220   0.81880   0.34390   0.01267  Uiso   1.00
O2     O     0.61310   0.30720   0.21250   0.01267  Uiso   1.00
O3     O     0.70140   0.24580   0.70400   0.01267  Uiso   1.00
O4     O     0.68830   0.05300   0.89820   0.01267  Uiso   1.00
O5     O     0.81810   0.25440   0.96830   0.01267  Uiso   1.00
O6     O     0.47030   0.85350   0.29220   0.01267  Uiso   1.00
O7     O     0.55320   0.29250   0.62320   0.01267  Uiso   1.00
O8     O     0.36770   0.32210   0.70200   0.01267  Uiso   1.00
O9     O     0.60090   0.18760   0.80970   0.01267  Uiso   1.00
O10    O     0.86020   0.40840   0.29890   0.01267  Uiso   1.00
O11    O     0.52400   0.21580   0.32860   0.01267  Uiso   1.00
O12    O     0.66980   0.34070   0.31010   0.01267  Uiso   1.00
O13    O     0.37930   0.38770   0.57490   0.01267  Uiso   1.00
O14    O     0.40080   0.48870   0.03900   0.01267  Uiso   1.00
O15    O     0.75730   0.22600   0.59040   0.01267  Uiso   1.00
O16    O     0.22420   0.11410   0.28400   0.01267  Uiso   1.00
O17    O     0.29620   0.61720   0.10730   0.01267  Uiso   1.00
O18    O     0.62510   0.01370   0.77850   0.01267  Uiso   1.00
O19    O     0.44400   0.23510   0.91060   0.01267  Uiso   1.00
O20    O     0.77580   0.88590   0.71600   0.01267  Uiso   1.00
O21    O     0.77400   0.39940   0.19850   0.01267  Uiso   1.00
O22    O     0.68230   0.55760   0.83870   0.01267  Uiso   1.00
O23    O     0.39920   0.87200   0.41560   0.01267  Uiso   1.00
O24    O     0.70380   0.38280   0.89270   0.01267  Uiso   1.00
O25    O     0.97040   0.61330   0.25920   0.01267  Uiso   1.00
O26    O     0.21050   0.88070   0.22600   0.01267  Uiso   1.00
O27    O     0.60080   0.12800   0.58440   0.01267  Uiso   1.00
O28    O     0.18630   0.26270   0.78350   0.01267  Uiso   1.00
O29    O     0.29200   0.33770   0.98200   0.01267  Uiso   1.00
O30    O     0.90490   0.31010   0.84570   0.01267  Uiso   1.00
O31    O     0.34570   0.49570   0.66120   0.01267  Uiso   1.00
O32    O     0.61400   0.80300   0.19870   0.01267  Uiso   1.00
O33    O     0.81370   0.73730   0.21650   0.01267  Uiso   1.00
O34    O     0.02960   0.38670   0.74080   0.01267  Uiso   1.00
O35    O     0.06780   0.68100   0.44150   0.01267  Uiso   1.00
O36    O     0.59210   0.98080   0.21320   0.01267  Uiso   1.00
O37    O     0.70820   0.57480   0.55070   0.01267  Uiso   1.00
O38    O     0.24550   0.72390   0.20220   0.01267  Uiso   1.00
O39    O     0.24270   0.77400   0.40960   0.01267  Uiso   1.00
O40    O     0.45940   0.57630   0.30160   0.01267  Uiso   1.00
O41    O     0.27820   0.47320   0.32440   0.01267  Uiso   1.00
O42    O     0.96810   0.04240   0.80550   0.01267  Uiso   1.00
O43    O     0.88870   0.95270   0.92210   0.01267  Uiso   1.00
O44    O     0.75450   0.27610   0.79780   0.01267  Uiso   1.00
O45    O     0.46090   0.52580   0.41830   0.01267  Uiso   1.00
O46    O     0.51320   0.93010   0.12190   0.01267  Uiso   1.00
O47    O     0.55840   0.63280   0.19590   0.01267  Uiso   1.00
O48    O     0.59920   0.51130   0.96100   0.01267  Uiso   1.00
O49    O     0.25830   0.66170   0.90340   0.01267  Uiso   1.00
O50    O     0.29180   0.42520   0.44930   0.01267  Uiso   1.00
O51    O     0.81150   0.63560   0.73460   0.01267  Uiso   1.00
O52    O     0.59780   0.45420   0.79160   0.01267  Uiso   1.00
O53    O     0.33020   0.65930   0.68990   0.01267  Uiso   1.00
O54    O     0.64990   0.21680   0.92200   0.01267  Uiso   1.00
O55    O     0.39910   0.81240   0.19030   0.01267  Uiso   1.00
O56    O     0.40600   0.35930   0.26000   0.01267  Uiso   1.00
O57    O     0.53160   0.43140   0.12590   0.01267  Uiso   1.00
O58    O     0.74170   0.33830   0.09660   0.01267  Uiso   1.00
O59    O     0.63230   0.67790   0.29800   0.01267  Uiso   1.00
O60    O     0.40220   0.54580   0.20840   0.01267  Uiso   1.00
O61    O     0.47600   0.78420   0.67140   0.01267  Uiso   1.00
O62    O     0.91780   0.18120   0.65610   0.01267  Uiso   1.00
O63    O     0.72660   0.07090   0.67040   0.01267  Uiso   1.00
O64    O     0.12070   0.65410   0.31950   0.01267  Uiso   1.00
O65    O     0.40790   0.01920   0.78680   0.01267  Uiso   1.00
O66    O     0.37490   0.98630   0.22150   0.01267  Uiso   1.00
O67    O     0.91340   0.01070   0.70700   0.01267  Uiso   1.00
O68    O     0.19260   0.05160   0.18120   0.01267  Uiso   1.00
O69    O     0.44680   0.70750   0.37680   0.01267  Uiso   1.00
O70    O     0.31170   0.94700   0.10180   0.01267  Uiso   1.00
O71    O     0.65430   0.50430   0.33880   0.01267  Uiso   1.00
O72    O     0.30950   0.47940   0.88550   0.01267  Uiso   1.00
O73    O     0.44160   0.36720   0.80410   0.01267  Uiso   1.00
O74    O     0.02790   0.78250   0.24860   0.01267  Uiso   1.00
O75    O     0.10510   0.08130   0.69250   0.01267  Uiso   1.00
O76    O     0.46840   0.56860   0.87410   0.01267  Uiso   1.00
O77    O     0.72180   0.52680   0.67560   0.01267  Uiso   1.00
O78    O     0.18190   0.55010   0.23200   0.01267  Uiso   1.00
O79    O     0.42220   0.53180   0.76270   0.01267  Uiso   1.00
O80    O     0.97210   0.21750   0.75140   0.01267  Uiso   1.00
O81    O     0.89490   0.91870   0.30750   0.01267  Uiso   1.00
O82    O     0.38600   0.19700   0.80130   0.01267  Uiso   1.00
O83    O     0.15470   0.85770   0.11500   0.01267  Uiso   1.00
O84    O     0.93220   0.31900   0.55850   0.01267  Uiso   1.00
O85    O     0.03190   0.95760   0.19450   0.01267  Uiso   1.00
O86    O     0.29860   0.75420   0.29600   0.01267  Uiso   1.00
O87    O     0.46130   0.39320   0.35420   0.01267  Uiso   1.00
O88    O     0.52100   0.09200   0.99200   0.01267  Uiso   1.00
O89    O     0.70800   0.66230   0.01800   0.01267  Uiso   1.00
O90    O     0.51040   0.60460   0.08200   0.01267  Uiso   1.00
O91    O     0.73230   0.39730   0.60920   0.01267  Uiso   1.00
O92    O     0.59400   0.64070   0.74000   0.01267  Uiso   1.00
O93    O     0.35010   0.78320   0.07800   0.01267  Uiso   1.00
O94    O     0.48960   0.39540   0.91800   0.01267  Uiso   1.00
O95    O     0.53870   0.60680   0.64580   0.01267  Uiso   1.00
O96    O     0.18190   0.74560   0.03170   0.01267  Uiso   1.00
O97    O     0.38690   0.69280   0.78750   0.01267  Uiso   1.00
O98    O     0.27340   0.92910   0.32960   0.01267  Uiso   1.00
O99    O     0.26510   0.31620   0.87090   0.01267  Uiso   1.00
O100   O     0.55600   0.76490   0.08940   0.01267  Uiso   1.00
O101   O     0.75730   0.56400   0.23270   0.01267  Uiso   1.00
O102   O     0.73490   0.68380   0.12910   0.01267  Uiso   1.00
O103   O     0.54060   0.42370   0.69840   0.01267  Uiso   1.00
O104   O     0.69050   0.52060   0.11450   0.01267  Uiso   1.00
O105   O     0.81810   0.44990   0.76800   0.01267  Uiso   1.00
O106   O     0.09510   0.68990   0.15430   0.01267  Uiso   1.00
O107   O     0.80740   0.94840   0.81880   0.01267  Uiso   1.00
O108   O     0.87930   0.34590   0.68050   0.01267  Uiso   1.00
O109   O     0.57780   0.46820   0.23730   0.01267  Uiso   1.00
O110   O     0.24270   0.43600   0.76730   0.01267  Uiso   1.00
O111   O     0.31770   0.44240   0.16130   0.01267  Uiso   1.00
O112   O     0.08660   0.98930   0.29300   0.01267  Uiso   1.00
O113   O     0.47900   0.90800   0.00800   0.01267  Uiso   1.00
O114   O     0.53910   0.47420   0.58170   0.01267  Uiso   1.00
O115   O     0.78950   0.11930   0.77400   0.01267  Uiso   1.00
O116   O     0.62070   0.61230   0.42510   0.01267  Uiso   1.00
O117   O     0.48680   0.06990   0.87810   0.01267  Uiso   1.00
O118   O     0.13980   0.59160   0.70110   0.01267  Uiso   1.00
O119   O     0.18850   0.36440   0.26540   0.01267  Uiso   1.00
O120   O     0.84530   0.14230   0.88500   0.01267  Uiso   1.00
O121   O     0.11130   0.04730   0.07790   0.01267  Uiso   1.00
O122   O     0.22600   0.60060   0.80150   0.01267  Uiso   1.00
O123   O     0.26770   0.60270   0.39080   0.01267  Uiso   1.00
O124   O     0.52970   0.14650   0.70780   0.01267  Uiso   1.00
