data_image0
_cell_length_a       8.7
_cell_length_b       18.146
_cell_length_c       9.087
_cell_angle_alpha    90
_cell_angle_beta     107.28
_cell_angle_gamma    90

_symmetry_space_group_name_H-M    "P 1"
_symmetry_int_tables_number       1

loop_
  _symmetry_equiv_pos_as_xyz
  'x, y, z'

loop_
  _atom_site_label
  _atom_site_occupancy
  _atom_site_fract_x
  _atom_site_fract_y
  _atom_site_fract_z
  _atom_site_thermal_displace_type
  _atom_site_B_iso_or_equiv
  _atom_site_type_symbol
  Ga1      1.0000 0.08180  0.29520  0.29110  Biso   1.000  Ga
  Ga2      1.0000 0.13640  0.10790  0.16100  Biso   1.000  Ga
  Ga3      1.0000 0.52910  0.32090  0.19660  Biso   1.000  Ga
  P1       1.0000 0.35020  0.42680  0.35960  Biso   1.000  P
  P2       1.0000 0.81480  0.29300  0.48200  Biso   1.000  P
  P3       1.0000 0.26700  0.16940  0.49650  Biso   1.000  P
  O1       1.0000 0.03950  0.20500  0.18000  Biso   1.000  O
  O2       1.0000 0.19830  0.38120  0.30190  Biso   1.000  O
  O3       1.0000 0.26060  0.25000  0.44250  Biso   1.000  O
  O4       1.0000 0.96440  0.30600  0.43230  Biso   1.000  O
  O5       1.0000 0.42220  0.15610  0.62420  Biso   1.000  O
  O6       1.0000 0.47120  0.40450  0.27320  Biso   1.000  O
  O7       1.0000 0.84730  0.23200  0.60480  Biso   1.000  O
  O8       1.0000 0.11970  0.15170  0.55000  Biso   1.000  O
  O9       1.0000 0.67210  0.26650  0.34600  Biso   1.000  O
  O10      1.0000 0.26270  0.11510  0.36640  Biso   1.000  O
  O11      1.0000 0.42860  0.41440  0.53070  Biso   1.000  O
  O12      1.0000 0.30150  0.50640  0.32350  Biso   1.000  O
  O13      1.0000 0.77160  0.36480  0.54670  Biso   1.000  O
  H1       1.0000 0.96360  0.21310  0.09630  Biso   1.000  H
  Ga4      1.0000 0.41820  0.79520  0.20890  Biso   1.000  Ga
  Ga5      1.0000 0.36360  0.60790  0.33900  Biso   1.000  Ga
  Ga6      1.0000 0.97090  0.82090  0.30340  Biso   1.000  Ga
  P4       1.0000 0.14980  0.92680  0.14040  Biso   1.000  P
  P5       1.0000 0.68520  0.79300  0.01800  Biso   1.000  P
  P6       1.0000 0.23300  0.66940  0.00350  Biso   1.000  P
  O14      1.0000 0.46050  0.70500  0.32000  Biso   1.000  O
  O15      1.0000 0.30170  0.88120  0.19810  Biso   1.000  O
  O16      1.0000 0.23940  0.75000  0.05750  Biso   1.000  O
  O17      1.0000 0.53560  0.80600  0.06770  Biso   1.000  O
  O18      1.0000 0.07780  0.65610  0.87580  Biso   1.000  O
  O19      1.0000 0.02880  0.90450  0.22680  Biso   1.000  O
  O20      1.0000 0.65270  0.73200  0.89520  Biso   1.000  O
  O21      1.0000 0.38030  0.65170  0.95000  Biso   1.000  O
  O22      1.0000 0.82790  0.76650  0.15400  Biso   1.000  O
  O23      1.0000 0.23730  0.61510  0.13360  Biso   1.000  O
  O24      1.0000 0.07140  0.91440  0.96930  Biso   1.000  O
  O25      1.0000 0.19850  0.00640  0.17650  Biso   1.000  O
  O26      1.0000 0.72840  0.86480  0.95330  Biso   1.000  O
  H2       1.0000 0.53640  0.71310  0.40370  Biso   1.000  H
  Ga7      1.0000 0.91820  0.70480  0.70890  Biso   1.000  Ga
  Ga8      1.0000 0.86360  0.89210  0.83900  Biso   1.000  Ga
  Ga9      1.0000 0.47090  0.67910  0.80340  Biso   1.000  Ga
  P7       1.0000 0.64980  0.57320  0.64040  Biso   1.000  P
  P8       1.0000 0.18520  0.70700  0.51800  Biso   1.000  P
  P9       1.0000 0.73300  0.83060  0.50350  Biso   1.000  P
  O27      1.0000 0.96050  0.79500  0.82000  Biso   1.000  O
  O28      1.0000 0.80170  0.61880  0.69810  Biso   1.000  O
  O29      1.0000 0.73940  0.75000  0.55750  Biso   1.000  O
  O30      1.0000 0.03560  0.69400  0.56770  Biso   1.000  O
  O31      1.0000 0.57780  0.84390  0.37580  Biso   1.000  O
  O32      1.0000 0.52880  0.59550  0.72680  Biso   1.000  O
  O33      1.0000 0.15270  0.76800  0.39520  Biso   1.000  O
  O34      1.0000 0.88030  0.84830  0.45000  Biso   1.000  O
  O35      1.0000 0.32790  0.73350  0.65400  Biso   1.000  O
  O36      1.0000 0.73730  0.88490  0.63360  Biso   1.000  O
  O37      1.0000 0.57140  0.58560  0.46930  Biso   1.000  O
  O38      1.0000 0.69850  0.49360  0.67650  Biso   1.000  O
  O39      1.0000 0.22840  0.63520  0.45330  Biso   1.000  O
  H3       1.0000 0.03640  0.78690  0.90370  Biso   1.000  H
  Ga10     1.0000 0.58180  0.20480  0.79110  Biso   1.000  Ga
  Ga11     1.0000 0.63640  0.39210  0.66100  Biso   1.000  Ga
  Ga12     1.0000 0.02910  0.17910  0.69660  Biso   1.000  Ga
  P10      1.0000 0.85020  0.07320  0.85960  Biso   1.000  P
  P11      1.0000 0.31480  0.20700  0.98200  Biso   1.000  P
  P12      1.0000 0.76700  0.33060  0.99650  Biso   1.000  P
  O40      1.0000 0.53950  0.29500  0.68000  Biso   1.000  O
  O41      1.0000 0.69830  0.11880  0.80190  Biso   1.000  O
  O42      1.0000 0.76060  0.25000  0.94250  Biso   1.000  O
  O43      1.0000 0.46440  0.19400  0.93230  Biso   1.000  O
  O44      1.0000 0.92220  0.34390  0.12420  Biso   1.000  O
  O45      1.0000 0.97120  0.09550  0.77320  Biso   1.000  O
  O46      1.0000 0.34730  0.26800  0.10480  Biso   1.000  O
  O47      1.0000 0.61970  0.34830  0.05000  Biso   1.000  O
  O48      1.0000 0.17210  0.23350  0.84600  Biso   1.000  O
  O49      1.0000 0.76270  0.38490  0.86640  Biso   1.000  O
  O50      1.0000 0.92860  0.08560  0.03070  Biso   1.000  O
  O51      1.0000 0.80150  0.99360  0.82350  Biso   1.000  O
  O52      1.0000 0.27160  0.13520  0.04670  Biso   1.000  O
  H4       1.0000 0.46360  0.28690  0.59630  Biso   1.000  H
