data_image0
_cell_length_a       8.4552
_cell_length_b       10.0614
_cell_length_c       12.8218
_cell_angle_alpha    109.012
_cell_angle_beta     90.922
_cell_angle_gamma    91.298

_symmetry_space_group_name_H-M    "P 1"
_symmetry_int_tables_number       1

loop_
  _symmetry_equiv_pos_as_xyz
  'x, y, z'

loop_
  _atom_site_label
  _atom_site_occupancy
  _atom_site_fract_x
  _atom_site_fract_y
  _atom_site_fract_z
  _atom_site_thermal_displace_type
  _atom_site_B_iso_or_equiv
  _atom_site_type_symbol
  Zn1      1.0000 0.05299  0.18217  0.15604  Biso   1.000  Zn
  Zn2      1.0000 0.25982  0.99832  0.54517  Biso   1.000  Zn
  Zn3      1.0000 0.18587  0.38327  0.48538  Biso   1.000  Zn
  P1       1.0000 0.01905  0.48974  0.30993  Biso   1.000  P
  P2       1.0000 0.06043  0.08686  0.37536  Biso   1.000  P
  P3       1.0000 0.50830  0.74784  0.44890  Biso   1.000  P
  P4       1.0000 0.22787  0.05194  0.92913  Biso   1.000  P
  O1       1.0000 0.17080  0.47960  0.37520  Biso   1.000  O
  O2       1.0000 0.87150  0.47720  0.37356  Biso   1.000  O
  O3       1.0000 0.02630  0.64010  0.29390  Biso   1.000  O
  O4       1.0000 0.01370  0.38310  0.19410  Biso   1.000  O
  O5       1.0000 0.17390  0.98230  0.40046  Biso   1.000  O
  O6       1.0000 0.04930  0.22080  0.47667  Biso   1.000  O
  O7       1.0000 0.89290  0.01550  0.34531  Biso   1.000  O
  O8       1.0000 0.12570  0.12230  0.27649  Biso   1.000  O
  O9       1.0000 0.40090  0.65280  0.34830  Biso   1.000  O
  O10      1.0000 0.40420  0.84490  0.53540  Biso   1.000  O
  O11      1.0000 0.61450  0.82700  0.39210  Biso   1.000  O
  O12      1.0000 0.59340  0.65470  0.50210  Biso   1.000  O
  O13      1.0000 0.21900  0.13650  0.05098  Biso   1.000  O
  O14      1.0000 0.15640  0.90040  0.90120  Biso   1.000  O
  O15      1.0000 0.12280  0.13100  0.86620  Biso   1.000  O
  O16      1.0000 0.39750  0.04120  0.89180  Biso   1.000  O
  H1       1.0000 0.32940  0.59650  0.36390  Biso   1.000  H
  H2       1.0000 0.00910  0.71920  0.36140  Biso   1.000  H
  H3       1.0000 0.12190  0.08250  0.79320  Biso   1.000  H
  Zn4      1.0000 0.94701  0.81783  0.84396  Biso   1.000  Zn
  Zn5      1.0000 0.74018  0.00168  0.45483  Biso   1.000  Zn
  Zn6      1.0000 0.81413  0.61673  0.51462  Biso   1.000  Zn
  P5       1.0000 0.98095  0.51026  0.69007  Biso   1.000  P
  P6       1.0000 0.93957  0.91314  0.62464  Biso   1.000  P
  P7       1.0000 0.49170  0.25216  0.55110  Biso   1.000  P
  P8       1.0000 0.77213  0.94806  0.07087  Biso   1.000  P
  O17      1.0000 0.82920  0.52040  0.62480  Biso   1.000  O
  O18      1.0000 0.12850  0.52280  0.62644  Biso   1.000  O
  O19      1.0000 0.97370  0.35990  0.70610  Biso   1.000  O
  O20      1.0000 0.98630  0.61690  0.80590  Biso   1.000  O
  O21      1.0000 0.82610  0.01770  0.59954  Biso   1.000  O
  O22      1.0000 0.95070  0.77920  0.52333  Biso   1.000  O
  O23      1.0000 0.10710  0.98450  0.65469  Biso   1.000  O
  O24      1.0000 0.87430  0.87770  0.72351  Biso   1.000  O
  O25      1.0000 0.59910  0.34720  0.65170  Biso   1.000  O
  O26      1.0000 0.59580  0.15510  0.46460  Biso   1.000  O
  O27      1.0000 0.38550  0.17300  0.60790  Biso   1.000  O
  O28      1.0000 0.40660  0.34530  0.49790  Biso   1.000  O
  O29      1.0000 0.78100  0.86350  0.94902  Biso   1.000  O
  O30      1.0000 0.84360  0.09960  0.09880  Biso   1.000  O
  O31      1.0000 0.87720  0.86900  0.13380  Biso   1.000  O
  O32      1.0000 0.60250  0.95880  0.10820  Biso   1.000  O
  H4       1.0000 0.67060  0.40350  0.63610  Biso   1.000  H
  H5       1.0000 0.99090  0.28080  0.63860  Biso   1.000  H
  H6       1.0000 0.87810  0.91750  0.20680  Biso   1.000  H
