data_image0
_cell_length_a       21.04
_cell_length_b       21.04
_cell_length_c       24.999
_cell_angle_alpha    65.1137
_cell_angle_beta     65.1137
_cell_angle_gamma    89.9999

_symmetry_space_group_name_H-M    P 1
_symmetry_int_tables_number       1

loop_
  _symmetry_equiv_pos_as_xyz
  'x, y, z'

loop_
  _atom_site_label
  _atom_site_occupancy
  _atom_site_fract_x
  _atom_site_fract_y
  _atom_site_fract_z
  _atom_site_thermal_displace_type
  _atom_site_B_iso_or_equiv
  _atom_site_type_symbol
  Hf1      1.0000 0.56122  0.56122  0.87756  Biso   1.000  Hf
  Hf2      1.0000 0.43878  0.43878  0.12244  Biso   1.000  Hf
  Hf3      1.0000 0.61700  0.49954  0.00000  Biso   1.000  Hf
  Hf4      1.0000 0.38300  0.50046  0.00000  Biso   1.000  Hf
  Hf5      1.0000 0.49954  0.38300  0.00000  Biso   1.000  Hf
  Hf6      1.0000 0.50046  0.61700  0.00000  Biso   1.000  Hf
  H1       1.0000 0.14060  0.66510  0.51100  Biso   1.000  H
  H2       1.0000 0.01830  0.62900  0.58660  Biso   1.000  H
  H3       1.0000 0.04970  0.73930  0.67600  Biso   1.000  H
  H4       1.0000 0.17200  0.77540  0.60040  Biso   1.000  H
  H5       1.0000 0.90420  0.68710  0.62860  Biso   1.000  H
  H6       1.0000 0.78210  0.64630  0.71020  Biso   1.000  H
  H7       1.0000 0.84450  0.57170  0.85320  Biso   1.000  H
  H8       1.0000 0.96500  0.61340  0.77000  Biso   1.000  H
  H9       1.0000 0.34840  0.82390  0.51100  Biso   1.000  H
  H10      1.0000 0.39510  0.78440  0.58660  Biso   1.000  H
  H11      1.0000 0.27430  0.58470  0.67600  Biso   1.000  H
  H12      1.0000 0.22760  0.62420  0.60040  Biso   1.000  H
  H13      1.0000 0.46720  0.68430  0.62860  Biso   1.000  H
  H14      1.0000 0.50770  0.64350  0.71020  Biso   1.000  H
  H15      1.0000 0.30230  0.57510  0.85320  Biso   1.000  H
  H16      1.0000 0.26500  0.61660  0.77000  Biso   1.000  H
  H17      1.0000 0.66510  0.34840  0.51100  Biso   1.000  H
  H18      1.0000 0.62900  0.39510  0.58660  Biso   1.000  H
  H19      1.0000 0.73930  0.27430  0.67600  Biso   1.000  H
  H20      1.0000 0.77540  0.22760  0.60040  Biso   1.000  H
  H21      1.0000 0.68710  0.46720  0.62860  Biso   1.000  H
  H22      1.0000 0.64630  0.50770  0.71020  Biso   1.000  H
  H23      1.0000 0.57170  0.30230  0.85320  Biso   1.000  H
  H24      1.0000 0.61340  0.26500  0.77000  Biso   1.000  H
  H25      1.0000 0.82390  0.14060  0.51100  Biso   1.000  H
  H26      1.0000 0.78440  0.01830  0.58660  Biso   1.000  H
  H27      1.0000 0.58470  0.04970  0.67600  Biso   1.000  H
  H28      1.0000 0.62420  0.17200  0.60040  Biso   1.000  H
  H29      1.0000 0.68430  0.90420  0.62860  Biso   1.000  H
  H30      1.0000 0.64350  0.78210  0.71020  Biso   1.000  H
  H31      1.0000 0.57510  0.84450  0.85320  Biso   1.000  H
  H32      1.0000 0.61660  0.96500  0.77000  Biso   1.000  H
  H33      1.0000 0.85940  0.33490  0.48900  Biso   1.000  H
  H34      1.0000 0.98170  0.37100  0.41340  Biso   1.000  H
  H35      1.0000 0.95030  0.26070  0.32400  Biso   1.000  H
  H36      1.0000 0.82800  0.22460  0.39960  Biso   1.000  H
  H37      1.0000 0.09580  0.31290  0.37140  Biso   1.000  H
  H38      1.0000 0.21790  0.35370  0.28980  Biso   1.000  H
  H39      1.0000 0.15550  0.42830  0.14680  Biso   1.000  H
  H40      1.0000 0.03500  0.38660  0.23000  Biso   1.000  H
  H41      1.0000 0.65160  0.17610  0.48900  Biso   1.000  H
  H42      1.0000 0.60490  0.21560  0.41340  Biso   1.000  H
  H43      1.0000 0.72570  0.41530  0.32400  Biso   1.000  H
  H44      1.0000 0.77240  0.37580  0.39960  Biso   1.000  H
  H45      1.0000 0.53280  0.31570  0.37140  Biso   1.000  H
  H46      1.0000 0.49230  0.35650  0.28980  Biso   1.000  H
  H47      1.0000 0.69770  0.42490  0.14680  Biso   1.000  H
  H48      1.0000 0.73500  0.38340  0.23000  Biso   1.000  H
  H49      1.0000 0.33490  0.65160  0.48900  Biso   1.000  H
  H50      1.0000 0.37100  0.60490  0.41340  Biso   1.000  H
  H51      1.0000 0.26070  0.72570  0.32400  Biso   1.000  H
  H52      1.0000 0.22460  0.77240  0.39960  Biso   1.000  H
  H53      1.0000 0.31290  0.53280  0.37140  Biso   1.000  H
  H54      1.0000 0.35370  0.49230  0.28980  Biso   1.000  H
  H55      1.0000 0.42830  0.69770  0.14680  Biso   1.000  H
  H56      1.0000 0.38660  0.73500  0.23000  Biso   1.000  H
  H57      1.0000 0.17610  0.85940  0.48900  Biso   1.000  H
  H58      1.0000 0.21560  0.98170  0.41340  Biso   1.000  H
  H59      1.0000 0.41530  0.95030  0.32400  Biso   1.000  H
  H60      1.0000 0.37580  0.82800  0.39960  Biso   1.000  H
  H61      1.0000 0.31570  0.09580  0.37140  Biso   1.000  H
  H62      1.0000 0.35650  0.21790  0.28980  Biso   1.000  H
  H63      1.0000 0.42490  0.15550  0.14680  Biso   1.000  H
  H64      1.0000 0.38340  0.03500  0.23000  Biso   1.000  H
  C1       1.0000 0.16788  0.72370  0.54852  Biso   1.000  C
  C2       1.0000 0.02240  0.68080  0.63840  Biso   1.000  C
  C3       1.0000 0.12218  0.68028  0.54444  Biso   1.000  C
  C4       1.0000 0.04952  0.65872  0.58936  Biso   1.000  C
  C5       1.0000 0.06815  0.72425  0.64250  Biso   1.000  C
  C6       1.0000 0.14082  0.74572  0.59756  Biso   1.000  C
  C7       1.0000 0.94400  0.65393  0.69200  Biso   1.000  C
  C8       1.0000 0.89220  0.66360  0.67440  Biso   1.000  C
  C9       1.0000 0.81900  0.63920  0.72320  Biso   1.000  C
  C10      1.0000 0.80260  0.60550  0.78860  Biso   1.000  C
  C11      1.0000 0.85590  0.59520  0.80740  Biso   1.000  C
  C12      1.0000 0.92750  0.62010  0.75780  Biso   1.000  C
  C13      1.0000 0.72460  0.57730  0.84240  Biso   1.000  C
  C14      1.0000 0.28360  0.72778  0.54852  Biso   1.000  C
  C15      1.0000 0.33920  0.68080  0.63840  Biso   1.000  C
  C16      1.0000 0.33338  0.77528  0.54444  Biso   1.000  C
  C17      1.0000 0.36112  0.75192  0.58936  Biso   1.000  C
  C18      1.0000 0.28935  0.63325  0.64250  Biso   1.000  C
  C19      1.0000 0.26162  0.65672  0.59756  Biso   1.000  C
  C20      1.0000 0.36400  0.65407  0.69200  Biso   1.000  C
  C21      1.0000 0.43340  0.66200  0.67440  Biso   1.000  C
  C22      1.0000 0.45780  0.63760  0.72320  Biso   1.000  C
  C23      1.0000 0.40880  0.60590  0.78860  Biso   1.000  C
  C24      1.0000 0.33670  0.59740  0.80740  Biso   1.000  C
  C25      1.0000 0.31470  0.62210  0.75780  Biso   1.000  C
  C26      1.0000 0.43300  0.58030  0.84240  Biso   1.000  C
  C27      1.0000 0.72370  0.28360  0.54852  Biso   1.000  C
  C28      1.0000 0.68080  0.33920  0.63840  Biso   1.000  C
  C29      1.0000 0.68028  0.33338  0.54444  Biso   1.000  C
  C30      1.0000 0.65872  0.36112  0.58936  Biso   1.000  C
  C31      1.0000 0.72425  0.28935  0.64250  Biso   1.000  C
  C32      1.0000 0.74572  0.26162  0.59756  Biso   1.000  C
  C33      1.0000 0.65393  0.36400  0.69200  Biso   1.000  C
  C34      1.0000 0.66360  0.43340  0.67440  Biso   1.000  C
  C35      1.0000 0.63920  0.45780  0.72320  Biso   1.000  C
  C36      1.0000 0.60550  0.40880  0.78860  Biso   1.000  C
  C37      1.0000 0.59520  0.33670  0.80740  Biso   1.000  C
  C38      1.0000 0.62010  0.31470  0.75780  Biso   1.000  C
  C39      1.0000 0.57730  0.43300  0.84240  Biso   1.000  C
  C40      1.0000 0.72778  0.16788  0.54852  Biso   1.000  C
  C41      1.0000 0.68080  0.02240  0.63840  Biso   1.000  C
  C42      1.0000 0.77528  0.12218  0.54444  Biso   1.000  C
  C43      1.0000 0.75192  0.04952  0.58936  Biso   1.000  C
  C44      1.0000 0.63325  0.06815  0.64250  Biso   1.000  C
  C45      1.0000 0.65672  0.14082  0.59756  Biso   1.000  C
  C46      1.0000 0.65407  0.94400  0.69200  Biso   1.000  C
  C47      1.0000 0.66200  0.89220  0.67440  Biso   1.000  C
  C48      1.0000 0.63760  0.81900  0.72320  Biso   1.000  C
  C49      1.0000 0.60590  0.80260  0.78860  Biso   1.000  C
  C50      1.0000 0.59740  0.85590  0.80740  Biso   1.000  C
  C51      1.0000 0.62210  0.92750  0.75780  Biso   1.000  C
  C52      1.0000 0.58030  0.72460  0.84240  Biso   1.000  C
  C53      1.0000 0.83212  0.27630  0.45148  Biso   1.000  C
  C54      1.0000 0.97760  0.31920  0.36160  Biso   1.000  C
  C55      1.0000 0.87782  0.31972  0.45556  Biso   1.000  C
  C56      1.0000 0.95048  0.34128  0.41064  Biso   1.000  C
  C57      1.0000 0.93185  0.27575  0.35750  Biso   1.000  C
  C58      1.0000 0.85918  0.25428  0.40244  Biso   1.000  C
  C59      1.0000 0.05600  0.34607  0.30800  Biso   1.000  C
  C60      1.0000 0.10780  0.33640  0.32560  Biso   1.000  C
  C61      1.0000 0.18100  0.36080  0.27680  Biso   1.000  C
  C62      1.0000 0.19740  0.39450  0.21140  Biso   1.000  C
  C63      1.0000 0.14410  0.40480  0.19260  Biso   1.000  C
  C64      1.0000 0.07250  0.37990  0.24220  Biso   1.000  C
  C65      1.0000 0.27540  0.42270  0.15760  Biso   1.000  C
  C66      1.0000 0.71640  0.27222  0.45148  Biso   1.000  C
  C67      1.0000 0.66080  0.31920  0.36160  Biso   1.000  C
  C68      1.0000 0.66662  0.22472  0.45556  Biso   1.000  C
  C69      1.0000 0.63888  0.24808  0.41064  Biso   1.000  C
  C70      1.0000 0.71065  0.36675  0.35750  Biso   1.000  C
  C71      1.0000 0.73838  0.34328  0.40244  Biso   1.000  C
  C72      1.0000 0.63600  0.34593  0.30800  Biso   1.000  C
  C73      1.0000 0.56660  0.33800  0.32560  Biso   1.000  C
  C74      1.0000 0.54220  0.36240  0.27680  Biso   1.000  C
  C75      1.0000 0.59120  0.39410  0.21140  Biso   1.000  C
  C76      1.0000 0.66330  0.40260  0.19260  Biso   1.000  C
  C77      1.0000 0.68530  0.37790  0.24220  Biso   1.000  C
  C78      1.0000 0.56700  0.41970  0.15760  Biso   1.000  C
  C79      1.0000 0.27630  0.71640  0.45148  Biso   1.000  C
  C80      1.0000 0.31920  0.66080  0.36160  Biso   1.000  C
  C81      1.0000 0.31972  0.66662  0.45556  Biso   1.000  C
  C82      1.0000 0.34128  0.63888  0.41064  Biso   1.000  C
  C83      1.0000 0.27575  0.71065  0.35750  Biso   1.000  C
  C84      1.0000 0.25428  0.73838  0.40244  Biso   1.000  C
  C85      1.0000 0.34607  0.63600  0.30800  Biso   1.000  C
  C86      1.0000 0.33640  0.56660  0.32560  Biso   1.000  C
  C87      1.0000 0.36080  0.54220  0.27680  Biso   1.000  C
  C88      1.0000 0.39450  0.59120  0.21140  Biso   1.000  C
  C89      1.0000 0.40480  0.66330  0.19260  Biso   1.000  C
  C90      1.0000 0.37990  0.68530  0.24220  Biso   1.000  C
  C91      1.0000 0.42270  0.56700  0.15760  Biso   1.000  C
  C92      1.0000 0.27222  0.83212  0.45148  Biso   1.000  C
  C93      1.0000 0.31920  0.97760  0.36160  Biso   1.000  C
  C94      1.0000 0.22472  0.87782  0.45556  Biso   1.000  C
  C95      1.0000 0.24808  0.95048  0.41064  Biso   1.000  C
  C96      1.0000 0.36675  0.93185  0.35750  Biso   1.000  C
  C97      1.0000 0.34328  0.85918  0.40244  Biso   1.000  C
  C98      1.0000 0.34593  0.05600  0.30800  Biso   1.000  C
  C99      1.0000 0.33800  0.10780  0.32560  Biso   1.000  C
  C100     1.0000 0.36240  0.18100  0.27680  Biso   1.000  C
  C101     1.0000 0.39410  0.19740  0.21140  Biso   1.000  C
  C102     1.0000 0.40260  0.14410  0.19260  Biso   1.000  C
  C103     1.0000 0.37790  0.07250  0.24220  Biso   1.000  C
  C104     1.0000 0.41970  0.27540  0.15760  Biso   1.000  C
  C105     1.0000 0.25000  0.75000  0.50000  Biso   1.000  C
  C106     1.0000 0.75000  0.25000  0.50000  Biso   1.000  C
  O1       1.0000 0.67727  0.58847  0.82226  Biso   1.000  O
  O2       1.0000 0.71480  0.54820  0.90140  Biso   1.000  O
  O3       1.0000 0.58869  0.47039  0.94162  Biso   1.000  O
  O4       1.0000 0.50047  0.58927  0.82226  Biso   1.000  O
  O5       1.0000 0.38380  0.55040  0.90140  Biso   1.000  O
  O6       1.0000 0.46969  0.58799  0.94162  Biso   1.000  O
  O7       1.0000 0.58847  0.50047  0.82226  Biso   1.000  O
  O8       1.0000 0.54820  0.38380  0.90140  Biso   1.000  O
  O9       1.0000 0.47039  0.46969  0.94162  Biso   1.000  O
  O10      1.0000 0.58927  0.67727  0.82226  Biso   1.000  O
  O11      1.0000 0.55040  0.71480  0.90140  Biso   1.000  O
  O12      1.0000 0.58799  0.58869  0.94162  Biso   1.000  O
  O13      1.0000 0.32273  0.41153  0.17774  Biso   1.000  O
  O14      1.0000 0.28520  0.45180  0.09860  Biso   1.000  O
  O15      1.0000 0.41131  0.52961  0.05838  Biso   1.000  O
  O16      1.0000 0.49953  0.41073  0.17774  Biso   1.000  O
  O17      1.0000 0.61620  0.44960  0.09860  Biso   1.000  O
  O18      1.0000 0.53031  0.41201  0.05838  Biso   1.000  O
  O19      1.0000 0.41153  0.49953  0.17774  Biso   1.000  O
  O20      1.0000 0.45180  0.61620  0.09860  Biso   1.000  O
  O21      1.0000 0.52961  0.53031  0.05838  Biso   1.000  O
  O22      1.0000 0.41073  0.32273  0.17774  Biso   1.000  O
  O23      1.0000 0.44960  0.28520  0.09860  Biso   1.000  O
  O24      1.0000 0.41201  0.41131  0.05838  Biso   1.000  O
  O25      1.0000 0.67830  0.41790  0.00000  Biso   1.000  O
  O26      1.0000 0.67930  0.58120  0.00000  Biso   1.000  O
  O27      1.0000 0.32170  0.58210  0.00000  Biso   1.000  O
  O28      1.0000 0.32070  0.41880  0.00000  Biso   1.000  O
  O29      1.0000 0.41790  0.32170  0.00000  Biso   1.000  O
  O30      1.0000 0.58120  0.32070  1.00000  Biso   1.000  O
  O31      1.0000 0.58210  0.67830  1.00000  Biso   1.000  O
  O32      1.0000 0.41880  0.67930  0.00000  Biso   1.000  O
