data_image0
_cell_length_a       8.7749
_cell_length_b       15.8803
_cell_length_c       9.5077
_cell_angle_alpha    90
_cell_angle_beta     99.855
_cell_angle_gamma    90

_symmetry_space_group_name_H-M    "P 1"
_symmetry_int_tables_number       1

loop_
  _symmetry_equiv_pos_as_xyz
  'x, y, z'

loop_
  _atom_site_label
  _atom_site_occupancy
  _atom_site_fract_x
  _atom_site_fract_y
  _atom_site_fract_z
  _atom_site_thermal_displace_type
  _atom_site_B_iso_or_equiv
  _atom_site_type_symbol
  Y1       1.0000 0.02877  0.19556  0.52519  Biso   1.000  Y
  Se1      1.0000 0.72186  0.27879  0.70901  Biso   1.000  Se
  C1       1.0000 0.76960  0.20350  0.25000  Biso   1.000  C
  C2       1.0000 0.79240  0.29570  0.29850  Biso   1.000  C
  C3       1.0000 0.06820  0.99880  0.45890  Biso   1.000  C
  O1       1.0000 0.74010  0.37790  0.67350  Biso   1.000  O
  O2       1.0000 0.88210  0.22826  0.69660  Biso   1.000  O
  O3       1.0000 0.69690  0.26640  0.87530  Biso   1.000  O
  O4       1.0000 0.57560  0.24090  0.59820  Biso   1.000  O
  O5       1.0000 0.85330  0.15041  0.32600  Biso   1.000  O
  O6       1.0000 0.67080  0.18921  0.14170  Biso   1.000  O
  O7       1.0000 0.71050  0.34969  0.22180  Biso   1.000  O
  O8       1.0000 0.88760  0.31045  0.40820  Biso   1.000  O
  O9       1.0000 0.14010  0.06716  0.45550  Biso   1.000  O
  O10      1.0000 0.09570  0.93097  0.40260  Biso   1.000  O
  Y2       1.0000 0.47123  0.69556  0.97481  Biso   1.000  Y
  Se2      1.0000 0.77814  0.77879  0.79099  Biso   1.000  Se
  C4       1.0000 0.73040  0.70350  0.25000  Biso   1.000  C
  C5       1.0000 0.70760  0.79570  0.20150  Biso   1.000  C
  C6       1.0000 0.43180  0.49880  0.04110  Biso   1.000  C
  O11      1.0000 0.75990  0.87790  0.82650  Biso   1.000  O
  O12      1.0000 0.61790  0.72826  0.80340  Biso   1.000  O
  O13      1.0000 0.80310  0.76640  0.62470  Biso   1.000  O
  O14      1.0000 0.92440  0.74090  0.90180  Biso   1.000  O
  O15      1.0000 0.64670  0.65041  0.17400  Biso   1.000  O
  O16      1.0000 0.82920  0.68921  0.35830  Biso   1.000  O
  O17      1.0000 0.78950  0.84969  0.27820  Biso   1.000  O
  O18      1.0000 0.61240  0.81045  0.09180  Biso   1.000  O
  O19      1.0000 0.35990  0.56716  0.04450  Biso   1.000  O
  O20      1.0000 0.40430  0.43097  0.09740  Biso   1.000  O
  Y3       1.0000 0.97123  0.80444  0.47481  Biso   1.000  Y
  Se3      1.0000 0.27814  0.72121  0.29099  Biso   1.000  Se
  C7       1.0000 0.23040  0.79650  0.75000  Biso   1.000  C
  C8       1.0000 0.20760  0.70430  0.70150  Biso   1.000  C
  C9       1.0000 0.93180  0.00120  0.54110  Biso   1.000  C
  O21      1.0000 0.25990  0.62210  0.32650  Biso   1.000  O
  O22      1.0000 0.11790  0.77174  0.30340  Biso   1.000  O
  O23      1.0000 0.30310  0.73360  0.12470  Biso   1.000  O
  O24      1.0000 0.42440  0.75910  0.40180  Biso   1.000  O
  O25      1.0000 0.14670  0.84959  0.67400  Biso   1.000  O
  O26      1.0000 0.32920  0.81079  0.85830  Biso   1.000  O
  O27      1.0000 0.28950  0.65031  0.77820  Biso   1.000  O
  O28      1.0000 0.11240  0.68955  0.59180  Biso   1.000  O
  O29      1.0000 0.85990  0.93284  0.54450  Biso   1.000  O
  O30      1.0000 0.90430  0.06903  0.59740  Biso   1.000  O
  Y4       1.0000 0.52877  0.30444  0.02519  Biso   1.000  Y
  Se4      1.0000 0.22186  0.22121  0.20901  Biso   1.000  Se
  C10      1.0000 0.26960  0.29650  0.75000  Biso   1.000  C
  C11      1.0000 0.29240  0.20430  0.79850  Biso   1.000  C
  C12      1.0000 0.56820  0.50120  0.95890  Biso   1.000  C
  O31      1.0000 0.24010  0.12210  0.17350  Biso   1.000  O
  O32      1.0000 0.38210  0.27174  0.19660  Biso   1.000  O
  O33      1.0000 0.19690  0.23360  0.37530  Biso   1.000  O
  O34      1.0000 0.07560  0.25910  0.09820  Biso   1.000  O
  O35      1.0000 0.35330  0.34959  0.82600  Biso   1.000  O
  O36      1.0000 0.17080  0.31079  0.64170  Biso   1.000  O
  O37      1.0000 0.21050  0.15031  0.72180  Biso   1.000  O
  O38      1.0000 0.38760  0.18955  0.90820  Biso   1.000  O
  O39      1.0000 0.64010  0.43284  0.95550  Biso   1.000  O
  O40      1.0000 0.59570  0.56903  0.90260  Biso   1.000  O
