data_image0
_cell_length_a       10.8161
_cell_length_b       10.8161
_cell_length_c       9.7482
_cell_angle_alpha    90
_cell_angle_beta     90
_cell_angle_gamma    120

_symmetry_space_group_name_H-M    "P 1"
_symmetry_int_tables_number       1

loop_
  _symmetry_equiv_pos_as_xyz
  'x, y, z'

loop_
  _atom_site_label
  _atom_site_occupancy
  _atom_site_fract_x
  _atom_site_fract_y
  _atom_site_fract_z
  _atom_site_thermal_displace_type
  _atom_site_B_iso_or_equiv
  _atom_site_type_symbol
  N1       1.0000 0.56720  0.63920  0.20030  Biso   1.000  N
  N2       1.0000 0.54250  0.81210  0.32630  Biso   1.000  N
  C1       1.0000 0.61680  0.60770  0.31380  Biso   1.000  C
  H1       1.0000 0.64300  0.53790  0.30860  Biso   1.000  H
  C2       1.0000 0.63010  0.67480  0.43690  Biso   1.000  C
  C3       1.0000 0.59250  0.77870  0.43810  Biso   1.000  C
  H2       1.0000 0.60210  0.82780  0.51940  Biso   1.000  H
  C4       1.0000 0.53320  0.73990  0.21280  Biso   1.000  C
  H3       1.0000 0.49940  0.76270  0.13460  Biso   1.000  H
  N3       1.0000 0.36080  0.92800  0.53363  Biso   1.000  N
  N4       1.0000 0.18790  0.73040  0.65963  Biso   1.000  N
  C5       1.0000 0.39230  0.00910  0.64713  Biso   1.000  C
  H4       1.0000 0.46210  0.10510  0.64193  Biso   1.000  H
  C6       1.0000 0.32520  0.95530  0.77023  Biso   1.000  C
  C7       1.0000 0.22130  0.81380  0.77143  Biso   1.000  C
  H5       1.0000 0.17220  0.77430  0.85273  Biso   1.000  H
  C8       1.0000 0.26010  0.79330  0.54613  Biso   1.000  C
  H6       1.0000 0.23730  0.73670  0.46793  Biso   1.000  H
  N5       1.0000 0.07200  0.43280  0.86697  Biso   1.000  N
  N6       1.0000 0.26960  0.45750  0.99297  Biso   1.000  N
  C9       1.0000 0.99090  0.38320  0.98047  Biso   1.000  C
  H7       1.0000 0.89490  0.35700  0.97527  Biso   1.000  H
  C10      1.0000 0.04470  0.36990  0.10357  Biso   1.000  C
  C11      1.0000 0.18620  0.40750  0.10477  Biso   1.000  C
  H8       1.0000 0.22570  0.39790  0.18607  Biso   1.000  H
  C12      1.0000 0.20670  0.46680  0.87947  Biso   1.000  C
  H9       1.0000 0.26330  0.50060  0.80127  Biso   1.000  H
  N7       1.0000 0.63920  0.56720  0.79970  Biso   1.000  N
  N8       1.0000 0.81210  0.54250  0.67370  Biso   1.000  N
  C13      1.0000 0.60770  0.61680  0.68620  Biso   1.000  C
  H10      1.0000 0.53790  0.64300  0.69140  Biso   1.000  H
  C14      1.0000 0.67480  0.63010  0.56310  Biso   1.000  C
  C15      1.0000 0.77870  0.59250  0.56190  Biso   1.000  C
  H11      1.0000 0.82780  0.60210  0.48060  Biso   1.000  H
  C16      1.0000 0.73990  0.53320  0.78720  Biso   1.000  C
  H12      1.0000 0.76270  0.49940  0.86540  Biso   1.000  H
  N9       1.0000 0.92800  0.36080  0.46637  Biso   1.000  N
  N10      1.0000 0.73040  0.18790  0.34037  Biso   1.000  N
  C17      1.0000 0.00910  0.39230  0.35287  Biso   1.000  C
  H13      1.0000 0.10510  0.46210  0.35807  Biso   1.000  H
  C18      1.0000 0.95530  0.32520  0.22977  Biso   1.000  C
  C19      1.0000 0.81380  0.22130  0.22857  Biso   1.000  C
  H14      1.0000 0.77430  0.17220  0.14727  Biso   1.000  H
  C20      1.0000 0.79330  0.26010  0.45387  Biso   1.000  C
  H15      1.0000 0.73670  0.23730  0.53207  Biso   1.000  H
  N11      1.0000 0.43280  0.07200  0.13303  Biso   1.000  N
  N12      1.0000 0.45750  0.26960  0.00703  Biso   1.000  N
  C21      1.0000 0.38320  0.99090  0.01953  Biso   1.000  C
  H16      1.0000 0.35700  0.89490  0.02473  Biso   1.000  H
  C22      1.0000 0.36990  0.04470  0.89643  Biso   1.000  C
  C23      1.0000 0.40750  0.18620  0.89523  Biso   1.000  C
  H17      1.0000 0.39790  0.22570  0.81393  Biso   1.000  H
  C24      1.0000 0.46680  0.20670  0.12053  Biso   1.000  C
  H18      1.0000 0.50060  0.26330  0.19873  Biso   1.000  H
  Ag1      1.0000 0.51502  0.51502  0.00000  Biso   1.000  Ag
  Ag2      1.0000 0.48498  0.00000  0.33333  Biso   1.000  Ag
  Ag3      1.0000 0.00000  0.48498  0.66667  Biso   1.000  Ag
