data_DIWNAA_freeONLY
_audit_creation_date              2015-10-16
_audit_creation_method            'Materials Studio'
_symmetry_space_group_name_H-M    'P1'
_symmetry_Int_Tables_number       1
_symmetry_cell_setting            triclinic
loop_
_symmetry_equiv_pos_as_xyz
  x,y,z
_cell_length_a                    8.5897
_cell_length_b                    17.4446
_cell_length_c                    17.4446
_cell_angle_alpha                 120.0000
_cell_angle_beta                  90.0000
_cell_angle_gamma                 90.0000
loop_
_atom_site_label
_atom_site_type_symbol
_atom_site_fract_x
_atom_site_fract_y
_atom_site_fract_z
_atom_site_U_iso_or_equiv
_atom_site_adp_type
_atom_site_occupancy
Mg1    Mg    0.66667   0.00000   0.53516   0.01267  Uiso   1.00
Mg2    Mg    0.33333   0.46484   0.46484   0.01267  Uiso   1.00
Mg3    Mg    0.00000   0.53516   0.00000   0.01267  Uiso   1.00
H1     H     0.54313   0.87890   0.68970   0.01267  Uiso   1.00
H2     H     0.63373   0.57640   0.54280   0.01267  Uiso   1.00
H3     H     0.53257   0.04230   0.24300   0.01267  Uiso   1.00
H4     H     0.30040   0.45720   0.03360   0.01267  Uiso   1.00
H5     H     0.87647   0.81080   0.12110   0.01267  Uiso   1.00
H6     H     0.86800   0.54600   0.12800   0.01267  Uiso   1.00
H7     H     0.13410   0.24300   0.04230   0.01267  Uiso   1.00
H8     H     0.86563   0.37240   0.64150   0.01267  Uiso   1.00
H9     H     0.46533   0.45400   0.58200   0.01267  Uiso   1.00
H10    H     0.19897   0.26910   0.62760   0.01267  Uiso   1.00
H11    H     0.38067   0.25360   0.63520   0.01267  Uiso   1.00
H12    H     0.07917   0.79080   0.45910   0.01267  Uiso   1.00
H13    H     0.32503   0.46280   0.69600   0.01267  Uiso   1.00
H14    H     0.10187   0.09870   0.44550   0.01267  Uiso   1.00
H15    H     0.74583   0.54090   0.33170   0.01267  Uiso   1.00
H16    H     0.79867   0.12800   0.54600   0.01267  Uiso   1.00
H17    H     0.58750   0.45910   0.79080   0.01267  Uiso   1.00
H18    H     0.45687   0.18920   0.31030   0.01267  Uiso   1.00
H19    H     0.56810   0.27410   0.85210   0.01267  Uiso   1.00
H20    H     0.89813   0.65320   0.55450   0.01267  Uiso   1.00
H21    H     0.28600   0.63520   0.25360   0.01267  Uiso   1.00
H22    H     0.99170   0.30400   0.76680   0.01267  Uiso   1.00
H23    H     0.04733   0.36480   0.61840   0.01267  Uiso   1.00
H24    H     0.69960   0.42360   0.96640   0.01267  Uiso   1.00
H25    H     0.00830   0.53720   0.23320   0.01267  Uiso   1.00
H26    H     0.19923   0.75700   0.79930   0.01267  Uiso   1.00
H27    H     0.10967   0.20450   0.49740   0.01267  Uiso   1.00
H28    H     0.95267   0.74640   0.38160   0.01267  Uiso   1.00
H29    H     0.23147   0.90130   0.34680   0.01267  Uiso   1.00
H30    H     0.92083   0.33170   0.54090   0.01267  Uiso   1.00
H31    H     0.76853   0.55450   0.65320   0.01267  Uiso   1.00
H32    H     0.79020   0.12110   0.81080   0.01267  Uiso   1.00
H33    H     0.44300   0.29290   0.79550   0.01267  Uiso   1.00
H34    H     0.43520   0.34680   0.90130   0.01267  Uiso   1.00
H35    H     0.89033   0.70710   0.50260   0.01267  Uiso   1.00
H36    H     0.09857   0.85210   0.27410   0.01267  Uiso   1.00
H37    H     0.80077   0.95770   0.20070   0.01267  Uiso   1.00
H38    H     0.23477   0.14790   0.42200   0.01267  Uiso   1.00
H39    H     0.36627   0.03360   0.45720   0.01267  Uiso   1.00
H40    H     0.53467   0.87200   0.41800   0.01267  Uiso   1.00
H41    H     0.61933   0.61840   0.36480   0.01267  Uiso   1.00
H42    H     0.67497   0.76680   0.30400   0.01267  Uiso   1.00
H43    H     0.43190   0.42200   0.14790   0.01267  Uiso   1.00
H44    H     0.55700   0.49740   0.20450   0.01267  Uiso   1.00
H45    H     0.22367   0.79550   0.29290   0.01267  Uiso   1.00
H46    H     0.46743   0.79930   0.75700   0.01267  Uiso   1.00
H47    H     0.20980   0.31030   0.18920   0.01267  Uiso   1.00
H48    H     0.41250   0.66830   0.20920   0.01267  Uiso   1.00
H49    H     0.53230   0.35850   0.73090   0.01267  Uiso   1.00
H50    H     0.71400   0.38160   0.74640   0.01267  Uiso   1.00
H51    H     0.65837   0.23320   0.53720   0.01267  Uiso   1.00
H52    H     0.76523   0.72590   0.57800   0.01267  Uiso   1.00
H53    H     0.77633   0.50260   0.70710   0.01267  Uiso   1.00
H54    H     0.13200   0.41800   0.87200   0.01267  Uiso   1.00
H55    H     0.86590   0.20070   0.95770   0.01267  Uiso   1.00
H56    H     0.25417   0.20920   0.66830   0.01267  Uiso   1.00
H57    H     0.03293   0.54280   0.57640   0.01267  Uiso   1.00
H58    H     0.12353   0.68970   0.87890   0.01267  Uiso   1.00
H59    H     0.46770   0.62760   0.26910   0.01267  Uiso   1.00
H60    H     0.90143   0.57800   0.72590   0.01267  Uiso   1.00
H61    H     0.20133   0.58200   0.45400   0.01267  Uiso   1.00
H62    H     0.80103   0.64150   0.37240   0.01267  Uiso   1.00
H63    H     0.13437   0.73090   0.35850   0.01267  Uiso   1.00
H64    H     0.34163   0.69600   0.46280   0.01267  Uiso   1.00
H65    H     0.56480   0.44550   0.09870   0.01267  Uiso   1.00
H66    H     0.96707   0.96640   0.42360   0.01267  Uiso   1.00
C1     C     0.97600   0.30130   0.95350   0.01267  Uiso   1.00
C2     C     0.02400   0.34780   0.04650   0.01267  Uiso   1.00
C3     C     0.27717   0.22650   0.62400   0.01267  Uiso   1.00
C4     C     0.64267   0.04650   0.34780   0.01267  Uiso   1.00
C5     C     0.05617   0.77350   0.39750   0.01267  Uiso   1.00
C6     C     0.03430   0.47699   0.19388   0.01267  Uiso   1.00
C7     C     0.15400   0.34340   0.16850   0.01267  Uiso   1.00
C8     C     0.89230   0.22260   0.91930   0.01267  Uiso   1.00
C9     C     0.49510   0.46980   0.15000   0.01267  Uiso   1.00
C10    C     0.50283   0.84460   0.52509   0.01267  Uiso   1.00
C11    C     0.83617   0.68049   0.15540   0.01267  Uiso   1.00
C12    C     0.16950   0.47491   0.31951   0.01267  Uiso   1.00
C13    C     0.36763   0.71689   0.52301   0.01267  Uiso   1.00
C14    C     0.10770   0.30330   0.08070   0.01267  Uiso   1.00
C15    C     0.72283   0.60250   0.37600   0.01267  Uiso   1.00
C16    C     0.29903   0.52301   0.71689   0.01267  Uiso   1.00
C17    C     0.34633   0.56297   0.66951   0.01267  Uiso   1.00
C18    C     0.17157   0.15000   0.46980   0.01267  Uiso   1.00
C19    C     0.62973   0.56630   0.48410   0.01267  Uiso   1.00
C20    C     0.84600   0.17490   0.83150   0.01267  Uiso   1.00
C21    C     0.54727   0.22496   0.43020   0.01267  Uiso   1.00
C22    C     0.78607   0.77504   0.20524   0.01267  Uiso   1.00
C23    C     0.70360   0.43370   0.91780   0.01267  Uiso   1.00
C24    C     0.82067   0.83150   0.17490   0.01267  Uiso   1.00
C25    C     0.96307   0.91780   0.43370   0.01267  Uiso   1.00
C26    C     0.70097   0.80612   0.28311   0.01267  Uiso   1.00
C27    C     0.50490   0.31980   0.85000   0.01267  Uiso   1.00
C28    C     0.16177   0.85000   0.31980   0.01267  Uiso   1.00
C29    C     0.37027   0.08220   0.51590   0.01267  Uiso   1.00
C30    C     0.03693   0.48410   0.56630   0.01267  Uiso   1.00
C31    C     0.63237   0.19388   0.47699   0.01267  Uiso   1.00
C32    C     0.98700   0.43703   0.10654   0.01267  Uiso   1.00
C33    C     0.82843   0.68020   0.53020   0.01267  Uiso   1.00
C34    C     0.77437   0.91930   0.22260   0.01267  Uiso   1.00
C35    C     0.38950   0.62400   0.22650   0.01267  Uiso   1.00
C36    C     0.51267   0.16850   0.34340   0.01267  Uiso   1.00
C37    C     0.21393   0.56980   0.79476   0.01267  Uiso   1.00
C38    C     0.55897   0.08070   0.30330   0.01267  Uiso   1.00
C39    C     0.96570   0.28311   0.80612   0.01267  Uiso   1.00
C40    C     0.83050   0.15540   0.68049   0.01267  Uiso   1.00
C41    C     0.69067   0.95350   0.30130   0.01267  Uiso   1.00
C42    C     0.94383   0.37600   0.60250   0.01267  Uiso   1.00
C43    C     0.32033   0.66951   0.56297   0.01267  Uiso   1.00
C44    C     0.01300   0.33049   0.89346   0.01267  Uiso   1.00
C45    C     0.49717   0.31951   0.47491   0.01267  Uiso   1.00
C46    C     0.35733   0.69870   0.65220   0.01267  Uiso   1.00
C47    C     0.17933   0.65660   0.82510   0.01267  Uiso   1.00
C48    C     0.61050   0.39750   0.77350   0.01267  Uiso   1.00
C49    C     0.48733   0.82510   0.65660   0.01267  Uiso   1.00
C50    C     0.65367   0.89346   0.33049   0.01267  Uiso   1.00
C51    C     0.11940   0.43020   0.22496   0.01267  Uiso   1.00
C52    C     0.67967   0.10654   0.43703   0.01267  Uiso   1.00
C53    C     0.22563   0.69670   0.77740   0.01267  Uiso   1.00
C54    C     0.29640   0.51590   0.08220   0.01267  Uiso   1.00
C55    C     0.44103   0.77740   0.69670   0.01267  Uiso   1.00
C56    C     0.16383   0.52509   0.84460   0.01267  Uiso   1.00
C57    C     0.88060   0.20524   0.77504   0.01267  Uiso   1.00
C58    C     0.45273   0.79476   0.56980   0.01267  Uiso   1.00
C59    C     0.83823   0.53020   0.68020   0.01267  Uiso   1.00
C60    C     0.30933   0.65220   0.69870   0.01267  Uiso   1.00
N1     N     0.72633   0.61230   0.46370   0.01267  Uiso   1.00
N2     N     0.27367   0.14860   0.53630   0.01267  Uiso   1.00
N3     N     0.60700   0.38770   0.85140   0.01267  Uiso   1.00
N4     N     0.39300   0.53630   0.14860   0.01267  Uiso   1.00
N5     N     0.94033   0.46370   0.61230   0.01267  Uiso   1.00
N6     N     0.05967   0.85140   0.38770   0.01267  Uiso   1.00
O1     O     0.23543   0.59260   0.51598   0.01267  Uiso   1.00
O2     O     0.86220   0.18851   0.63155   0.01267  Uiso   1.00
O3     O     0.13303   0.43281   0.51061   0.01267  Uiso   1.00
O4     O     0.90210   0.48402   0.07662   0.01267  Uiso   1.00
O5     O     0.43123   0.51598   0.59260   0.01267  Uiso   1.00
O6     O     0.53363   0.51061   0.43281   0.01267  Uiso   1.00
O7     O     0.09790   0.40740   0.92338   0.01267  Uiso   1.00
O8     O     0.79970   0.48939   0.92220   0.01267  Uiso   1.00
O9     O     0.76457   0.07662   0.48402   0.01267  Uiso   1.00
O10    O     0.75920   0.08431   0.65450   0.01267  Uiso   1.00
O11    O     0.46637   0.07780   0.56719   0.01267  Uiso   1.00
O12    O     0.24080   0.42981   0.34550   0.01267  Uiso   1.00
O13    O     0.56877   0.92338   0.40740   0.01267  Uiso   1.00
O14    O     0.09253   0.57019   0.91569   0.01267  Uiso   1.00
O15    O     0.20030   0.56719   0.07780   0.01267  Uiso   1.00
O16    O     0.19553   0.44304   0.81149   0.01267  Uiso   1.00
O17    O     0.90747   0.65450   0.08431   0.01267  Uiso   1.00
O18    O     0.47113   0.81149   0.44304   0.01267  Uiso   1.00
O19    O     0.42587   0.34550   0.42981   0.01267  Uiso   1.00
O20    O     0.86697   0.92220   0.48939   0.01267  Uiso   1.00
O21    O     0.52887   0.36845   0.55696   0.01267  Uiso   1.00
O22    O     0.57413   0.91569   0.57019   0.01267  Uiso   1.00
O23    O     0.13780   0.55696   0.36845   0.01267  Uiso   1.00
O24    O     0.80447   0.63155   0.18851   0.01267  Uiso   1.00
