data_image0
_cell_length_a       13.8637
_cell_length_b       18.9411
_cell_length_c       19.0079
_cell_angle_alpha    90
_cell_angle_beta     90
_cell_angle_gamma    90

_symmetry_space_group_name_H-M    P 1
_symmetry_int_tables_number       1

loop_
  _symmetry_equiv_pos_as_xyz
  'x, y, z'

loop_
  _atom_site_label
  _atom_site_occupancy
  _atom_site_fract_x
  _atom_site_fract_y
  _atom_site_fract_z
  _atom_site_thermal_displace_type
  _atom_site_B_iso_or_equiv
  _atom_site_type_symbol
  Zn1      1.0000 0.36485  0.89688  0.56850  Biso   1.000  Zn
  Zn2      1.0000 0.63516  0.39688  0.93150  Biso   1.000  Zn
  Zn3      1.0000 0.63516  0.10312  0.43150  Biso   1.000  Zn
  Zn4      1.0000 0.36485  0.60312  0.06850  Biso   1.000  Zn
  Co1      1.0000 0.40355  0.48311  0.95656  Biso   1.000  Co
  Co2      1.0000 0.59645  0.98311  0.54344  Biso   1.000  Co
  Co3      1.0000 0.59645  0.51689  0.04344  Biso   1.000  Co
  Co4      1.0000 0.40355  0.01689  0.45656  Biso   1.000  Co
  H1       1.0000 0.41310  0.71820  0.70140  Biso   1.000  H
  H2       1.0000 0.42020  0.63500  0.78950  Biso   1.000  H
  H3       1.0000 0.37770  0.78590  0.93290  Biso   1.000  H
  H4       1.0000 0.37490  0.86920  0.84420  Biso   1.000  H
  H5       1.0000 0.11210  0.06670  0.44180  Biso   1.000  H
  H6       1.0000 0.04890  0.91080  0.57380  Biso   1.000  H
  H7       1.0000 0.38350  0.36660  0.07910  Biso   1.000  H
  H8       1.0000 0.35700  0.24760  0.09020  Biso   1.000  H
  H9       1.0000 0.34870  0.17800  0.99090  Biso   1.000  H
  H10      1.0000 0.34670  0.34990  0.68260  Biso   1.000  H
  H11      1.0000 0.35480  0.47080  0.68860  Biso   1.000  H
  H12      1.0000 0.37610  0.52410  0.79660  Biso   1.000  H
  H13      1.0000 0.43620  0.00240  0.58560  Biso   1.000  H
  H14      1.0000 0.58690  0.21820  0.79860  Biso   1.000  H
  H15      1.0000 0.57980  0.13500  0.71050  Biso   1.000  H
  H16      1.0000 0.62230  0.28590  0.56710  Biso   1.000  H
  H17      1.0000 0.62510  0.36920  0.65580  Biso   1.000  H
  H18      1.0000 0.88790  0.56670  0.05820  Biso   1.000  H
  H19      1.0000 0.95110  0.41080  0.92620  Biso   1.000  H
  H20      1.0000 0.61650  0.86660  0.42090  Biso   1.000  H
  H21      1.0000 0.64300  0.74760  0.40980  Biso   1.000  H
  H22      1.0000 0.65130  0.67800  0.50910  Biso   1.000  H
  H23      1.0000 0.65330  0.84990  0.81740  Biso   1.000  H
  H24      1.0000 0.64520  0.97080  0.81140  Biso   1.000  H
  H25      1.0000 0.62390  0.02410  0.70340  Biso   1.000  H
  H26      1.0000 0.56380  0.50240  0.91440  Biso   1.000  H
  H27      1.0000 0.58690  0.28180  0.29860  Biso   1.000  H
  H28      1.0000 0.57980  0.36500  0.21050  Biso   1.000  H
  H29      1.0000 0.62230  0.21410  0.06710  Biso   1.000  H
  H30      1.0000 0.62510  0.13080  0.15580  Biso   1.000  H
  H31      1.0000 0.88790  0.93330  0.55820  Biso   1.000  H
  H32      1.0000 0.95110  0.08920  0.42620  Biso   1.000  H
  H33      1.0000 0.61650  0.63340  0.92090  Biso   1.000  H
  H34      1.0000 0.64300  0.75240  0.90980  Biso   1.000  H
  H35      1.0000 0.65130  0.82200  0.00910  Biso   1.000  H
  H36      1.0000 0.65330  0.65010  0.31740  Biso   1.000  H
  H37      1.0000 0.64520  0.52920  0.31140  Biso   1.000  H
  H38      1.0000 0.62390  0.47590  0.20340  Biso   1.000  H
  H39      1.0000 0.56380  0.99760  0.41440  Biso   1.000  H
  H40      1.0000 0.41310  0.78180  0.20140  Biso   1.000  H
  H41      1.0000 0.42020  0.86500  0.28950  Biso   1.000  H
  H42      1.0000 0.37770  0.71410  0.43290  Biso   1.000  H
  H43      1.0000 0.37490  0.63080  0.34420  Biso   1.000  H
  H44      1.0000 0.11210  0.43330  0.94180  Biso   1.000  H
  H45      1.0000 0.04890  0.58920  0.07380  Biso   1.000  H
  H46      1.0000 0.38350  0.13340  0.57910  Biso   1.000  H
  H47      1.0000 0.35700  0.25240  0.59020  Biso   1.000  H
  H48      1.0000 0.34870  0.32200  0.49090  Biso   1.000  H
  H49      1.0000 0.34670  0.15010  0.18260  Biso   1.000  H
  H50      1.0000 0.35480  0.02920  0.18860  Biso   1.000  H
  H51      1.0000 0.37610  0.97590  0.29660  Biso   1.000  H
  H52      1.0000 0.43620  0.49760  0.08560  Biso   1.000  H
  C1       1.0000 0.38653  0.85637  0.70651  Biso   1.000  C
  C2       1.0000 0.39237  0.80174  0.76367  Biso   1.000  C
  C3       1.0000 0.40610  0.73210  0.74803  Biso   1.000  C
  C4       1.0000 0.40950  0.68213  0.80080  Biso   1.000  C
  C5       1.0000 0.39716  0.70143  0.87028  Biso   1.000  C
  C6       1.0000 0.38470  0.77186  0.88625  Biso   1.000  C
  C7       1.0000 0.38280  0.82178  0.83307  Biso   1.000  C
  C8       1.0000 0.39561  0.64619  0.92726  Biso   1.000  C
  C9       1.0000 0.20347  0.97237  0.51675  Biso   1.000  C
  C10      1.0000 0.09798  0.98630  0.50909  Biso   1.000  C
  C11      1.0000 0.06690  0.03934  0.46555  Biso   1.000  C
  C12      1.0000 0.02968  0.94699  0.54376  Biso   1.000  C
  C13      1.0000 0.37810  0.33925  0.03870  Biso   1.000  C
  C14      1.0000 0.36310  0.26767  0.04580  Biso   1.000  C
  C15      1.0000 0.35720  0.22655  0.98690  Biso   1.000  C
  C16      1.0000 0.36400  0.25758  0.92127  Biso   1.000  C
  C17      1.0000 0.35640  0.21607  0.85600  Biso   1.000  C
  C18      1.0000 0.35460  0.25502  0.78530  Biso   1.000  C
  C19      1.0000 0.36215  0.33292  0.78681  Biso   1.000  C
  C20      1.0000 0.35490  0.37230  0.72574  Biso   1.000  C
  C21      1.0000 0.35980  0.44350  0.72913  Biso   1.000  C
  C22      1.0000 0.37250  0.47514  0.79445  Biso   1.000  C
  C23      1.0000 0.37405  0.36825  0.85036  Biso   1.000  C
  C24      1.0000 0.37620  0.33096  0.91823  Biso   1.000  C
  C25      1.0000 0.61347  0.35637  0.79349  Biso   1.000  C
  C26      1.0000 0.60763  0.30174  0.73633  Biso   1.000  C
  C27      1.0000 0.59390  0.23210  0.75197  Biso   1.000  C
  C28      1.0000 0.59050  0.18213  0.69920  Biso   1.000  C
  C29      1.0000 0.60284  0.20143  0.62972  Biso   1.000  C
  C30      1.0000 0.61530  0.27186  0.61375  Biso   1.000  C
  C31      1.0000 0.61720  0.32178  0.66693  Biso   1.000  C
  C32      1.0000 0.60439  0.14619  0.57274  Biso   1.000  C
  C33      1.0000 0.79653  0.47237  0.98325  Biso   1.000  C
  C34      1.0000 0.90202  0.48630  0.99091  Biso   1.000  C
  C35      1.0000 0.93310  0.53934  0.03445  Biso   1.000  C
  C36      1.0000 0.97032  0.44699  0.95624  Biso   1.000  C
  C37      1.0000 0.62190  0.83925  0.46130  Biso   1.000  C
  C38      1.0000 0.63690  0.76767  0.45420  Biso   1.000  C
  C39      1.0000 0.64280  0.72655  0.51310  Biso   1.000  C
  C40      1.0000 0.63600  0.75758  0.57873  Biso   1.000  C
  C41      1.0000 0.64360  0.71607  0.64400  Biso   1.000  C
  C42      1.0000 0.64540  0.75502  0.71470  Biso   1.000  C
  C43      1.0000 0.63785  0.83292  0.71319  Biso   1.000  C
  C44      1.0000 0.64510  0.87230  0.77426  Biso   1.000  C
  C45      1.0000 0.64020  0.94350  0.77087  Biso   1.000  C
  C46      1.0000 0.62750  0.97514  0.70555  Biso   1.000  C
  C47      1.0000 0.62595  0.86825  0.64964  Biso   1.000  C
  C48      1.0000 0.62380  0.83096  0.58177  Biso   1.000  C
  C49      1.0000 0.61347  0.14363  0.29349  Biso   1.000  C
  C50      1.0000 0.60763  0.19826  0.23633  Biso   1.000  C
  C51      1.0000 0.59390  0.26790  0.25197  Biso   1.000  C
  C52      1.0000 0.59050  0.31787  0.19920  Biso   1.000  C
  C53      1.0000 0.60284  0.29857  0.12972  Biso   1.000  C
  C54      1.0000 0.61530  0.22814  0.11375  Biso   1.000  C
  C55      1.0000 0.61720  0.17822  0.16693  Biso   1.000  C
  C56      1.0000 0.60439  0.35381  0.07274  Biso   1.000  C
  C57      1.0000 0.79653  0.02763  0.48325  Biso   1.000  C
  C58      1.0000 0.90202  0.01370  0.49091  Biso   1.000  C
  C59      1.0000 0.93310  0.96066  0.53445  Biso   1.000  C
  C60      1.0000 0.97032  0.05301  0.45624  Biso   1.000  C
  C61      1.0000 0.62190  0.66075  0.96130  Biso   1.000  C
  C62      1.0000 0.63690  0.73233  0.95420  Biso   1.000  C
  C63      1.0000 0.64280  0.77345  0.01310  Biso   1.000  C
  C64      1.0000 0.63600  0.74242  0.07873  Biso   1.000  C
  C65      1.0000 0.64360  0.78393  0.14400  Biso   1.000  C
  C66      1.0000 0.64540  0.74498  0.21470  Biso   1.000  C
  C67      1.0000 0.63785  0.66708  0.21319  Biso   1.000  C
  C68      1.0000 0.64510  0.62770  0.27426  Biso   1.000  C
  C69      1.0000 0.64020  0.55650  0.27087  Biso   1.000  C
  C70      1.0000 0.62750  0.52486  0.20555  Biso   1.000  C
  C71      1.0000 0.62595  0.63175  0.14964  Biso   1.000  C
  C72      1.0000 0.62380  0.66904  0.08177  Biso   1.000  C
  C73      1.0000 0.38653  0.64363  0.20651  Biso   1.000  C
  C74      1.0000 0.39237  0.69826  0.26367  Biso   1.000  C
  C75      1.0000 0.40610  0.76790  0.24803  Biso   1.000  C
  C76      1.0000 0.40950  0.81787  0.30080  Biso   1.000  C
  C77      1.0000 0.39716  0.79857  0.37028  Biso   1.000  C
  C78      1.0000 0.38470  0.72814  0.38625  Biso   1.000  C
  C79      1.0000 0.38280  0.67822  0.33307  Biso   1.000  C
  C80      1.0000 0.39561  0.85381  0.42726  Biso   1.000  C
  C81      1.0000 0.20347  0.52763  0.01675  Biso   1.000  C
  C82      1.0000 0.09798  0.51370  0.00909  Biso   1.000  C
  C83      1.0000 0.06690  0.46066  0.96555  Biso   1.000  C
  C84      1.0000 0.02968  0.55301  0.04376  Biso   1.000  C
  C85      1.0000 0.37810  0.16075  0.53870  Biso   1.000  C
  C86      1.0000 0.36310  0.23233  0.54580  Biso   1.000  C
  C87      1.0000 0.35720  0.27345  0.48690  Biso   1.000  C
  C88      1.0000 0.36400  0.24242  0.42127  Biso   1.000  C
  C89      1.0000 0.35640  0.28393  0.35600  Biso   1.000  C
  C90      1.0000 0.35460  0.24498  0.28530  Biso   1.000  C
  C91      1.0000 0.36215  0.16708  0.28681  Biso   1.000  C
  C92      1.0000 0.35490  0.12770  0.22574  Biso   1.000  C
  C93      1.0000 0.35980  0.05650  0.22913  Biso   1.000  C
  C94      1.0000 0.37250  0.02486  0.29445  Biso   1.000  C
  C95      1.0000 0.37405  0.13175  0.35036  Biso   1.000  C
  C96      1.0000 0.37620  0.16904  0.41823  Biso   1.000  C
  N1       1.0000 0.38539  0.37097  0.97605  Biso   1.000  N
  N2       1.0000 0.37978  0.43882  0.85398  Biso   1.000  N
  N3       1.0000 0.61461  0.87097  0.52395  Biso   1.000  N
  N4       1.0000 0.62022  0.93882  0.64602  Biso   1.000  N
  N5       1.0000 0.61461  0.62903  0.02395  Biso   1.000  N
  N6       1.0000 0.62022  0.56118  0.14602  Biso   1.000  N
  N7       1.0000 0.38539  0.12903  0.47605  Biso   1.000  N
  N8       1.0000 0.37978  0.06118  0.35398  Biso   1.000  N
  O1       1.0000 0.38730  0.83215  0.64420  Biso   1.000  O
  O2       1.0000 0.38091  0.91885  0.72132  Biso   1.000  O
  O3       1.0000 0.40877  0.58352  0.91003  Biso   1.000  O
  O4       1.0000 0.38126  0.66794  0.98908  Biso   1.000  O
  O5       1.0000 0.25929  0.00745  0.47929  Biso   1.000  O
  O6       1.0000 0.22851  0.92591  0.56115  Biso   1.000  O
  O7       1.0000 0.35160  0.15199  0.85640  Biso   1.000  O
  O8       1.0000 0.34660  0.22156  0.73167  Biso   1.000  O
  O9       1.0000 0.44545  0.98064  0.55666  Biso   1.000  O
  O10      1.0000 0.61270  0.33215  0.85580  Biso   1.000  O
  O11      1.0000 0.61909  0.41885  0.77868  Biso   1.000  O
  O12      1.0000 0.59123  0.08352  0.58997  Biso   1.000  O
  O13      1.0000 0.61874  0.16794  0.51092  Biso   1.000  O
  O14      1.0000 0.74071  0.50745  0.02071  Biso   1.000  O
  O15      1.0000 0.77149  0.42591  0.93885  Biso   1.000  O
  O16      1.0000 0.64840  0.65199  0.64360  Biso   1.000  O
  O17      1.0000 0.65340  0.72156  0.76833  Biso   1.000  O
  O18      1.0000 0.55455  0.48064  0.94334  Biso   1.000  O
  O19      1.0000 0.61270  0.16785  0.35580  Biso   1.000  O
  O20      1.0000 0.61909  0.08115  0.27868  Biso   1.000  O
  O21      1.0000 0.59123  0.41648  0.08997  Biso   1.000  O
  O22      1.0000 0.61874  0.33206  0.01092  Biso   1.000  O
  O23      1.0000 0.74071  0.99255  0.52071  Biso   1.000  O
  O24      1.0000 0.77149  0.07409  0.43885  Biso   1.000  O
  O25      1.0000 0.64840  0.84801  0.14360  Biso   1.000  O
  O26      1.0000 0.65340  0.77844  0.26833  Biso   1.000  O
  O27      1.0000 0.55455  0.01936  0.44334  Biso   1.000  O
  O28      1.0000 0.38730  0.66785  0.14420  Biso   1.000  O
  O29      1.0000 0.38091  0.58115  0.22132  Biso   1.000  O
  O30      1.0000 0.40877  0.91648  0.41003  Biso   1.000  O
  O31      1.0000 0.38126  0.83206  0.48908  Biso   1.000  O
  O32      1.0000 0.25929  0.49255  0.97929  Biso   1.000  O
  O33      1.0000 0.22851  0.57409  0.06115  Biso   1.000  O
  O34      1.0000 0.35160  0.34801  0.35640  Biso   1.000  O
  O35      1.0000 0.34660  0.27844  0.23167  Biso   1.000  O
  O36      1.0000 0.44545  0.51936  0.05666  Biso   1.000  O
  Zn5      1.0000 0.13516  0.10312  0.06850  Biso   1.000  Zn
  Zn6      1.0000 0.86485  0.60312  0.43150  Biso   1.000  Zn
  Zn7      1.0000 0.86485  0.89688  0.93150  Biso   1.000  Zn
  Zn8      1.0000 0.13516  0.39688  0.56850  Biso   1.000  Zn
  Co5      1.0000 0.09645  0.51689  0.45656  Biso   1.000  Co
  Co6      1.0000 0.90355  0.01689  0.04344  Biso   1.000  Co
  Co7      1.0000 0.90355  0.48311  0.54344  Biso   1.000  Co
  Co8      1.0000 0.09645  0.98311  0.95656  Biso   1.000  Co
  H53      1.0000 0.08690  0.28180  0.20140  Biso   1.000  H
  H54      1.0000 0.07980  0.36500  0.28950  Biso   1.000  H
  H55      1.0000 0.12230  0.21410  0.43290  Biso   1.000  H
  H56      1.0000 0.12510  0.13080  0.34420  Biso   1.000  H
  H57      1.0000 0.38790  0.93330  0.94180  Biso   1.000  H
  H58      1.0000 0.45110  0.08920  0.07380  Biso   1.000  H
  H59      1.0000 0.11650  0.63340  0.57910  Biso   1.000  H
  H60      1.0000 0.14300  0.75240  0.59020  Biso   1.000  H
  H61      1.0000 0.15130  0.82200  0.49090  Biso   1.000  H
  H62      1.0000 0.15330  0.65010  0.18260  Biso   1.000  H
  H63      1.0000 0.14520  0.52920  0.18860  Biso   1.000  H
  H64      1.0000 0.12390  0.47590  0.29660  Biso   1.000  H
  H65      1.0000 0.06380  0.99760  0.08560  Biso   1.000  H
  H66      1.0000 0.91310  0.78180  0.29860  Biso   1.000  H
  H67      1.0000 0.92020  0.86500  0.21050  Biso   1.000  H
  H68      1.0000 0.87770  0.71410  0.06710  Biso   1.000  H
  H69      1.0000 0.87490  0.63080  0.15580  Biso   1.000  H
  H70      1.0000 0.61210  0.43330  0.55820  Biso   1.000  H
  H71      1.0000 0.54890  0.58920  0.42620  Biso   1.000  H
  H72      1.0000 0.88350  0.13340  0.92090  Biso   1.000  H
  H73      1.0000 0.85700  0.25240  0.90980  Biso   1.000  H
  H74      1.0000 0.84870  0.32200  0.00910  Biso   1.000  H
  H75      1.0000 0.84670  0.15010  0.31740  Biso   1.000  H
  H76      1.0000 0.85480  0.02920  0.31140  Biso   1.000  H
  H77      1.0000 0.87610  0.97590  0.20340  Biso   1.000  H
  H78      1.0000 0.93620  0.49760  0.41440  Biso   1.000  H
  H79      1.0000 0.91310  0.71820  0.79860  Biso   1.000  H
  H80      1.0000 0.92020  0.63500  0.71050  Biso   1.000  H
  H81      1.0000 0.87770  0.78590  0.56710  Biso   1.000  H
  H82      1.0000 0.87490  0.86920  0.65580  Biso   1.000  H
  H83      1.0000 0.61210  0.06670  0.05820  Biso   1.000  H
  H84      1.0000 0.54890  0.91080  0.92620  Biso   1.000  H
  H85      1.0000 0.88350  0.36660  0.42090  Biso   1.000  H
  H86      1.0000 0.85700  0.24760  0.40980  Biso   1.000  H
  H87      1.0000 0.84870  0.17800  0.50910  Biso   1.000  H
  H88      1.0000 0.84670  0.34990  0.81740  Biso   1.000  H
  H89      1.0000 0.85480  0.47080  0.81140  Biso   1.000  H
  H90      1.0000 0.87610  0.52410  0.70340  Biso   1.000  H
  H91      1.0000 0.93620  0.00240  0.91440  Biso   1.000  H
  H92      1.0000 0.08690  0.21820  0.70140  Biso   1.000  H
  H93      1.0000 0.07980  0.13500  0.78950  Biso   1.000  H
  H94      1.0000 0.12230  0.28590  0.93290  Biso   1.000  H
  H95      1.0000 0.12510  0.36920  0.84420  Biso   1.000  H
  H96      1.0000 0.38790  0.56670  0.44180  Biso   1.000  H
  H97      1.0000 0.45110  0.41080  0.57380  Biso   1.000  H
  H98      1.0000 0.11650  0.86660  0.07910  Biso   1.000  H
  H99      1.0000 0.14300  0.74760  0.09020  Biso   1.000  H
  H100     1.0000 0.15130  0.67800  0.99090  Biso   1.000  H
  H101     1.0000 0.15330  0.84990  0.68260  Biso   1.000  H
  H102     1.0000 0.14520  0.97080  0.68860  Biso   1.000  H
  H103     1.0000 0.12390  0.02410  0.79660  Biso   1.000  H
  H104     1.0000 0.06380  0.50240  0.58560  Biso   1.000  H
  C97      1.0000 0.11347  0.14363  0.20651  Biso   1.000  C
  C98      1.0000 0.10763  0.19826  0.26367  Biso   1.000  C
  C99      1.0000 0.09390  0.26790  0.24803  Biso   1.000  C
  C100     1.0000 0.09050  0.31787  0.30080  Biso   1.000  C
  C101     1.0000 0.10284  0.29857  0.37028  Biso   1.000  C
  C102     1.0000 0.11530  0.22814  0.38625  Biso   1.000  C
  C103     1.0000 0.11720  0.17822  0.33307  Biso   1.000  C
  C104     1.0000 0.10439  0.35381  0.42726  Biso   1.000  C
  C105     1.0000 0.29653  0.02763  0.01675  Biso   1.000  C
  C106     1.0000 0.40202  0.01370  0.00909  Biso   1.000  C
  C107     1.0000 0.43310  0.96066  0.96555  Biso   1.000  C
  C108     1.0000 0.47032  0.05301  0.04376  Biso   1.000  C
  C109     1.0000 0.12190  0.66075  0.53870  Biso   1.000  C
  C110     1.0000 0.13690  0.73233  0.54580  Biso   1.000  C
  C111     1.0000 0.14280  0.77345  0.48690  Biso   1.000  C
  C112     1.0000 0.13600  0.74242  0.42127  Biso   1.000  C
  C113     1.0000 0.14360  0.78393  0.35600  Biso   1.000  C
  C114     1.0000 0.14540  0.74498  0.28530  Biso   1.000  C
  C115     1.0000 0.13785  0.66708  0.28681  Biso   1.000  C
  C116     1.0000 0.14510  0.62770  0.22574  Biso   1.000  C
  C117     1.0000 0.14020  0.55650  0.22913  Biso   1.000  C
  C118     1.0000 0.12750  0.52486  0.29445  Biso   1.000  C
  C119     1.0000 0.12595  0.63175  0.35036  Biso   1.000  C
  C120     1.0000 0.12380  0.66904  0.41823  Biso   1.000  C
  C121     1.0000 0.88653  0.64363  0.29349  Biso   1.000  C
  C122     1.0000 0.89237  0.69826  0.23633  Biso   1.000  C
  C123     1.0000 0.90610  0.76790  0.25197  Biso   1.000  C
  C124     1.0000 0.90950  0.81787  0.19920  Biso   1.000  C
  C125     1.0000 0.89716  0.79857  0.12972  Biso   1.000  C
  C126     1.0000 0.88470  0.72814  0.11375  Biso   1.000  C
  C127     1.0000 0.88280  0.67822  0.16693  Biso   1.000  C
  C128     1.0000 0.89561  0.85381  0.07274  Biso   1.000  C
  C129     1.0000 0.70347  0.52763  0.48325  Biso   1.000  C
  C130     1.0000 0.59798  0.51370  0.49091  Biso   1.000  C
  C131     1.0000 0.56690  0.46066  0.53445  Biso   1.000  C
  C132     1.0000 0.52968  0.55301  0.45624  Biso   1.000  C
  C133     1.0000 0.87810  0.16075  0.96130  Biso   1.000  C
  C134     1.0000 0.86310  0.23233  0.95420  Biso   1.000  C
  C135     1.0000 0.85720  0.27345  0.01310  Biso   1.000  C
  C136     1.0000 0.86400  0.24242  0.07873  Biso   1.000  C
  C137     1.0000 0.85640  0.28393  0.14400  Biso   1.000  C
  C138     1.0000 0.85460  0.24498  0.21470  Biso   1.000  C
  C139     1.0000 0.86215  0.16708  0.21319  Biso   1.000  C
  C140     1.0000 0.85490  0.12770  0.27426  Biso   1.000  C
  C141     1.0000 0.85980  0.05650  0.27087  Biso   1.000  C
  C142     1.0000 0.87250  0.02486  0.20555  Biso   1.000  C
  C143     1.0000 0.87405  0.13175  0.14964  Biso   1.000  C
  C144     1.0000 0.87620  0.16904  0.08177  Biso   1.000  C
  C145     1.0000 0.88653  0.85637  0.79349  Biso   1.000  C
  C146     1.0000 0.89237  0.80174  0.73633  Biso   1.000  C
  C147     1.0000 0.90610  0.73210  0.75197  Biso   1.000  C
  C148     1.0000 0.90950  0.68213  0.69920  Biso   1.000  C
  C149     1.0000 0.89716  0.70143  0.62972  Biso   1.000  C
  C150     1.0000 0.88470  0.77186  0.61375  Biso   1.000  C
  C151     1.0000 0.88280  0.82178  0.66693  Biso   1.000  C
  C152     1.0000 0.89561  0.64619  0.57274  Biso   1.000  C
  C153     1.0000 0.70347  0.97237  0.98325  Biso   1.000  C
  C154     1.0000 0.59798  0.98630  0.99091  Biso   1.000  C
  C155     1.0000 0.56690  0.03934  0.03445  Biso   1.000  C
  C156     1.0000 0.52968  0.94699  0.95624  Biso   1.000  C
  C157     1.0000 0.87810  0.33925  0.46130  Biso   1.000  C
  C158     1.0000 0.86310  0.26767  0.45420  Biso   1.000  C
  C159     1.0000 0.85720  0.22655  0.51310  Biso   1.000  C
  C160     1.0000 0.86400  0.25758  0.57873  Biso   1.000  C
  C161     1.0000 0.85640  0.21607  0.64400  Biso   1.000  C
  C162     1.0000 0.85460  0.25502  0.71470  Biso   1.000  C
  C163     1.0000 0.86215  0.33292  0.71319  Biso   1.000  C
  C164     1.0000 0.85490  0.37230  0.77426  Biso   1.000  C
  C165     1.0000 0.85980  0.44350  0.77087  Biso   1.000  C
  C166     1.0000 0.87250  0.47514  0.70555  Biso   1.000  C
  C167     1.0000 0.87405  0.36825  0.64964  Biso   1.000  C
  C168     1.0000 0.87620  0.33096  0.58177  Biso   1.000  C
  C169     1.0000 0.11347  0.35637  0.70651  Biso   1.000  C
  C170     1.0000 0.10763  0.30174  0.76367  Biso   1.000  C
  C171     1.0000 0.09390  0.23210  0.74803  Biso   1.000  C
  C172     1.0000 0.09050  0.18213  0.80080  Biso   1.000  C
  C173     1.0000 0.10284  0.20143  0.87028  Biso   1.000  C
  C174     1.0000 0.11530  0.27186  0.88625  Biso   1.000  C
  C175     1.0000 0.11720  0.32178  0.83307  Biso   1.000  C
  C176     1.0000 0.10439  0.14619  0.92726  Biso   1.000  C
  C177     1.0000 0.29653  0.47237  0.51675  Biso   1.000  C
  C178     1.0000 0.40202  0.48630  0.50909  Biso   1.000  C
  C179     1.0000 0.43310  0.53934  0.46555  Biso   1.000  C
  C180     1.0000 0.47032  0.44699  0.54376  Biso   1.000  C
  C181     1.0000 0.12190  0.83925  0.03870  Biso   1.000  C
  C182     1.0000 0.13690  0.76767  0.04580  Biso   1.000  C
  C183     1.0000 0.14280  0.72655  0.98690  Biso   1.000  C
  C184     1.0000 0.13600  0.75758  0.92127  Biso   1.000  C
  C185     1.0000 0.14360  0.71607  0.85600  Biso   1.000  C
  C186     1.0000 0.14540  0.75502  0.78530  Biso   1.000  C
  C187     1.0000 0.13785  0.83292  0.78681  Biso   1.000  C
  C188     1.0000 0.14510  0.87230  0.72574  Biso   1.000  C
  C189     1.0000 0.14020  0.94350  0.72913  Biso   1.000  C
  C190     1.0000 0.12750  0.97514  0.79445  Biso   1.000  C
  C191     1.0000 0.12595  0.86825  0.85036  Biso   1.000  C
  C192     1.0000 0.12380  0.83096  0.91823  Biso   1.000  C
  N9       1.0000 0.11461  0.62903  0.47605  Biso   1.000  N
  N10      1.0000 0.12022  0.56118  0.35398  Biso   1.000  N
  N11      1.0000 0.88539  0.12903  0.02395  Biso   1.000  N
  N12      1.0000 0.87978  0.06118  0.14602  Biso   1.000  N
  N13      1.0000 0.88539  0.37097  0.52395  Biso   1.000  N
  N14      1.0000 0.87978  0.43882  0.64602  Biso   1.000  N
  N15      1.0000 0.11461  0.87097  0.97605  Biso   1.000  N
  N16      1.0000 0.12022  0.93882  0.85398  Biso   1.000  N
  O37      1.0000 0.11270  0.16785  0.14420  Biso   1.000  O
  O38      1.0000 0.11909  0.08115  0.22132  Biso   1.000  O
  O39      1.0000 0.09123  0.41648  0.41003  Biso   1.000  O
  O40      1.0000 0.11874  0.33206  0.48908  Biso   1.000  O
  O41      1.0000 0.24071  0.99255  0.97929  Biso   1.000  O
  O42      1.0000 0.27149  0.07409  0.06115  Biso   1.000  O
  O43      1.0000 0.14840  0.84801  0.35640  Biso   1.000  O
  O44      1.0000 0.15340  0.77844  0.23167  Biso   1.000  O
  O45      1.0000 0.05455  0.01936  0.05666  Biso   1.000  O
  O46      1.0000 0.88730  0.66785  0.35580  Biso   1.000  O
  O47      1.0000 0.88091  0.58115  0.27868  Biso   1.000  O
  O48      1.0000 0.90877  0.91648  0.08997  Biso   1.000  O
  O49      1.0000 0.88126  0.83206  0.01092  Biso   1.000  O
  O50      1.0000 0.75929  0.49255  0.52071  Biso   1.000  O
  O51      1.0000 0.72851  0.57409  0.43885  Biso   1.000  O
  O52      1.0000 0.85160  0.34801  0.14360  Biso   1.000  O
  O53      1.0000 0.84660  0.27844  0.26833  Biso   1.000  O
  O54      1.0000 0.94545  0.51936  0.44334  Biso   1.000  O
  O55      1.0000 0.88730  0.83215  0.85580  Biso   1.000  O
  O56      1.0000 0.88091  0.91885  0.77868  Biso   1.000  O
  O57      1.0000 0.90877  0.58352  0.58997  Biso   1.000  O
  O58      1.0000 0.88126  0.66794  0.51092  Biso   1.000  O
  O59      1.0000 0.75929  0.00745  0.02071  Biso   1.000  O
  O60      1.0000 0.72851  0.92591  0.93885  Biso   1.000  O
  O61      1.0000 0.85160  0.15199  0.64360  Biso   1.000  O
  O62      1.0000 0.84660  0.22156  0.76833  Biso   1.000  O
  O63      1.0000 0.94545  0.98064  0.94334  Biso   1.000  O
  O64      1.0000 0.11270  0.33215  0.64420  Biso   1.000  O
  O65      1.0000 0.11909  0.41885  0.72132  Biso   1.000  O
  O66      1.0000 0.09123  0.08352  0.91003  Biso   1.000  O
  O67      1.0000 0.11874  0.16794  0.98908  Biso   1.000  O
  O68      1.0000 0.24071  0.50745  0.47929  Biso   1.000  O
  O69      1.0000 0.27149  0.42591  0.56115  Biso   1.000  O
  O70      1.0000 0.14840  0.65199  0.85640  Biso   1.000  O
  O71      1.0000 0.15340  0.72156  0.73167  Biso   1.000  O
  O72      1.0000 0.05455  0.48064  0.55666  Biso   1.000  O
