data_image0
_cell_length_a       9.226
_cell_length_b       9.5587
_cell_length_c       21.606
_cell_angle_alpha    90
_cell_angle_beta     90
_cell_angle_gamma    116.142

_symmetry_space_group_name_H-M    P 1
_symmetry_int_tables_number       1

loop_
  _symmetry_equiv_pos_as_xyz
  'x, y, z'

loop_
  _atom_site_label
  _atom_site_occupancy
  _atom_site_fract_x
  _atom_site_fract_y
  _atom_site_fract_z
  _atom_site_thermal_displace_type
  _atom_site_B_iso_or_equiv
  _atom_site_type_symbol
  Eu1      1.0000 0.35883  0.12332  0.00859  Biso   1.000  Eu
  Eu2      1.0000 0.64117  0.37668  0.50859  Biso   1.000  Eu
  Eu3      1.0000 0.64117  0.87668  0.99141  Biso   1.000  Eu
  Eu4      1.0000 0.35883  0.62332  0.49141  Biso   1.000  Eu
  Cu1      1.0000 0.69034  0.04122  0.64579  Biso   1.000  Cu
  Cu2      1.0000 0.30966  0.45878  0.14579  Biso   1.000  Cu
  Cu3      1.0000 0.30966  0.95878  0.35421  Biso   1.000  Cu
  Cu4      1.0000 0.69034  0.54122  0.85421  Biso   1.000  Cu
  H1       1.0000 0.42290  0.12240  0.65520  Biso   1.000  H
  H2       1.0000 0.26450  0.14290  0.73150  Biso   1.000  H
  H3       1.0000 0.31560  0.10900  0.83420  Biso   1.000  H
  H4       1.0000 0.65540  0.99540  0.77590  Biso   1.000  H
  H5       1.0000 0.79680  0.30020  0.84050  Biso   1.000  H
  H6       1.0000 0.00240  0.24870  0.87270  Biso   1.000  H
  H7       1.0000 0.20610  0.43930  0.92950  Biso   1.000  H
  H8       1.0000 0.96890  0.70290  0.92940  Biso   1.000  H
  H9       1.0000 0.57710  0.37760  0.15520  Biso   1.000  H
  H10      1.0000 0.73550  0.35710  0.23150  Biso   1.000  H
  H11      1.0000 0.68440  0.39100  0.33420  Biso   1.000  H
  H12      1.0000 0.34460  0.50460  0.27590  Biso   1.000  H
  H13      1.0000 0.20320  0.19980  0.34050  Biso   1.000  H
  H14      1.0000 0.99760  0.25130  0.37270  Biso   1.000  H
  H15      1.0000 0.79390  0.06070  0.42950  Biso   1.000  H
  H16      1.0000 0.03110  0.79710  0.42940  Biso   1.000  H
  H17      1.0000 0.57710  0.87760  0.34480  Biso   1.000  H
  H18      1.0000 0.73550  0.85710  0.26850  Biso   1.000  H
  H19      1.0000 0.68440  0.89100  0.16580  Biso   1.000  H
  H20      1.0000 0.34460  0.00460  0.22410  Biso   1.000  H
  H21      1.0000 0.20320  0.69980  0.15950  Biso   1.000  H
  H22      1.0000 0.99760  0.75130  0.12730  Biso   1.000  H
  H23      1.0000 0.79390  0.56070  0.07050  Biso   1.000  H
  H24      1.0000 0.03110  0.29710  0.07060  Biso   1.000  H
  H25      1.0000 0.42290  0.62240  0.84480  Biso   1.000  H
  H26      1.0000 0.26450  0.64290  0.76850  Biso   1.000  H
  H27      1.0000 0.31560  0.60900  0.66580  Biso   1.000  H
  H28      1.0000 0.65540  0.49540  0.72410  Biso   1.000  H
  H29      1.0000 0.79680  0.80020  0.65950  Biso   1.000  H
  H30      1.0000 0.00240  0.74870  0.62730  Biso   1.000  H
  H31      1.0000 0.20610  0.93930  0.57050  Biso   1.000  H
  H32      1.0000 0.96890  0.20290  0.57060  Biso   1.000  H
  C1       1.0000 0.44050  0.10210  0.69590  Biso   1.000  C
  C2       1.0000 0.34750  0.11660  0.74140  Biso   1.000  C
  C3       1.0000 0.37480  0.09260  0.80260  Biso   1.000  C
  C4       1.0000 0.49000  0.04470  0.81550  Biso   1.000  C
  C5       1.0000 0.57710  0.02910  0.76740  Biso   1.000  C
  C6       1.0000 0.52590  0.01180  0.88010  Biso   1.000  C
  C7       1.0000 0.87710  0.37250  0.86540  Biso   1.000  C
  C8       1.0000 0.99880  0.34150  0.88300  Biso   1.000  C
  C9       1.0000 0.11750  0.45430  0.91710  Biso   1.000  C
  C10      1.0000 0.10890  0.59560  0.93430  Biso   1.000  C
  C11      1.0000 0.97930  0.61450  0.91710  Biso   1.000  C
  C12      1.0000 0.24110  0.72900  0.96960  Biso   1.000  C
  C13      1.0000 0.47770  0.50270  0.03440  Biso   1.000  C
  C14      1.0000 0.99270  0.98870  0.03570  Biso   1.000  C
  C15      1.0000 0.55950  0.39790  0.19590  Biso   1.000  C
  C16      1.0000 0.65250  0.38340  0.24140  Biso   1.000  C
  C17      1.0000 0.62520  0.40740  0.30260  Biso   1.000  C
  C18      1.0000 0.51000  0.45530  0.31550  Biso   1.000  C
  C19      1.0000 0.42290  0.47090  0.26740  Biso   1.000  C
  C20      1.0000 0.47410  0.48820  0.38010  Biso   1.000  C
  C21      1.0000 0.12290  0.12750  0.36540  Biso   1.000  C
  C22      1.0000 0.00120  0.15850  0.38300  Biso   1.000  C
  C23      1.0000 0.88250  0.04570  0.41710  Biso   1.000  C
  C24      1.0000 0.89110  0.90440  0.43430  Biso   1.000  C
  C25      1.0000 0.02070  0.88550  0.41710  Biso   1.000  C
  C26      1.0000 0.75890  0.77100  0.46960  Biso   1.000  C
  C27      1.0000 0.52230  0.99730  0.53440  Biso   1.000  C
  C28      1.0000 0.00730  0.51130  0.53570  Biso   1.000  C
  C29      1.0000 0.55950  0.89790  0.30410  Biso   1.000  C
  C30      1.0000 0.65250  0.88340  0.25860  Biso   1.000  C
  C31      1.0000 0.62520  0.90740  0.19740  Biso   1.000  C
  C32      1.0000 0.51000  0.95530  0.18450  Biso   1.000  C
  C33      1.0000 0.42290  0.97090  0.23260  Biso   1.000  C
  C34      1.0000 0.47410  0.98820  0.11990  Biso   1.000  C
  C35      1.0000 0.12290  0.62750  0.13460  Biso   1.000  C
  C36      1.0000 0.00120  0.65850  0.11700  Biso   1.000  C
  C37      1.0000 0.88250  0.54570  0.08290  Biso   1.000  C
  C38      1.0000 0.89110  0.40440  0.06570  Biso   1.000  C
  C39      1.0000 0.02070  0.38550  0.08290  Biso   1.000  C
  C40      1.0000 0.75890  0.27100  0.03040  Biso   1.000  C
  C41      1.0000 0.52230  0.49730  0.96560  Biso   1.000  C
  C42      1.0000 0.00730  0.01130  0.96430  Biso   1.000  C
  C43      1.0000 0.44050  0.60210  0.80410  Biso   1.000  C
  C44      1.0000 0.34750  0.61660  0.75860  Biso   1.000  C
  C45      1.0000 0.37480  0.59260  0.69740  Biso   1.000  C
  C46      1.0000 0.49000  0.54470  0.68450  Biso   1.000  C
  C47      1.0000 0.57710  0.52910  0.73260  Biso   1.000  C
  C48      1.0000 0.52590  0.51180  0.61990  Biso   1.000  C
  C49      1.0000 0.87710  0.87250  0.63460  Biso   1.000  C
  C50      1.0000 0.99880  0.84150  0.61700  Biso   1.000  C
  C51      1.0000 0.11750  0.95430  0.58290  Biso   1.000  C
  C52      1.0000 0.10890  0.09560  0.56570  Biso   1.000  C
  C53      1.0000 0.97930  0.11450  0.58290  Biso   1.000  C
  C54      1.0000 0.24110  0.22900  0.53040  Biso   1.000  C
  C55      1.0000 0.47770  0.00270  0.46560  Biso   1.000  C
  C56      1.0000 0.99270  0.48870  0.46430  Biso   1.000  C
  N1       1.0000 0.55620  0.05970  0.70800  Biso   1.000  N
  N2       1.0000 0.86420  0.50620  0.88220  Biso   1.000  N
  N3       1.0000 0.44380  0.44030  0.20800  Biso   1.000  N
  N4       1.0000 0.13580  0.99380  0.38220  Biso   1.000  N
  N5       1.0000 0.44380  0.94030  0.29200  Biso   1.000  N
  N6       1.0000 0.13580  0.49380  0.11780  Biso   1.000  N
  N7       1.0000 0.55620  0.55970  0.79200  Biso   1.000  N
  N8       1.0000 0.86420  0.00620  0.61780  Biso   1.000  N
  O1       1.0000 0.46680  0.05070  0.92470  Biso   1.000  O
  O2       1.0000 0.61330  0.94350  0.88600  Biso   1.000  O
  O3       1.0000 0.21240  0.83620  0.99510  Biso   1.000  O
  O4       1.0000 0.36720  0.71820  0.96970  Biso   1.000  O
  O5       1.0000 0.38160  0.37180  0.05790  Biso   1.000  O
  O6       1.0000 0.53890  0.63790  0.06075  Biso   1.000  O
  O7       1.0000 0.11600  0.05170  0.06640  Biso   1.000  O
  O8       1.0000 0.85730  0.90980  0.05640  Biso   1.000  O
  O9       1.0000 0.53320  0.44930  0.42470  Biso   1.000  O
  O10      1.0000 0.38670  0.55650  0.38600  Biso   1.000  O
  O11      1.0000 0.78760  0.66380  0.49510  Biso   1.000  O
  O12      1.0000 0.63280  0.78180  0.46970  Biso   1.000  O
  O13      1.0000 0.61840  0.12820  0.55790  Biso   1.000  O
  O14      1.0000 0.46110  0.86210  0.56075  Biso   1.000  O
  O15      1.0000 0.88400  0.44830  0.56640  Biso   1.000  O
  O16      1.0000 0.14270  0.59020  0.55640  Biso   1.000  O
  O17      1.0000 0.53320  0.94930  0.07530  Biso   1.000  O
  O18      1.0000 0.38670  0.05650  0.11400  Biso   1.000  O
  O19      1.0000 0.78760  0.16380  0.00490  Biso   1.000  O
  O20      1.0000 0.63280  0.28180  0.03030  Biso   1.000  O
  O21      1.0000 0.61840  0.62820  0.94210  Biso   1.000  O
  O22      1.0000 0.46110  0.36210  0.93925  Biso   1.000  O
  O23      1.0000 0.88400  0.94830  0.93360  Biso   1.000  O
  O24      1.0000 0.14270  0.09020  0.94360  Biso   1.000  O
  O25      1.0000 0.46680  0.55070  0.57530  Biso   1.000  O
  O26      1.0000 0.61330  0.44350  0.61400  Biso   1.000  O
  O27      1.0000 0.21240  0.33620  0.50490  Biso   1.000  O
  O28      1.0000 0.36720  0.21820  0.53030  Biso   1.000  O
  O29      1.0000 0.38160  0.87180  0.44210  Biso   1.000  O
  O30      1.0000 0.53890  0.13790  0.43925  Biso   1.000  O
  O31      1.0000 0.11600  0.55170  0.43360  Biso   1.000  O
  O32      1.0000 0.85730  0.40980  0.44360  Biso   1.000  O
