data_image0
_cell_length_a       9.241
_cell_length_b       9.5545
_cell_length_c       21.6026
_cell_angle_alpha    90
_cell_angle_beta     90
_cell_angle_gamma    116.151

_symmetry_space_group_name_H-M    P 1
_symmetry_int_tables_number       1

loop_
  _symmetry_equiv_pos_as_xyz
  'x, y, z'

loop_
  _atom_site_label
  _atom_site_occupancy
  _atom_site_fract_x
  _atom_site_fract_y
  _atom_site_fract_z
  _atom_site_thermal_displace_type
  _atom_site_B_iso_or_equiv
  _atom_site_type_symbol
  Eu1      1.0000 0.12381  0.85880  0.49151  Biso   1.000  Eu
  Eu2      1.0000 0.37619  0.14120  0.99151  Biso   1.000  Eu
  Eu3      1.0000 0.87619  0.14120  0.50849  Biso   1.000  Eu
  Eu4      1.0000 0.62381  0.85880  0.00849  Biso   1.000  Eu
  Cu1      1.0000 0.04049  0.19135  0.85427  Biso   1.000  Cu
  Cu2      1.0000 0.45951  0.80865  0.35427  Biso   1.000  Cu
  Cu3      1.0000 0.95951  0.80865  0.14573  Biso   1.000  Cu
  Cu4      1.0000 0.54049  0.19135  0.64573  Biso   1.000  Cu
  H1       1.0000 0.99640  0.15410  0.72360  Biso   1.000  H
  H2       1.0000 0.10540  0.81540  0.66640  Biso   1.000  H
  H3       1.0000 0.14870  0.77250  0.76870  Biso   1.000  H
  H4       1.0000 0.12240  0.92560  0.84490  Biso   1.000  H
  H5       1.0000 0.79310  0.29760  0.84380  Biso   1.000  H
  H6       1.0000 0.74600  0.50290  0.87470  Biso   1.000  H
  H7       1.0000 0.93940  0.70300  0.93040  Biso   1.000  H
  H8       1.0000 0.20770  0.47160  0.92970  Biso   1.000  H
  H9       1.0000 0.50360  0.84590  0.22360  Biso   1.000  H
  H10      1.0000 0.39460  0.18460  0.16640  Biso   1.000  H
  H11      1.0000 0.35130  0.22750  0.26870  Biso   1.000  H
  H12      1.0000 0.37760  0.07440  0.34490  Biso   1.000  H
  H13      1.0000 0.70690  0.70240  0.34380  Biso   1.000  H
  H14      1.0000 0.75400  0.49710  0.37470  Biso   1.000  H
  H15      1.0000 0.56060  0.29700  0.43040  Biso   1.000  H
  H16      1.0000 0.29230  0.52840  0.42970  Biso   1.000  H
  H17      1.0000 0.00360  0.84590  0.27640  Biso   1.000  H
  H18      1.0000 0.89460  0.18460  0.33360  Biso   1.000  H
  H19      1.0000 0.85130  0.22750  0.23130  Biso   1.000  H
  H20      1.0000 0.87760  0.07440  0.15510  Biso   1.000  H
  H21      1.0000 0.20690  0.70240  0.15620  Biso   1.000  H
  H22      1.0000 0.25400  0.49710  0.12530  Biso   1.000  H
  H23      1.0000 0.06060  0.29700  0.06960  Biso   1.000  H
  H24      1.0000 0.79230  0.52840  0.07030  Biso   1.000  H
  H25      1.0000 0.49640  0.15410  0.77640  Biso   1.000  H
  H26      1.0000 0.60540  0.81540  0.83360  Biso   1.000  H
  H27      1.0000 0.64870  0.77250  0.73130  Biso   1.000  H
  H28      1.0000 0.62240  0.92560  0.65510  Biso   1.000  H
  H29      1.0000 0.29310  0.29760  0.65620  Biso   1.000  H
  H30      1.0000 0.24600  0.50290  0.62530  Biso   1.000  H
  H31      1.0000 0.43940  0.70300  0.56960  Biso   1.000  H
  H32      1.0000 0.70770  0.47160  0.57030  Biso   1.000  H
  C1       1.0000 0.02940  0.07750  0.73270  Biso   1.000  C
  C2       1.0000 0.04640  0.99200  0.68440  Biso   1.000  C
  C3       1.0000 0.09270  0.87550  0.69780  Biso   1.000  C
  C4       1.0000 0.11930  0.85100  0.75850  Biso   1.000  C
  C5       1.0000 0.10230  0.94280  0.80420  Biso   1.000  C
  C6       1.0000 0.01150  0.02620  0.61990  Biso   1.000  C
  C7       1.0000 0.87050  0.37610  0.86760  Biso   1.000  C
  C8       1.0000 0.84200  0.49980  0.88530  Biso   1.000  C
  C9       1.0000 0.95590  0.61740  0.91860  Biso   1.000  C
  C10      1.0000 0.09650  0.60900  0.93490  Biso   1.000  C
  C11      1.0000 0.11520  0.47950  0.91730  Biso   1.000  C
  C12      1.0000 0.22860  0.74130  0.97000  Biso   1.000  C
  C13      1.0000 0.98820  0.49190  0.46480  Biso   1.000  C
  C14      1.0000 0.99700  0.02310  0.96580  Biso   1.000  C
  C15      1.0000 0.47060  0.92250  0.23270  Biso   1.000  C
  C16      1.0000 0.45360  0.00800  0.18440  Biso   1.000  C
  C17      1.0000 0.40730  0.12450  0.19780  Biso   1.000  C
  C18      1.0000 0.38070  0.14900  0.25850  Biso   1.000  C
  C19      1.0000 0.39770  0.05720  0.30420  Biso   1.000  C
  C20      1.0000 0.48850  0.97380  0.11990  Biso   1.000  C
  C21      1.0000 0.62950  0.62390  0.36760  Biso   1.000  C
  C22      1.0000 0.65800  0.50020  0.38530  Biso   1.000  C
  C23      1.0000 0.54410  0.38260  0.41860  Biso   1.000  C
  C24      1.0000 0.40350  0.39100  0.43490  Biso   1.000  C
  C25      1.0000 0.38480  0.52050  0.41730  Biso   1.000  C
  C26      1.0000 0.27140  0.25870  0.47000  Biso   1.000  C
  C27      1.0000 0.51180  0.50810  0.96480  Biso   1.000  C
  C28      1.0000 0.50300  0.97690  0.46580  Biso   1.000  C
  C29      1.0000 0.97060  0.92250  0.26730  Biso   1.000  C
  C30      1.0000 0.95360  0.00800  0.31560  Biso   1.000  C
  C31      1.0000 0.90730  0.12450  0.30220  Biso   1.000  C
  C32      1.0000 0.88070  0.14900  0.24150  Biso   1.000  C
  C33      1.0000 0.89770  0.05720  0.19580  Biso   1.000  C
  C34      1.0000 0.98850  0.97380  0.38010  Biso   1.000  C
  C35      1.0000 0.12950  0.62390  0.13240  Biso   1.000  C
  C36      1.0000 0.15800  0.50020  0.11470  Biso   1.000  C
  C37      1.0000 0.04410  0.38260  0.08140  Biso   1.000  C
  C38      1.0000 0.90350  0.39100  0.06510  Biso   1.000  C
  C39      1.0000 0.88480  0.52050  0.08270  Biso   1.000  C
  C40      1.0000 0.77140  0.25870  0.03000  Biso   1.000  C
  C41      1.0000 0.01180  0.50810  0.53520  Biso   1.000  C
  C42      1.0000 0.00300  0.97690  0.03420  Biso   1.000  C
  C43      1.0000 0.52940  0.07750  0.76730  Biso   1.000  C
  C44      1.0000 0.54640  0.99200  0.81560  Biso   1.000  C
  C45      1.0000 0.59270  0.87550  0.80220  Biso   1.000  C
  C46      1.0000 0.61930  0.85100  0.74150  Biso   1.000  C
  C47      1.0000 0.60230  0.94280  0.69580  Biso   1.000  C
  C48      1.0000 0.51150  0.02620  0.88010  Biso   1.000  C
  C49      1.0000 0.37050  0.37610  0.63240  Biso   1.000  C
  C50      1.0000 0.34200  0.49980  0.61470  Biso   1.000  C
  C51      1.0000 0.45590  0.61740  0.58140  Biso   1.000  C
  C52      1.0000 0.59650  0.60900  0.56510  Biso   1.000  C
  C53      1.0000 0.61520  0.47950  0.58270  Biso   1.000  C
  C54      1.0000 0.72860  0.74130  0.53000  Biso   1.000  C
  C55      1.0000 0.48820  0.49190  0.03520  Biso   1.000  C
  C56      1.0000 0.49700  0.02310  0.53420  Biso   1.000  C
  N1       1.0000 0.05770  0.05680  0.79220  Biso   1.000  N
  N2       1.0000 0.00490  0.36340  0.88290  Biso   1.000  N
  N3       1.0000 0.44230  0.94320  0.29220  Biso   1.000  N
  N4       1.0000 0.49510  0.63660  0.38290  Biso   1.000  N
  N5       1.0000 0.94230  0.94320  0.20780  Biso   1.000  N
  N6       1.0000 0.99510  0.63660  0.11710  Biso   1.000  N
  N7       1.0000 0.55770  0.05680  0.70780  Biso   1.000  N
  N8       1.0000 0.50490  0.36340  0.61710  Biso   1.000  N
  O1       1.0000 0.05150  0.96640  0.57535  Biso   1.000  O
  O2       1.0000 0.94400  0.11330  0.61333  Biso   1.000  O
  O3       1.0000 0.33620  0.71290  0.99450  Biso   1.000  O
  O4       1.0000 0.22090  0.86830  0.97040  Biso   1.000  O
  O5       1.0000 0.05110  0.61620  0.43382  Biso   1.000  O
  O6       1.0000 0.90880  0.35750  0.44344  Biso   1.000  O
  O7       1.0000 0.12860  0.11790  0.94203  Biso   1.000  O
  O8       1.0000 0.86280  0.96190  0.93900  Biso   1.000  O
  O9       1.0000 0.44850  0.03360  0.07535  Biso   1.000  O
  O10      1.0000 0.55600  0.88670  0.11333  Biso   1.000  O
  O11      1.0000 0.16380  0.28710  0.49450  Biso   1.000  O
  O12      1.0000 0.27910  0.13170  0.47040  Biso   1.000  O
  O13      1.0000 0.44890  0.38380  0.93382  Biso   1.000  O
  O14      1.0000 0.59120  0.64250  0.94344  Biso   1.000  O
  O15      1.0000 0.37140  0.88210  0.44203  Biso   1.000  O
  O16      1.0000 0.63720  0.03810  0.43900  Biso   1.000  O
  O17      1.0000 0.94850  0.03360  0.42465  Biso   1.000  O
  O18      1.0000 0.05600  0.88670  0.38667  Biso   1.000  O
  O19      1.0000 0.66380  0.28710  0.00550  Biso   1.000  O
  O20      1.0000 0.77910  0.13170  0.02960  Biso   1.000  O
  O21      1.0000 0.94890  0.38380  0.56618  Biso   1.000  O
  O22      1.0000 0.09120  0.64250  0.55656  Biso   1.000  O
  O23      1.0000 0.87140  0.88210  0.05797  Biso   1.000  O
  O24      1.0000 0.13720  0.03810  0.06100  Biso   1.000  O
  O25      1.0000 0.55150  0.96640  0.92465  Biso   1.000  O
  O26      1.0000 0.44400  0.11330  0.88667  Biso   1.000  O
  O27      1.0000 0.83620  0.71290  0.50550  Biso   1.000  O
  O28      1.0000 0.72090  0.86830  0.52960  Biso   1.000  O
  O29      1.0000 0.55110  0.61620  0.06618  Biso   1.000  O
  O30      1.0000 0.40880  0.35750  0.05656  Biso   1.000  O
  O31      1.0000 0.62860  0.11790  0.55797  Biso   1.000  O
  O32      1.0000 0.36280  0.96190  0.56100  Biso   1.000  O
