data_image0
_cell_length_a       8.5577
_cell_length_b       18.802
_cell_length_c       16.0542
_cell_angle_alpha    99.469
_cell_angle_beta     90
_cell_angle_gamma    90

_symmetry_space_group_name_H-M    P 1
_symmetry_int_tables_number       1

loop_
  _symmetry_equiv_pos_as_xyz
  'x, y, z'

loop_
  _atom_site_label
  _atom_site_occupancy
  _atom_site_fract_x
  _atom_site_fract_y
  _atom_site_fract_z
  _atom_site_thermal_displace_type
  _atom_site_B_iso_or_equiv
  _atom_site_type_symbol
  Cu1      1.0000 0.68478  0.79175  0.73422  Biso   1.000  Cu
  Cu2      1.0000 0.68478  0.20825  0.76578  Biso   1.000  Cu
  Cu3      1.0000 0.31522  0.20825  0.26578  Biso   1.000  Cu
  Cu4      1.0000 0.31522  0.79175  0.23422  Biso   1.000  Cu
  Cu5      1.0000 0.55480  0.50000  0.75000  Biso   1.000  Cu
  Cu6      1.0000 0.44520  0.50000  0.25000  Biso   1.000  Cu
  H1       1.0000 0.99810  0.65390  0.72050  Biso   1.000  H
  H2       1.0000 0.12760  0.59560  0.72510  Biso   1.000  H
  H3       1.0000 0.16950  0.66740  0.69230  Biso   1.000  H
  H4       1.0000 0.47220  0.62380  0.98290  Biso   1.000  H
  H5       1.0000 0.47540  0.70080  0.03800  Biso   1.000  H
  H6       1.0000 0.55490  0.68770  0.94880  Biso   1.000  H
  H7       1.0000 0.95240  0.80660  0.05430  Biso   1.000  H
  H8       1.0000 0.86910  0.81480  0.96940  Biso   1.000  H
  H9       1.0000 0.01040  0.86490  0.00190  Biso   1.000  H
  H10      1.0000 0.79420  0.59860  0.83750  Biso   1.000  H
  H11      1.0000 0.67230  0.40680  0.86130  Biso   1.000  H
  H12      1.0000 0.98250  0.59780  0.93820  Biso   1.000  H
  H13      1.0000 0.85630  0.40190  0.96310  Biso   1.000  H
  H14      1.0000 0.47710  0.80710  0.87880  Biso   1.000  H
  H15      1.0000 0.74060  0.94630  0.79700  Biso   1.000  H
  H16      1.0000 0.39750  0.88940  0.99350  Biso   1.000  H
  H17      1.0000 0.68050  0.03210  0.90700  Biso   1.000  H
  H18      1.0000 0.99810  0.34610  0.77950  Biso   1.000  H
  H19      1.0000 0.12760  0.40440  0.77490  Biso   1.000  H
  H20      1.0000 0.16950  0.33260  0.80770  Biso   1.000  H
  H21      1.0000 0.47220  0.37620  0.51710  Biso   1.000  H
  H22      1.0000 0.47540  0.29920  0.46200  Biso   1.000  H
  H23      1.0000 0.55490  0.31230  0.55120  Biso   1.000  H
  H24      1.0000 0.95240  0.19340  0.44570  Biso   1.000  H
  H25      1.0000 0.86910  0.18520  0.53060  Biso   1.000  H
  H26      1.0000 0.01040  0.13510  0.49810  Biso   1.000  H
  H27      1.0000 0.79420  0.40140  0.66250  Biso   1.000  H
  H28      1.0000 0.67230  0.59320  0.63870  Biso   1.000  H
  H29      1.0000 0.98250  0.40220  0.56180  Biso   1.000  H
  H30      1.0000 0.85630  0.59810  0.53690  Biso   1.000  H
  H31      1.0000 0.47710  0.19290  0.62120  Biso   1.000  H
  H32      1.0000 0.74060  0.05370  0.70300  Biso   1.000  H
  H33      1.0000 0.39750  0.11060  0.50650  Biso   1.000  H
  H34      1.0000 0.68050  0.96790  0.59300  Biso   1.000  H
  H35      1.0000 0.00190  0.34610  0.27950  Biso   1.000  H
  H36      1.0000 0.87240  0.40440  0.27490  Biso   1.000  H
  H37      1.0000 0.83050  0.33260  0.30770  Biso   1.000  H
  H38      1.0000 0.52780  0.37620  0.01710  Biso   1.000  H
  H39      1.0000 0.52460  0.29920  0.96200  Biso   1.000  H
  H40      1.0000 0.44510  0.31230  0.05120  Biso   1.000  H
  H41      1.0000 0.04760  0.19340  0.94570  Biso   1.000  H
  H42      1.0000 0.13090  0.18520  0.03060  Biso   1.000  H
  H43      1.0000 0.98960  0.13510  0.99810  Biso   1.000  H
  H44      1.0000 0.20580  0.40140  0.16250  Biso   1.000  H
  H45      1.0000 0.32770  0.59320  0.13870  Biso   1.000  H
  H46      1.0000 0.01750  0.40220  0.06180  Biso   1.000  H
  H47      1.0000 0.14370  0.59810  0.03690  Biso   1.000  H
  H48      1.0000 0.52290  0.19290  0.12120  Biso   1.000  H
  H49      1.0000 0.25940  0.05370  0.20300  Biso   1.000  H
  H50      1.0000 0.60250  0.11060  0.00650  Biso   1.000  H
  H51      1.0000 0.31950  0.96790  0.09300  Biso   1.000  H
  H52      1.0000 0.00190  0.65390  0.22050  Biso   1.000  H
  H53      1.0000 0.87240  0.59560  0.22510  Biso   1.000  H
  H54      1.0000 0.83050  0.66740  0.19230  Biso   1.000  H
  H55      1.0000 0.52780  0.62380  0.48290  Biso   1.000  H
  H56      1.0000 0.52460  0.70080  0.53800  Biso   1.000  H
  H57      1.0000 0.44510  0.68770  0.44880  Biso   1.000  H
  H58      1.0000 0.04760  0.80660  0.55430  Biso   1.000  H
  H59      1.0000 0.13090  0.81480  0.46940  Biso   1.000  H
  H60      1.0000 0.98960  0.86490  0.50190  Biso   1.000  H
  H61      1.0000 0.20580  0.59860  0.33750  Biso   1.000  H
  H62      1.0000 0.32770  0.40680  0.36130  Biso   1.000  H
  H63      1.0000 0.01750  0.59780  0.43820  Biso   1.000  H
  H64      1.0000 0.14370  0.40190  0.46310  Biso   1.000  H
  H65      1.0000 0.52290  0.80710  0.37880  Biso   1.000  H
  H66      1.0000 0.25940  0.94630  0.29700  Biso   1.000  H
  H67      1.0000 0.60250  0.88940  0.49350  Biso   1.000  H
  H68      1.0000 0.31950  0.03210  0.40700  Biso   1.000  H
  C1       1.0000 0.89200  0.75120  0.82600  Biso   1.000  C
  C2       1.0000 0.10670  0.64640  0.73150  Biso   1.000  C
  C3       1.0000 0.38820  0.60830  0.81130  Biso   1.000  C
  C4       1.0000 0.46870  0.67470  0.98150  Biso   1.000  C
  C5       1.0000 0.24740  0.77520  0.07790  Biso   1.000  C
  C6       1.0000 0.96760  0.81730  0.99840  Biso   1.000  C
  C7       1.0000 0.04860  0.73250  0.86730  Biso   1.000  C
  C8       1.0000 0.14730  0.68310  0.82440  Biso   1.000  C
  C9       1.0000 0.28160  0.66370  0.86140  Biso   1.000  C
  C10      1.0000 0.31660  0.69300  0.94170  Biso   1.000  C
  C11      1.0000 0.21300  0.74340  0.98720  Biso   1.000  C
  C12      1.0000 0.08000  0.76260  0.95020  Biso   1.000  C
  C13      1.0000 0.80520  0.55790  0.86300  Biso   1.000  C
  C14      1.0000 0.73560  0.44690  0.87750  Biso   1.000  C
  C15      1.0000 0.91870  0.55750  0.92460  Biso   1.000  C
  C16      1.0000 0.84680  0.44380  0.93960  Biso   1.000  C
  C17      1.0000 0.94130  0.50020  0.96650  Biso   1.000  C
  C18      1.0000 0.51500  0.85390  0.88420  Biso   1.000  C
  C19      1.0000 0.66980  0.93490  0.83680  Biso   1.000  C
  C20      1.0000 0.46590  0.90340  0.95420  Biso   1.000  C
  C21      1.0000 0.63280  0.98720  0.90220  Biso   1.000  C
  C22      1.0000 0.52130  0.97390  0.96370  Biso   1.000  C
  C23      1.0000 0.89200  0.24880  0.67400  Biso   1.000  C
  C24      1.0000 0.10670  0.35360  0.76850  Biso   1.000  C
  C25      1.0000 0.38820  0.39170  0.68870  Biso   1.000  C
  C26      1.0000 0.46870  0.32530  0.51850  Biso   1.000  C
  C27      1.0000 0.24740  0.22480  0.42210  Biso   1.000  C
  C28      1.0000 0.96760  0.18270  0.50160  Biso   1.000  C
  C29      1.0000 0.04860  0.26750  0.63270  Biso   1.000  C
  C30      1.0000 0.14730  0.31690  0.67560  Biso   1.000  C
  C31      1.0000 0.28160  0.33630  0.63860  Biso   1.000  C
  C32      1.0000 0.31660  0.30700  0.55830  Biso   1.000  C
  C33      1.0000 0.21300  0.25660  0.51280  Biso   1.000  C
  C34      1.0000 0.08000  0.23740  0.54980  Biso   1.000  C
  C35      1.0000 0.80520  0.44210  0.63700  Biso   1.000  C
  C36      1.0000 0.73560  0.55310  0.62250  Biso   1.000  C
  C37      1.0000 0.91870  0.44250  0.57540  Biso   1.000  C
  C38      1.0000 0.84680  0.55620  0.56040  Biso   1.000  C
  C39      1.0000 0.94130  0.49980  0.53350  Biso   1.000  C
  C40      1.0000 0.51500  0.14610  0.61580  Biso   1.000  C
  C41      1.0000 0.66980  0.06510  0.66320  Biso   1.000  C
  C42      1.0000 0.46590  0.09660  0.54580  Biso   1.000  C
  C43      1.0000 0.63280  0.01280  0.59780  Biso   1.000  C
  C44      1.0000 0.52130  0.02610  0.53630  Biso   1.000  C
  C45      1.0000 0.10800  0.24880  0.17400  Biso   1.000  C
  C46      1.0000 0.89330  0.35360  0.26850  Biso   1.000  C
  C47      1.0000 0.61180  0.39170  0.18870  Biso   1.000  C
  C48      1.0000 0.53130  0.32530  0.01850  Biso   1.000  C
  C49      1.0000 0.75260  0.22480  0.92210  Biso   1.000  C
  C50      1.0000 0.03240  0.18270  0.00160  Biso   1.000  C
  C51      1.0000 0.95140  0.26750  0.13270  Biso   1.000  C
  C52      1.0000 0.85270  0.31690  0.17560  Biso   1.000  C
  C53      1.0000 0.71840  0.33630  0.13860  Biso   1.000  C
  C54      1.0000 0.68340  0.30700  0.05830  Biso   1.000  C
  C55      1.0000 0.78700  0.25660  0.01280  Biso   1.000  C
  C56      1.0000 0.92000  0.23740  0.04980  Biso   1.000  C
  C57      1.0000 0.19480  0.44210  0.13700  Biso   1.000  C
  C58      1.0000 0.26440  0.55310  0.12250  Biso   1.000  C
  C59      1.0000 0.08130  0.44250  0.07540  Biso   1.000  C
  C60      1.0000 0.15320  0.55620  0.06040  Biso   1.000  C
  C61      1.0000 0.05870  0.49980  0.03350  Biso   1.000  C
  C62      1.0000 0.48500  0.14610  0.11580  Biso   1.000  C
  C63      1.0000 0.33020  0.06510  0.16320  Biso   1.000  C
  C64      1.0000 0.53410  0.09660  0.04580  Biso   1.000  C
  C65      1.0000 0.36720  0.01280  0.09780  Biso   1.000  C
  C66      1.0000 0.47870  0.02610  0.03630  Biso   1.000  C
  C67      1.0000 0.10800  0.75120  0.32600  Biso   1.000  C
  C68      1.0000 0.89330  0.64640  0.23150  Biso   1.000  C
  C69      1.0000 0.61180  0.60830  0.31130  Biso   1.000  C
  C70      1.0000 0.53130  0.67470  0.48150  Biso   1.000  C
  C71      1.0000 0.75260  0.77520  0.57790  Biso   1.000  C
  C72      1.0000 0.03240  0.81730  0.49840  Biso   1.000  C
  C73      1.0000 0.95140  0.73250  0.36730  Biso   1.000  C
  C74      1.0000 0.85270  0.68310  0.32440  Biso   1.000  C
  C75      1.0000 0.71840  0.66370  0.36140  Biso   1.000  C
  C76      1.0000 0.68340  0.69300  0.44170  Biso   1.000  C
  C77      1.0000 0.78700  0.74340  0.48720  Biso   1.000  C
  C78      1.0000 0.92000  0.76260  0.45020  Biso   1.000  C
  C79      1.0000 0.19480  0.55790  0.36300  Biso   1.000  C
  C80      1.0000 0.26440  0.44690  0.37750  Biso   1.000  C
  C81      1.0000 0.08130  0.55750  0.42460  Biso   1.000  C
  C82      1.0000 0.15320  0.44380  0.43960  Biso   1.000  C
  C83      1.0000 0.05870  0.50020  0.46650  Biso   1.000  C
  C84      1.0000 0.48500  0.85390  0.38420  Biso   1.000  C
  C85      1.0000 0.33020  0.93490  0.33680  Biso   1.000  C
  C86      1.0000 0.53410  0.90340  0.45420  Biso   1.000  C
  C87      1.0000 0.36720  0.98720  0.40220  Biso   1.000  C
  C88      1.0000 0.47870  0.97390  0.46370  Biso   1.000  C
  N1       1.0000 0.71470  0.50370  0.84020  Biso   1.000  N
  N2       1.0000 0.61220  0.86870  0.82530  Biso   1.000  N
  N3       1.0000 0.71470  0.49630  0.65980  Biso   1.000  N
  N4       1.0000 0.61220  0.13130  0.67470  Biso   1.000  N
  N5       1.0000 0.28530  0.49630  0.15980  Biso   1.000  N
  N6       1.0000 0.38780  0.13130  0.17470  Biso   1.000  N
  N7       1.0000 0.28530  0.50370  0.34020  Biso   1.000  N
  N8       1.0000 0.38780  0.86870  0.32530  Biso   1.000  N
  O1       1.0000 0.77170  0.72020  0.83550  Biso   1.000  O
  O2       1.0000 0.90570  0.80260  0.78030  Biso   1.000  O
  O3       1.0000 0.47190  0.62550  0.75310  Biso   1.000  O
  O4       1.0000 0.39570  0.54560  0.83210  Biso   1.000  O
  O5       1.0000 0.24280  0.73160  0.13110  Biso   1.000  O
  O6       1.0000 0.28170  0.83970  0.10060  Biso   1.000  O
  O7       1.0000 0.46760  0.75440  0.71060  Biso   1.000  O
  O8       1.0000 0.77170  0.27980  0.66450  Biso   1.000  O
  O9       1.0000 0.90570  0.19740  0.71970  Biso   1.000  O
  O10      1.0000 0.47190  0.37450  0.74690  Biso   1.000  O
  O11      1.0000 0.39570  0.45440  0.66790  Biso   1.000  O
  O12      1.0000 0.24280  0.26840  0.36890  Biso   1.000  O
  O13      1.0000 0.28170  0.16030  0.39940  Biso   1.000  O
  O14      1.0000 0.46760  0.24560  0.78940  Biso   1.000  O
  O15      1.0000 0.22830  0.27980  0.16450  Biso   1.000  O
  O16      1.0000 0.09430  0.19740  0.21970  Biso   1.000  O
  O17      1.0000 0.52810  0.37450  0.24690  Biso   1.000  O
  O18      1.0000 0.60430  0.45440  0.16790  Biso   1.000  O
  O19      1.0000 0.75720  0.26840  0.86890  Biso   1.000  O
  O20      1.0000 0.71830  0.16030  0.89940  Biso   1.000  O
  O21      1.0000 0.53240  0.24560  0.28940  Biso   1.000  O
  O22      1.0000 0.22830  0.72020  0.33550  Biso   1.000  O
  O23      1.0000 0.09430  0.80260  0.28030  Biso   1.000  O
  O24      1.0000 0.52810  0.62550  0.25310  Biso   1.000  O
  O25      1.0000 0.60430  0.54560  0.33210  Biso   1.000  O
  O26      1.0000 0.75720  0.73160  0.63110  Biso   1.000  O
  O27      1.0000 0.71830  0.83970  0.60060  Biso   1.000  O
  O28      1.0000 0.53240  0.75440  0.21060  Biso   1.000  O
