data_image0
_cell_length_a       6.66759
_cell_length_b       17.1107
_cell_length_c       17.8062
_cell_angle_alpha    74.836
_cell_angle_beta     79.209
_cell_angle_gamma    78.7648

_symmetry_space_group_name_H-M    P 1
_symmetry_int_tables_number       1

loop_
  _symmetry_equiv_pos_as_xyz
  'x, y, z'

loop_
  _atom_site_label
  _atom_site_occupancy
  _atom_site_fract_x
  _atom_site_fract_y
  _atom_site_fract_z
  _atom_site_thermal_displace_type
  _atom_site_B_iso_or_equiv
  _atom_site_type_symbol
  Cu1      1.0000 0.55700  0.85217  0.35313  Biso   1.000  Cu
  Cu2      1.0000 0.51433  0.81693  0.18043  Biso   1.000  Cu
  Cu3      1.0000 0.76230  0.64783  0.14687  Biso   1.000  Cu
  Cu4      1.0000 0.51169  0.68307  0.31957  Biso   1.000  Cu
  Cu5      1.0000 0.44300  0.14783  0.64687  Biso   1.000  Cu
  Cu6      1.0000 0.48567  0.18307  0.81957  Biso   1.000  Cu
  Cu7      1.0000 0.23770  0.35217  0.85313  Biso   1.000  Cu
  Cu8      1.0000 0.48831  0.31693  0.68043  Biso   1.000  Cu
  H1       1.0000 0.48210  0.06400  0.05780  Biso   1.000  H
  H2       1.0000 0.35470  0.29290  0.09050  Biso   1.000  H
  H3       1.0000 0.43290  0.10400  0.27400  Biso   1.000  H
  H4       1.0000 0.89580  0.95090  0.31350  Biso   1.000  H
  H5       1.0000 0.07660  0.01400  0.36880  Biso   1.000  H
  H6       1.0000 0.76750  0.92450  0.57830  Biso   1.000  H
  H7       1.0000 0.58640  0.86710  0.51770  Biso   1.000  H
  H8       1.0000 0.60390  0.43600  0.44220  Biso   1.000  H
  H9       1.0000 0.73810  0.20710  0.40950  Biso   1.000  H
  H10      1.0000 0.81090  0.39600  0.22600  Biso   1.000  H
  H11      1.0000 0.16020  0.54910  0.18650  Biso   1.000  H
  H12      1.0000 0.45940  0.48600  0.13120  Biso   1.000  H
  H13      1.0000 0.27030  0.57550  0.92170  Biso   1.000  H
  H14      1.0000 0.97120  0.63290  0.98230  Biso   1.000  H
  H15      1.0000 0.51790  0.93600  0.94220  Biso   1.000  H
  H16      1.0000 0.64530  0.70710  0.90950  Biso   1.000  H
  H17      1.0000 0.56710  0.89600  0.72600  Biso   1.000  H
  H18      1.0000 0.10420  0.04910  0.68650  Biso   1.000  H
  H19      1.0000 0.92340  0.98600  0.63120  Biso   1.000  H
  H20      1.0000 0.23250  0.07550  0.42170  Biso   1.000  H
  H21      1.0000 0.41360  0.13290  0.48230  Biso   1.000  H
  H22      1.0000 0.39610  0.56400  0.55780  Biso   1.000  H
  H23      1.0000 0.26190  0.79290  0.59050  Biso   1.000  H
  H24      1.0000 0.18910  0.60400  0.77400  Biso   1.000  H
  H25      1.0000 0.83980  0.45090  0.81350  Biso   1.000  H
  H26      1.0000 0.54060  0.51400  0.86880  Biso   1.000  H
  H27      1.0000 0.72970  0.42450  0.07830  Biso   1.000  H
  H28      1.0000 0.02880  0.36710  0.01770  Biso   1.000  H
  C1       1.0000 0.46500  0.06960  0.17180  Biso   1.000  C
  C2       1.0000 0.45760  0.09980  0.09100  Biso   1.000  C
  C3       1.0000 0.41320  0.18370  0.06110  Biso   1.000  C
  C4       1.0000 0.38030  0.23680  0.11100  Biso   1.000  C
  C5       1.0000 0.38510  0.20710  0.18990  Biso   1.000  C
  C6       1.0000 0.42820  0.12400  0.22040  Biso   1.000  C
  C7       1.0000 0.50870  0.97840  0.20420  Biso   1.000  C
  C8       1.0000 0.40210  0.21560  0.97540  Biso   1.000  C
  C9       1.0000 0.33540  0.26780  0.24180  Biso   1.000  C
  C10      1.0000 0.86770  0.94590  0.36750  Biso   1.000  C
  C11      1.0000 0.97700  0.98400  0.40060  Biso   1.000  C
  C12      1.0000 0.94280  0.97920  0.48100  Biso   1.000  C
  C13      1.0000 0.79460  0.93190  0.52390  Biso   1.000  C
  C14      1.0000 0.68820  0.89650  0.48690  Biso   1.000  C
  C15      1.0000 0.70640  0.43040  0.32820  Biso   1.000  C
  C16      1.0000 0.64840  0.40020  0.40900  Biso   1.000  C
  C17      1.0000 0.65800  0.31630  0.43890  Biso   1.000  C
  C18      1.0000 0.72810  0.26320  0.38900  Biso   1.000  C
  C19      1.0000 0.78210  0.29290  0.31010  Biso   1.000  C
  C20      1.0000 0.77260  0.37600  0.27960  Biso   1.000  C
  C21      1.0000 0.69130  0.52160  0.29580  Biso   1.000  C
  C22      1.0000 0.59310  0.28440  0.52460  Biso   1.000  C
  C23      1.0000 0.84500  0.23220  0.25820  Biso   1.000  C
  C24      1.0000 0.18110  0.55410  0.13250  Biso   1.000  C
  C25      1.0000 0.36160  0.51600  0.09940  Biso   1.000  C
  C26      1.0000 0.40300  0.52080  0.01900  Biso   1.000  C
  C27      1.0000 0.25040  0.56810  0.97610  Biso   1.000  C
  C28      1.0000 0.07160  0.60350  0.01310  Biso   1.000  C
  C29      1.0000 0.53500  0.93040  0.82820  Biso   1.000  C
  C30      1.0000 0.54240  0.90020  0.90900  Biso   1.000  C
  C31      1.0000 0.58680  0.81630  0.93890  Biso   1.000  C
  C32      1.0000 0.61970  0.76320  0.88900  Biso   1.000  C
  C33      1.0000 0.61490  0.79290  0.81010  Biso   1.000  C
  C34      1.0000 0.57180  0.87600  0.77960  Biso   1.000  C
  C35      1.0000 0.49130  0.02160  0.79580  Biso   1.000  C
  C36      1.0000 0.59790  0.78440  0.02460  Biso   1.000  C
  C37      1.0000 0.66460  0.73220  0.75820  Biso   1.000  C
  C38      1.0000 0.13230  0.05410  0.63250  Biso   1.000  C
  C39      1.0000 0.02300  0.01600  0.59940  Biso   1.000  C
  C40      1.0000 0.05720  0.02080  0.51900  Biso   1.000  C
  C41      1.0000 0.20540  0.06810  0.47610  Biso   1.000  C
  C42      1.0000 0.31180  0.10350  0.51310  Biso   1.000  C
  C43      1.0000 0.29360  0.56960  0.67180  Biso   1.000  C
  C44      1.0000 0.35160  0.59980  0.59100  Biso   1.000  C
  C45      1.0000 0.34200  0.68370  0.56110  Biso   1.000  C
  C46      1.0000 0.27190  0.73680  0.61100  Biso   1.000  C
  C47      1.0000 0.21790  0.70710  0.68990  Biso   1.000  C
  C48      1.0000 0.22740  0.62400  0.72040  Biso   1.000  C
  C49      1.0000 0.30870  0.47840  0.70420  Biso   1.000  C
  C50      1.0000 0.40690  0.71560  0.47540  Biso   1.000  C
  C51      1.0000 0.15500  0.76780  0.74180  Biso   1.000  C
  C52      1.0000 0.81890  0.44590  0.86750  Biso   1.000  C
  C53      1.0000 0.63840  0.48400  0.90060  Biso   1.000  C
  C54      1.0000 0.59700  0.47920  0.98100  Biso   1.000  C
  C55      1.0000 0.74960  0.43190  0.02390  Biso   1.000  C
  C56      1.0000 0.92840  0.39650  0.98690  Biso   1.000  C
  N1       1.0000 0.71950  0.90100  0.40940  Biso   1.000  N
  N2       1.0000 0.02990  0.59900  0.09060  Biso   1.000  N
  N3       1.0000 0.28050  0.09900  0.59060  Biso   1.000  N
  N4       1.0000 0.97010  0.40100  0.90940  Biso   1.000  N
  O1       1.0000 0.53730  0.95620  0.27560  Biso   1.000  O
  O2       1.0000 0.50782  0.93296  0.16060  Biso   1.000  O
  O3       1.0000 0.46868  0.16664  0.93120  Biso   1.000  O
  O4       1.0000 0.31696  0.28868  0.95420  Biso   1.000  O
  O5       1.0000 0.31510  0.34070  0.21450  Biso   1.000  O
  O6       1.0000 0.31060  0.23290  0.31730  Biso   1.000  O
  O7       1.0000 0.41950  0.80240  0.29460  Biso   1.000  O
  O8       1.0000 0.76910  0.54380  0.22440  Biso   1.000  O
  O9       1.0000 0.60138  0.56704  0.33940  Biso   1.000  O
  O10      1.0000 0.56652  0.33336  0.56880  Biso   1.000  O
  O11      1.0000 0.55984  0.21132  0.54580  Biso   1.000  O
  O12      1.0000 0.87030  0.15930  0.28550  Biso   1.000  O
  O13      1.0000 0.86080  0.26710  0.18270  Biso   1.000  O
  O14      1.0000 0.51650  0.69760  0.20540  Biso   1.000  O
  O15      1.0000 0.46270  0.04380  0.72440  Biso   1.000  O
  O16      1.0000 0.49218  0.06704  0.83940  Biso   1.000  O
  O17      1.0000 0.53132  0.83336  0.06880  Biso   1.000  O
  O18      1.0000 0.68304  0.71132  0.04580  Biso   1.000  O
  O19      1.0000 0.68490  0.65930  0.78550  Biso   1.000  O
  O20      1.0000 0.68940  0.76710  0.68270  Biso   1.000  O
  O21      1.0000 0.58050  0.19760  0.70540  Biso   1.000  O
  O22      1.0000 0.23090  0.45620  0.77560  Biso   1.000  O
  O23      1.0000 0.39862  0.43296  0.66060  Biso   1.000  O
  O24      1.0000 0.43348  0.66664  0.43120  Biso   1.000  O
  O25      1.0000 0.44016  0.78868  0.45420  Biso   1.000  O
  O26      1.0000 0.12970  0.84070  0.71450  Biso   1.000  O
  O27      1.0000 0.13920  0.73290  0.81730  Biso   1.000  O
  O28      1.0000 0.48350  0.30240  0.79460  Biso   1.000  O
