data_image0
_cell_length_a       9.4366
_cell_length_b       9.4366
_cell_length_c       16.424
_cell_angle_alpha    88.5049
_cell_angle_beta     88.5049
_cell_angle_gamma    83.7416

_symmetry_space_group_name_H-M    P 1
_symmetry_int_tables_number       1

loop_
  _symmetry_equiv_pos_as_xyz
  'x, y, z'

loop_
  _atom_site_label
  _atom_site_occupancy
  _atom_site_fract_x
  _atom_site_fract_y
  _atom_site_fract_z
  _atom_site_thermal_displace_type
  _atom_site_B_iso_or_equiv
  _atom_site_type_symbol
  Cu1      1.0000 0.49224  0.13618  0.50256  Biso   1.000  Cu
  Cu2      1.0000 0.86382  0.50776  0.99744  Biso   1.000  Cu
  Cu3      1.0000 0.50776  0.86382  0.49744  Biso   1.000  Cu
  Cu4      1.0000 0.13618  0.49224  0.00256  Biso   1.000  Cu
  Cu5      1.0000 0.00000  0.00000  0.50000  Biso   1.000  Cu
  Cu6      1.0000 0.00000  0.00000  0.00000  Biso   1.000  Cu
  Cu7      1.0000 0.63662  0.36338  0.75000  Biso   1.000  Cu
  Cu8      1.0000 0.36338  0.63662  0.25000  Biso   1.000  Cu
  Cu9      1.0000 0.60220  0.39780  0.25000  Biso   1.000  Cu
  Cu10     1.0000 0.39780  0.60220  0.75000  Biso   1.000  Cu
  H1       1.0000 0.81690  0.98250  0.64890  Biso   1.000  H
  H2       1.0000 0.68460  0.93360  0.75870  Biso   1.000  H
  H3       1.0000 0.77530  0.88430  0.83490  Biso   1.000  H
  H4       1.0000 0.70680  0.77180  0.78440  Biso   1.000  H
  H5       1.0000 0.06680  0.72740  0.71540  Biso   1.000  H
  H6       1.0000 0.95500  0.64480  0.76380  Biso   1.000  H
  H7       1.0000 0.02790  0.76370  0.80640  Biso   1.000  H
  H8       1.0000 0.01750  0.18310  0.85110  Biso   1.000  H
  H9       1.0000 0.06640  0.31540  0.74130  Biso   1.000  H
  H10      1.0000 0.11570  0.22470  0.66510  Biso   1.000  H
  H11      1.0000 0.22820  0.29320  0.71560  Biso   1.000  H
  H12      1.0000 0.27260  0.93320  0.78460  Biso   1.000  H
  H13      1.0000 0.35520  0.04500  0.73620  Biso   1.000  H
  H14      1.0000 0.23630  0.97210  0.69360  Biso   1.000  H
  H15      1.0000 0.18310  0.01750  0.35110  Biso   1.000  H
  H16      1.0000 0.31540  0.06640  0.24130  Biso   1.000  H
  H17      1.0000 0.22470  0.11570  0.16510  Biso   1.000  H
  H18      1.0000 0.29320  0.22820  0.21560  Biso   1.000  H
  H19      1.0000 0.93320  0.27260  0.28460  Biso   1.000  H
  H20      1.0000 0.04500  0.35520  0.23620  Biso   1.000  H
  H21      1.0000 0.97210  0.23630  0.19360  Biso   1.000  H
  H22      1.0000 0.98250  0.81690  0.14890  Biso   1.000  H
  H23      1.0000 0.93360  0.68460  0.25870  Biso   1.000  H
  H24      1.0000 0.88430  0.77530  0.33490  Biso   1.000  H
  H25      1.0000 0.77180  0.70680  0.28440  Biso   1.000  H
  H26      1.0000 0.72740  0.06680  0.21540  Biso   1.000  H
  H27      1.0000 0.64480  0.95500  0.26380  Biso   1.000  H
  H28      1.0000 0.76370  0.02790  0.30640  Biso   1.000  H
  C1       1.0000 0.31660  0.04060  0.51080  Biso   1.000  C
  C2       1.0000 0.57150  0.28290  0.66140  Biso   1.000  C
  C3       1.0000 0.53800  0.30640  0.33990  Biso   1.000  C
  C4       1.0000 0.89200  0.91460  0.66240  Biso   1.000  C
  C5       1.0000 0.75040  0.85920  0.78130  Biso   1.000  C
  C6       1.0000 0.99150  0.73530  0.75600  Biso   1.000  C
  C7       1.0000 0.95940  0.68340  0.98920  Biso   1.000  C
  C8       1.0000 0.71710  0.42850  0.83860  Biso   1.000  C
  C9       1.0000 0.69360  0.46200  0.16010  Biso   1.000  C
  C10      1.0000 0.08540  0.10800  0.83760  Biso   1.000  C
  C11      1.0000 0.14080  0.24960  0.71870  Biso   1.000  C
  C12      1.0000 0.26470  0.00850  0.74400  Biso   1.000  C
  C13      1.0000 0.68340  0.95940  0.48920  Biso   1.000  C
  C14      1.0000 0.42850  0.71710  0.33860  Biso   1.000  C
  C15      1.0000 0.46200  0.69360  0.66010  Biso   1.000  C
  C16      1.0000 0.10800  0.08540  0.33760  Biso   1.000  C
  C17      1.0000 0.24960  0.14080  0.21870  Biso   1.000  C
  C18      1.0000 0.00850  0.26470  0.24400  Biso   1.000  C
  C19      1.0000 0.04060  0.31660  0.01080  Biso   1.000  C
  C20      1.0000 0.28290  0.57150  0.16140  Biso   1.000  C
  C21      1.0000 0.30640  0.53800  0.83990  Biso   1.000  C
  C22      1.0000 0.91460  0.89200  0.16240  Biso   1.000  C
  C23      1.0000 0.85920  0.75040  0.28130  Biso   1.000  C
  C24      1.0000 0.73530  0.99150  0.25600  Biso   1.000  C
  N1       1.0000 0.19890  0.02530  0.51340  Biso   1.000  N
  N2       1.0000 0.54220  0.22920  0.60340  Biso   1.000  N
  N3       1.0000 0.51580  0.24480  0.39830  Biso   1.000  N
  N4       1.0000 0.87870  0.84030  0.72950  Biso   1.000  N
  N5       1.0000 0.97470  0.80110  0.98660  Biso   1.000  N
  N6       1.0000 0.77080  0.45780  0.89660  Biso   1.000  N
  N7       1.0000 0.75520  0.48420  0.10170  Biso   1.000  N
  N8       1.0000 0.15970  0.12130  0.77050  Biso   1.000  N
  N9       1.0000 0.80110  0.97470  0.48660  Biso   1.000  N
  N10      1.0000 0.45780  0.77080  0.39660  Biso   1.000  N
  N11      1.0000 0.48420  0.75520  0.60170  Biso   1.000  N
  N12      1.0000 0.12130  0.15970  0.27050  Biso   1.000  N
  N13      1.0000 0.02530  0.19890  0.01340  Biso   1.000  N
  N14      1.0000 0.22920  0.54220  0.10340  Biso   1.000  N
  N15      1.0000 0.24480  0.51580  0.89830  Biso   1.000  N
  N16      1.0000 0.84030  0.87870  0.22950  Biso   1.000  N
  O1       1.0000 0.99670  0.90210  0.61520  Biso   1.000  O
  O2       1.0000 0.09790  0.00330  0.88480  Biso   1.000  O
  O3       1.0000 0.00330  0.09790  0.38480  Biso   1.000  O
  O4       1.0000 0.90210  0.99670  0.11520  Biso   1.000  O
