data_image0
_cell_length_a       9.4272
_cell_length_b       9.4272
_cell_length_c       16.403
_cell_angle_alpha    88.5189
_cell_angle_beta     88.5189
_cell_angle_gamma    83.7955

_symmetry_space_group_name_H-M    P 1
_symmetry_int_tables_number       1

loop_
  _symmetry_equiv_pos_as_xyz
  'x, y, z'

loop_
  _atom_site_label
  _atom_site_occupancy
  _atom_site_fract_x
  _atom_site_fract_y
  _atom_site_fract_z
  _atom_site_thermal_displace_type
  _atom_site_B_iso_or_equiv
  _atom_site_type_symbol
  Cu1      1.0000 0.86387  0.50759  0.49746  Biso   1.000  Cu
  Cu2      1.0000 0.49241  0.13613  0.00254  Biso   1.000  Cu
  Cu3      1.0000 0.13613  0.49241  0.50254  Biso   1.000  Cu
  Cu4      1.0000 0.50759  0.86387  0.99746  Biso   1.000  Cu
  Cu5      1.0000 0.00000  0.00000  0.50000  Biso   1.000  Cu
  Cu6      1.0000 0.00000  0.00000  0.00000  Biso   1.000  Cu
  Cu7      1.0000 0.60233  0.39767  0.75000  Biso   1.000  Cu
  Cu8      1.0000 0.39767  0.60233  0.25000  Biso   1.000  Cu
  Cu9      1.0000 0.63662  0.36338  0.25000  Biso   1.000  Cu
  Cu10     1.0000 0.36338  0.63662  0.75000  Biso   1.000  Cu
  H1       1.0000 0.25700  0.93900  0.27200  Biso   1.000  H
  H2       1.0000 0.99900  0.19300  0.34300  Biso   1.000  H
  H3       1.0000 0.31000  0.04400  0.20500  Biso   1.000  H
  H4       1.0000 0.23400  0.95000  0.20100  Biso   1.000  H
  H5       1.0000 0.13100  0.21500  0.16500  Biso   1.000  H
  H6       1.0000 0.22000  0.31000  0.21000  Biso   1.000  H
  H7       1.0000 0.05800  0.29400  0.23300  Biso   1.000  H
  H8       1.0000 0.06100  0.74300  0.22800  Biso   1.000  H
  H9       1.0000 0.80700  0.00100  0.15700  Biso   1.000  H
  H10      1.0000 0.95600  0.69000  0.29500  Biso   1.000  H
  H11      1.0000 0.05000  0.76600  0.29900  Biso   1.000  H
  H12      1.0000 0.78500  0.86900  0.33500  Biso   1.000  H
  H13      1.0000 0.69000  0.78000  0.29000  Biso   1.000  H
  H14      1.0000 0.70600  0.94200  0.26700  Biso   1.000  H
  H15      1.0000 0.74300  0.06100  0.72800  Biso   1.000  H
  H16      1.0000 0.00100  0.80700  0.65700  Biso   1.000  H
  H17      1.0000 0.69000  0.95600  0.79500  Biso   1.000  H
  H18      1.0000 0.76600  0.05000  0.79900  Biso   1.000  H
  H19      1.0000 0.86900  0.78500  0.83500  Biso   1.000  H
  H20      1.0000 0.78000  0.69000  0.79000  Biso   1.000  H
  H21      1.0000 0.94200  0.70600  0.76700  Biso   1.000  H
  H22      1.0000 0.93900  0.25700  0.77200  Biso   1.000  H
  H23      1.0000 0.19300  0.99900  0.84300  Biso   1.000  H
  H24      1.0000 0.04400  0.31000  0.70500  Biso   1.000  H
  H25      1.0000 0.95000  0.23400  0.70100  Biso   1.000  H
  H26      1.0000 0.21500  0.13100  0.66500  Biso   1.000  H
  H27      1.0000 0.31000  0.22000  0.71000  Biso   1.000  H
  H28      1.0000 0.29400  0.05800  0.73300  Biso   1.000  H
  C1       1.0000 0.69330  0.46330  0.66010  Biso   1.000  C
  C2       1.0000 0.95970  0.68350  0.48910  Biso   1.000  C
  C3       1.0000 0.71650  0.42790  0.33970  Biso   1.000  C
  C4       1.0000 0.08330  0.10830  0.33880  Biso   1.000  C
  C5       1.0000 0.26800  0.01040  0.24410  Biso   1.000  C
  C6       1.0000 0.14380  0.25160  0.21930  Biso   1.000  C
  C7       1.0000 0.53670  0.30670  0.83990  Biso   1.000  C
  C8       1.0000 0.31650  0.04030  0.01090  Biso   1.000  C
  C9       1.0000 0.57210  0.28350  0.16030  Biso   1.000  C
  C10      1.0000 0.89170  0.91670  0.16120  Biso   1.000  C
  C11      1.0000 0.98960  0.73200  0.25590  Biso   1.000  C
  C12      1.0000 0.74840  0.85620  0.28070  Biso   1.000  C
  C13      1.0000 0.30670  0.53670  0.33990  Biso   1.000  C
  C14      1.0000 0.04030  0.31650  0.51090  Biso   1.000  C
  C15      1.0000 0.28350  0.57210  0.66030  Biso   1.000  C
  C16      1.0000 0.91670  0.89170  0.66120  Biso   1.000  C
  C17      1.0000 0.73200  0.98960  0.75590  Biso   1.000  C
  C18      1.0000 0.85620  0.74840  0.78070  Biso   1.000  C
  C19      1.0000 0.46330  0.69330  0.16010  Biso   1.000  C
  C20      1.0000 0.68350  0.95970  0.98910  Biso   1.000  C
  C21      1.0000 0.42790  0.71650  0.83970  Biso   1.000  C
  C22      1.0000 0.10830  0.08330  0.83880  Biso   1.000  C
  C23      1.0000 0.01040  0.26800  0.74410  Biso   1.000  C
  C24      1.0000 0.25160  0.14380  0.71930  Biso   1.000  C
  N1       1.0000 0.75680  0.48420  0.60090  Biso   1.000  N
  N2       1.0000 0.97570  0.80090  0.48690  Biso   1.000  N
  N3       1.0000 0.77190  0.45850  0.39690  Biso   1.000  N
  N4       1.0000 0.15810  0.12290  0.27140  Biso   1.000  N
  N5       1.0000 0.51580  0.24320  0.89910  Biso   1.000  N
  N6       1.0000 0.19910  0.02430  0.01310  Biso   1.000  N
  N7       1.0000 0.54150  0.22810  0.10310  Biso   1.000  N
  N8       1.0000 0.87710  0.84190  0.22860  Biso   1.000  N
  N9       1.0000 0.24320  0.51580  0.39910  Biso   1.000  N
  N10      1.0000 0.02430  0.19910  0.51310  Biso   1.000  N
  N11      1.0000 0.22810  0.54150  0.60310  Biso   1.000  N
  N12      1.0000 0.84190  0.87710  0.72860  Biso   1.000  N
  N13      1.0000 0.48420  0.75680  0.10090  Biso   1.000  N
  N14      1.0000 0.80090  0.97570  0.98690  Biso   1.000  N
  N15      1.0000 0.45850  0.77190  0.89690  Biso   1.000  N
  N16      1.0000 0.12290  0.15810  0.77140  Biso   1.000  N
  O1       1.0000 0.09770  0.00310  0.38450  Biso   1.000  O
  O2       1.0000 0.99690  0.90230  0.11550  Biso   1.000  O
  O3       1.0000 0.90230  0.99690  0.61550  Biso   1.000  O
  O4       1.0000 0.00310  0.09770  0.88450  Biso   1.000  O
