data_image0
_cell_length_a       9.4505
_cell_length_b       9.4505
_cell_length_c       16.4367
_cell_angle_alpha    88.5107
_cell_angle_beta     88.5107
_cell_angle_gamma    83.7963

_symmetry_space_group_name_H-M    P 1
_symmetry_int_tables_number       1

loop_
  _symmetry_equiv_pos_as_xyz
  'x, y, z'

loop_
  _atom_site_label
  _atom_site_occupancy
  _atom_site_fract_x
  _atom_site_fract_y
  _atom_site_fract_z
  _atom_site_thermal_displace_type
  _atom_site_B_iso_or_equiv
  _atom_site_type_symbol
  Cu1      1.0000 0.13606  0.49229  0.50266  Biso   1.000  Cu
  Cu2      1.0000 0.50771  0.86394  0.99734  Biso   1.000  Cu
  Cu3      1.0000 0.86394  0.50771  0.49734  Biso   1.000  Cu
  Cu4      1.0000 0.49229  0.13606  0.00266  Biso   1.000  Cu
  Cu5      1.0000 0.39772  0.60228  0.25000  Biso   1.000  Cu
  Cu6      1.0000 0.60228  0.39772  0.75000  Biso   1.000  Cu
  Cu7      1.0000 0.36382  0.63618  0.75000  Biso   1.000  Cu
  Cu8      1.0000 0.63618  0.36382  0.25000  Biso   1.000  Cu
  Cu9      1.0000 0.00000  0.00000  0.50000  Biso   1.000  Cu
  Cu10     1.0000 0.00000  0.00000  0.00000  Biso   1.000  Cu
  H1       1.0000 0.98140  0.81560  0.64770  Biso   1.000  H
  H2       1.0000 0.93190  0.68470  0.75700  Biso   1.000  H
  H3       1.0000 0.77180  0.70920  0.78560  Biso   1.000  H
  H4       1.0000 0.88820  0.77600  0.83380  Biso   1.000  H
  H5       1.0000 0.73110  0.06950  0.71740  Biso   1.000  H
  H6       1.0000 0.76100  0.02300  0.80810  Biso   1.000  H
  H7       1.0000 0.64390  0.95590  0.76070  Biso   1.000  H
  H8       1.0000 0.18440  0.01860  0.85230  Biso   1.000  H
  H9       1.0000 0.31530  0.06810  0.74300  Biso   1.000  H
  H10      1.0000 0.29080  0.22820  0.71440  Biso   1.000  H
  H11      1.0000 0.22400  0.11180  0.66620  Biso   1.000  H
  H12      1.0000 0.93050  0.26890  0.78260  Biso   1.000  H
  H13      1.0000 0.97700  0.23900  0.69190  Biso   1.000  H
  H14      1.0000 0.04410  0.35610  0.73930  Biso   1.000  H
  H15      1.0000 0.01860  0.18440  0.35230  Biso   1.000  H
  H16      1.0000 0.06810  0.31530  0.24300  Biso   1.000  H
  H17      1.0000 0.22820  0.29080  0.21440  Biso   1.000  H
  H18      1.0000 0.11180  0.22400  0.16620  Biso   1.000  H
  H19      1.0000 0.26890  0.93050  0.28260  Biso   1.000  H
  H20      1.0000 0.23900  0.97700  0.19190  Biso   1.000  H
  H21      1.0000 0.35610  0.04410  0.23930  Biso   1.000  H
  H22      1.0000 0.81560  0.98140  0.14770  Biso   1.000  H
  H23      1.0000 0.68470  0.93190  0.25700  Biso   1.000  H
  H24      1.0000 0.70920  0.77180  0.28560  Biso   1.000  H
  H25      1.0000 0.77600  0.88820  0.33380  Biso   1.000  H
  H26      1.0000 0.06950  0.73110  0.21740  Biso   1.000  H
  H27      1.0000 0.02300  0.76100  0.30810  Biso   1.000  H
  H28      1.0000 0.95590  0.64390  0.26070  Biso   1.000  H
  C1       1.0000 0.04076  0.31660  0.51073  Biso   1.000  C
  C2       1.0000 0.30552  0.53774  0.34091  Biso   1.000  C
  C3       1.0000 0.28171  0.57115  0.66021  Biso   1.000  C
  C4       1.0000 0.91479  0.89137  0.66164  Biso   1.000  C
  C5       1.0000 0.85970  0.75130  0.78079  Biso   1.000  C
  C6       1.0000 0.73530  0.99130  0.75604  Biso   1.000  C
  C7       1.0000 0.68340  0.95924  0.98927  Biso   1.000  C
  C8       1.0000 0.46226  0.69448  0.15909  Biso   1.000  C
  C9       1.0000 0.42885  0.71829  0.83979  Biso   1.000  C
  C10      1.0000 0.10863  0.08521  0.83836  Biso   1.000  C
  C11      1.0000 0.24870  0.14030  0.71921  Biso   1.000  C
  C12      1.0000 0.00870  0.26470  0.74396  Biso   1.000  C
  C13      1.0000 0.95924  0.68340  0.48927  Biso   1.000  C
  C14      1.0000 0.69448  0.46226  0.65909  Biso   1.000  C
  C15      1.0000 0.71829  0.42885  0.33979  Biso   1.000  C
  C16      1.0000 0.08521  0.10863  0.33836  Biso   1.000  C
  C17      1.0000 0.14030  0.24870  0.21921  Biso   1.000  C
  C18      1.0000 0.26470  0.00870  0.24396  Biso   1.000  C
  C19      1.0000 0.31660  0.04076  0.01073  Biso   1.000  C
  C20      1.0000 0.53774  0.30552  0.84091  Biso   1.000  C
  C21      1.0000 0.57115  0.28171  0.16021  Biso   1.000  C
  C22      1.0000 0.89137  0.91479  0.16164  Biso   1.000  C
  C23      1.0000 0.75130  0.85970  0.28079  Biso   1.000  C
  C24      1.0000 0.99130  0.73530  0.25604  Biso   1.000  C
  N1       1.0000 0.02604  0.19884  0.51328  Biso   1.000  N
  N2       1.0000 0.24326  0.51612  0.39964  Biso   1.000  N
  N3       1.0000 0.22839  0.54171  0.60249  Biso   1.000  N
  N4       1.0000 0.83999  0.87957  0.72897  Biso   1.000  N
  N5       1.0000 0.80116  0.97396  0.98672  Biso   1.000  N
  N6       1.0000 0.48388  0.75674  0.10036  Biso   1.000  N
  N7       1.0000 0.45829  0.77161  0.89751  Biso   1.000  N
  N8       1.0000 0.12043  0.16001  0.77103  Biso   1.000  N
  N9       1.0000 0.97396  0.80116  0.48672  Biso   1.000  N
  N10      1.0000 0.75674  0.48388  0.60036  Biso   1.000  N
  N11      1.0000 0.77161  0.45829  0.39751  Biso   1.000  N
  N12      1.0000 0.16001  0.12043  0.27103  Biso   1.000  N
  N13      1.0000 0.19884  0.02604  0.01328  Biso   1.000  N
  N14      1.0000 0.51612  0.24326  0.89964  Biso   1.000  N
  N15      1.0000 0.54171  0.22839  0.10249  Biso   1.000  N
  N16      1.0000 0.87957  0.83999  0.22897  Biso   1.000  N
  O1       1.0000 0.90273  0.99673  0.61537  Biso   1.000  O
  O2       1.0000 0.00327  0.09727  0.88463  Biso   1.000  O
  O3       1.0000 0.09727  0.00327  0.38463  Biso   1.000  O
  O4       1.0000 0.99673  0.90273  0.11537  Biso   1.000  O
