data_image0
_cell_length_a       27.92
_cell_length_b       27.92
_cell_length_c       30.6693
_cell_angle_alpha    62.9235
_cell_angle_beta     62.9235
_cell_angle_gamma    89.9999

_symmetry_space_group_name_H-M    P 1
_symmetry_int_tables_number       1

loop_
  _symmetry_equiv_pos_as_xyz
  'x, y, z'

loop_
  _atom_site_label
  _atom_site_occupancy
  _atom_site_fract_x
  _atom_site_fract_y
  _atom_site_fract_z
  _atom_site_thermal_displace_type
  _atom_site_B_iso_or_equiv
  _atom_site_type_symbol
  Tb1      1.0000 0.09405  0.45460  0.49026  Biso   1.000  Tb
  Tb2      1.0000 0.91569  0.05514  0.49026  Biso   1.000  Tb
  Tb3      1.0000 0.45459  0.91568  0.99027  Biso   1.000  Tb
  Tb4      1.0000 0.05515  0.09406  0.99025  Biso   1.000  Tb
  Tb5      1.0000 0.90595  0.54540  0.50974  Biso   1.000  Tb
  Tb6      1.0000 0.08431  0.94486  0.50974  Biso   1.000  Tb
  Tb7      1.0000 0.54541  0.08432  0.00973  Biso   1.000  Tb
  Tb8      1.0000 0.94485  0.90594  0.00975  Biso   1.000  Tb
  H1       1.0000 0.97810  0.43020  0.48800  Biso   1.000  H
  H2       1.0000 0.99120  0.34050  0.42300  Biso   1.000  H
  H3       1.0000 0.96580  0.29610  0.48760  Biso   1.000  H
  H4       1.0000 0.02610  0.33480  0.45240  Biso   1.000  H
  H5       1.0000 0.88590  0.34650  0.50860  Biso   1.000  H
  H6       1.0000 0.91520  0.39190  0.44380  Biso   1.000  H
  H7       1.0000 0.90530  0.40920  0.48860  Biso   1.000  H
  H8       1.0000 0.06590  0.41090  0.62420  Biso   1.000  H
  H9       1.0000 0.12160  0.38090  0.70340  Biso   1.000  H
  H10      1.0000 0.06330  0.38110  0.70800  Biso   1.000  H
  H11      1.0000 0.09510  0.43010  0.70460  Biso   1.000  H
  H12      1.0000 0.19450  0.49200  0.60060  Biso   1.000  H
  H13      1.0000 0.20240  0.47250  0.55780  Biso   1.000  H
  H14      1.0000 0.20630  0.43380  0.61180  Biso   1.000  H
  H15      1.0000 0.13970  0.48620  0.36400  Biso   1.000  H
  H16      1.0000 0.26050  0.48520  0.34820  Biso   1.000  H
  H17      1.0000 0.28990  0.53560  0.28540  Biso   1.000  H
  H18      1.0000 0.28280  0.47440  0.29740  Biso   1.000  H
  H19      1.0000 0.19590  0.53910  0.25140  Biso   1.000  H
  H20      1.0000 0.23910  0.50390  0.24120  Biso   1.000  H
  H21      1.0000 0.25600  0.55970  0.23760  Biso   1.000  H
  H22      1.0000 0.03390  0.08180  0.48800  Biso   1.000  H
  H23      1.0000 0.08580  0.23650  0.42300  Biso   1.000  H
  H24      1.0000 0.04660  0.21630  0.48760  Biso   1.000  H
  H25      1.0000 0.02150  0.21280  0.45240  Biso   1.000  H
  H26      1.0000 0.10550  0.14490  0.50860  Biso   1.000  H
  H27      1.0000 0.14100  0.16430  0.44380  Biso   1.000  H
  H28      1.0000 0.10610  0.10220  0.48860  Biso   1.000  H
  H29      1.0000 0.80990  0.96490  0.62420  Biso   1.000  H
  H30      1.0000 0.67500  0.91570  0.70340  Biso   1.000  H
  H31      1.0000 0.72870  0.91090  0.70800  Biso   1.000  H
  H32      1.0000 0.70030  0.86530  0.70460  Biso   1.000  H
  H33      1.0000 0.70490  0.90740  0.60060  Biso   1.000  H
  H34      1.0000 0.73980  0.96970  0.55780  Biso   1.000  H
  H35      1.0000 0.68190  0.95440  0.61180  Biso   1.000  H
  H36      1.0000 0.99630  0.14980  0.36400  Biso   1.000  H
  H37      1.0000 0.89130  0.16660  0.34820  Biso   1.000  H
  H38      1.0000 0.92470  0.17900  0.28540  Biso   1.000  H
  H39      1.0000 0.91980  0.22820  0.29740  Biso   1.000  H
  H40      1.0000 0.05270  0.20950  0.25140  Biso   1.000  H
  H41      1.0000 0.01970  0.25490  0.24120  Biso   1.000  H
  H42      1.0000 0.00640  0.20270  0.23760  Biso   1.000  H
  H43      1.0000 0.43020  0.03390  0.98800  Biso   1.000  H
  H44      1.0000 0.34050  0.08580  0.92300  Biso   1.000  H
  H45      1.0000 0.29610  0.04660  0.98760  Biso   1.000  H
  H46      1.0000 0.33480  0.02150  0.95240  Biso   1.000  H
  H47      1.0000 0.34650  0.10550  0.00860  Biso   1.000  H
  H48      1.0000 0.39190  0.14100  0.94380  Biso   1.000  H
  H49      1.0000 0.40920  0.10610  0.98860  Biso   1.000  H
  H50      1.0000 0.41090  0.80990  0.12420  Biso   1.000  H
  H51      1.0000 0.38090  0.67500  0.20340  Biso   1.000  H
  H52      1.0000 0.38110  0.72870  0.20800  Biso   1.000  H
  H53      1.0000 0.43010  0.70030  0.20460  Biso   1.000  H
  H54      1.0000 0.49200  0.70490  0.10060  Biso   1.000  H
  H55      1.0000 0.47250  0.73980  0.05780  Biso   1.000  H
  H56      1.0000 0.43380  0.68190  0.11180  Biso   1.000  H
  H57      1.0000 0.48620  0.99630  0.86400  Biso   1.000  H
  H58      1.0000 0.48520  0.89130  0.84820  Biso   1.000  H
  H59      1.0000 0.53560  0.92470  0.78540  Biso   1.000  H
  H60      1.0000 0.47440  0.91980  0.79740  Biso   1.000  H
  H61      1.0000 0.53910  0.05270  0.75140  Biso   1.000  H
  H62      1.0000 0.50390  0.01970  0.74120  Biso   1.000  H
  H63      1.0000 0.55970  0.00640  0.73760  Biso   1.000  H
  H64      1.0000 0.08180  0.97810  0.98800  Biso   1.000  H
  H65      1.0000 0.23650  0.99120  0.92300  Biso   1.000  H
  H66      1.0000 0.21630  0.96580  0.98760  Biso   1.000  H
  H67      1.0000 0.21280  0.02610  0.95240  Biso   1.000  H
  H68      1.0000 0.14490  0.88590  0.00860  Biso   1.000  H
  H69      1.0000 0.16430  0.91520  0.94380  Biso   1.000  H
  H70      1.0000 0.10220  0.90530  0.98860  Biso   1.000  H
  H71      1.0000 0.96490  0.06590  0.12420  Biso   1.000  H
  H72      1.0000 0.91570  0.12160  0.20340  Biso   1.000  H
  H73      1.0000 0.91090  0.06330  0.20800  Biso   1.000  H
  H74      1.0000 0.86530  0.09510  0.20460  Biso   1.000  H
  H75      1.0000 0.90740  0.19450  0.10060  Biso   1.000  H
  H76      1.0000 0.96970  0.20240  0.05780  Biso   1.000  H
  H77      1.0000 0.95440  0.20630  0.11180  Biso   1.000  H
  H78      1.0000 0.14980  0.13970  0.86400  Biso   1.000  H
  H79      1.0000 0.16660  0.26050  0.84820  Biso   1.000  H
  H80      1.0000 0.17900  0.28990  0.78540  Biso   1.000  H
  H81      1.0000 0.22820  0.28280  0.79740  Biso   1.000  H
  H82      1.0000 0.20950  0.19590  0.75140  Biso   1.000  H
  H83      1.0000 0.25490  0.23910  0.74120  Biso   1.000  H
  H84      1.0000 0.20270  0.25600  0.73760  Biso   1.000  H
  H85      1.0000 0.02190  0.56980  0.51200  Biso   1.000  H
  H86      1.0000 0.00880  0.65950  0.57700  Biso   1.000  H
  H87      1.0000 0.03420  0.70390  0.51240  Biso   1.000  H
  H88      1.0000 0.97390  0.66520  0.54760  Biso   1.000  H
  H89      1.0000 0.11410  0.65350  0.49140  Biso   1.000  H
  H90      1.0000 0.08480  0.60810  0.55620  Biso   1.000  H
  H91      1.0000 0.09470  0.59080  0.51140  Biso   1.000  H
  H92      1.0000 0.93410  0.58910  0.37580  Biso   1.000  H
  H93      1.0000 0.87840  0.61910  0.29660  Biso   1.000  H
  H94      1.0000 0.93670  0.61890  0.29200  Biso   1.000  H
  H95      1.0000 0.90490  0.56990  0.29540  Biso   1.000  H
  H96      1.0000 0.80550  0.50800  0.39940  Biso   1.000  H
  H97      1.0000 0.79760  0.52750  0.44220  Biso   1.000  H
  H98      1.0000 0.79370  0.56620  0.38820  Biso   1.000  H
  H99      1.0000 0.86030  0.51380  0.63600  Biso   1.000  H
  H100     1.0000 0.73950  0.51480  0.65180  Biso   1.000  H
  H101     1.0000 0.71010  0.46440  0.71460  Biso   1.000  H
  H102     1.0000 0.71720  0.52560  0.70260  Biso   1.000  H
  H103     1.0000 0.80410  0.46090  0.74860  Biso   1.000  H
  H104     1.0000 0.76090  0.49610  0.75880  Biso   1.000  H
  H105     1.0000 0.74400  0.44030  0.76240  Biso   1.000  H
  H106     1.0000 0.96610  0.91820  0.51200  Biso   1.000  H
  H107     1.0000 0.91420  0.76350  0.57700  Biso   1.000  H
  H108     1.0000 0.95340  0.78370  0.51240  Biso   1.000  H
  H109     1.0000 0.97850  0.78720  0.54760  Biso   1.000  H
  H110     1.0000 0.89450  0.85510  0.49140  Biso   1.000  H
  H111     1.0000 0.85900  0.83570  0.55620  Biso   1.000  H
  H112     1.0000 0.89390  0.89780  0.51140  Biso   1.000  H
  H113     1.0000 0.19010  0.03510  0.37580  Biso   1.000  H
  H114     1.0000 0.32500  0.08430  0.29660  Biso   1.000  H
  H115     1.0000 0.27130  0.08910  0.29200  Biso   1.000  H
  H116     1.0000 0.29970  0.13470  0.29540  Biso   1.000  H
  H117     1.0000 0.29510  0.09260  0.39940  Biso   1.000  H
  H118     1.0000 0.26020  0.03030  0.44220  Biso   1.000  H
  H119     1.0000 0.31810  0.04560  0.38820  Biso   1.000  H
  H120     1.0000 0.00370  0.85020  0.63600  Biso   1.000  H
  H121     1.0000 0.10870  0.83340  0.65180  Biso   1.000  H
  H122     1.0000 0.07530  0.82100  0.71460  Biso   1.000  H
  H123     1.0000 0.08020  0.77180  0.70260  Biso   1.000  H
  H124     1.0000 0.94730  0.79050  0.74860  Biso   1.000  H
  H125     1.0000 0.98030  0.74510  0.75880  Biso   1.000  H
  H126     1.0000 0.99360  0.79730  0.76240  Biso   1.000  H
  H127     1.0000 0.56980  0.96610  0.01200  Biso   1.000  H
  H128     1.0000 0.65950  0.91420  0.07700  Biso   1.000  H
  H129     1.0000 0.70390  0.95340  0.01240  Biso   1.000  H
  H130     1.0000 0.66520  0.97850  0.04760  Biso   1.000  H
  H131     1.0000 0.65350  0.89450  0.99140  Biso   1.000  H
  H132     1.0000 0.60810  0.85900  0.05620  Biso   1.000  H
  H133     1.0000 0.59080  0.89390  0.01140  Biso   1.000  H
  H134     1.0000 0.58910  0.19010  0.87580  Biso   1.000  H
  H135     1.0000 0.61910  0.32500  0.79660  Biso   1.000  H
  H136     1.0000 0.61890  0.27130  0.79200  Biso   1.000  H
  H137     1.0000 0.56990  0.29970  0.79540  Biso   1.000  H
  H138     1.0000 0.50800  0.29510  0.89940  Biso   1.000  H
  H139     1.0000 0.52750  0.26020  0.94220  Biso   1.000  H
  H140     1.0000 0.56620  0.31810  0.88820  Biso   1.000  H
  H141     1.0000 0.51380  0.00370  0.13600  Biso   1.000  H
  H142     1.0000 0.51480  0.10870  0.15180  Biso   1.000  H
  H143     1.0000 0.46440  0.07530  0.21460  Biso   1.000  H
  H144     1.0000 0.52560  0.08020  0.20260  Biso   1.000  H
  H145     1.0000 0.46090  0.94730  0.24860  Biso   1.000  H
  H146     1.0000 0.49610  0.98030  0.25880  Biso   1.000  H
  H147     1.0000 0.44030  0.99360  0.26240  Biso   1.000  H
  H148     1.0000 0.91820  0.02190  0.01200  Biso   1.000  H
  H149     1.0000 0.76350  0.00880  0.07700  Biso   1.000  H
  H150     1.0000 0.78370  0.03420  0.01240  Biso   1.000  H
  H151     1.0000 0.78720  0.97390  0.04760  Biso   1.000  H
  H152     1.0000 0.85510  0.11410  0.99140  Biso   1.000  H
  H153     1.0000 0.83570  0.08480  0.05620  Biso   1.000  H
  H154     1.0000 0.89780  0.09470  0.01140  Biso   1.000  H
  H155     1.0000 0.03510  0.93410  0.87580  Biso   1.000  H
  H156     1.0000 0.08430  0.87840  0.79660  Biso   1.000  H
  H157     1.0000 0.08910  0.93670  0.79200  Biso   1.000  H
  H158     1.0000 0.13470  0.90490  0.79540  Biso   1.000  H
  H159     1.0000 0.09260  0.80550  0.89940  Biso   1.000  H
  H160     1.0000 0.03030  0.79760  0.94220  Biso   1.000  H
  H161     1.0000 0.04560  0.79370  0.88820  Biso   1.000  H
  H162     1.0000 0.85020  0.86030  0.13600  Biso   1.000  H
  H163     1.0000 0.83340  0.73950  0.15180  Biso   1.000  H
  H164     1.0000 0.82100  0.71010  0.21460  Biso   1.000  H
  H165     1.0000 0.77180  0.71720  0.20260  Biso   1.000  H
  H166     1.0000 0.79050  0.80410  0.24860  Biso   1.000  H
  H167     1.0000 0.74510  0.76090  0.25880  Biso   1.000  H
  H168     1.0000 0.79730  0.74400  0.26240  Biso   1.000  H
  C1       1.0000 0.20570  0.56000  0.41760  Biso   1.000  C
  C2       1.0000 0.22480  0.62270  0.38940  Biso   1.000  C
  C3       1.0000 0.23166  0.64676  0.41788  Biso   1.000  C
  C4       1.0000 0.24790  0.70280  0.39320  Biso   1.000  C
  C5       1.0000 0.25946  0.73976  0.33688  Biso   1.000  C
  C6       1.0000 0.25485  0.71585  0.30750  Biso   1.000  C
  C7       1.0000 0.23700  0.65800  0.33440  Biso   1.000  C
  C8       1.0000 0.27513  0.80123  0.31114  Biso   1.000  C
  C9       1.0000 0.15040  0.90620  0.43780  Biso   1.000  C
  C10      1.0000 0.18284  0.88034  0.40332  Biso   1.000  C
  C11      1.0000 0.24017  0.89137  0.37706  Biso   1.000  C
  C12      1.0000 0.26955  0.86645  0.34810  Biso   1.000  C
  C13      1.0000 0.24279  0.82679  0.34382  Biso   1.000  C
  C14      1.0000 0.18475  0.81575  0.37110  Biso   1.000  C
  C15      1.0000 0.15604  0.84314  0.39932  Biso   1.000  C
  C16      1.0000 0.45820  0.95180  0.08340  Biso   1.000  C
  C17      1.0000 0.41042  0.91102  0.14256  Biso   1.000  C
  C18      1.0000 0.35786  0.91996  0.15988  Biso   1.000  C
  C19      1.0000 0.31310  0.88370  0.21320  Biso   1.000  C
  C20      1.0000 0.32054  0.83744  0.25312  Biso   1.000  C
  C21      1.0000 0.37533  0.82903  0.23414  Biso   1.000  C
  C22      1.0000 0.41888  0.86558  0.18024  Biso   1.000  C
  C23      1.0000 0.99418  0.40368  0.48044  Biso   1.000  C
  C24      1.0000 0.98940  0.33280  0.45760  Biso   1.000  C
  C25      1.0000 0.91400  0.38080  0.47900  Biso   1.000  C
  C26      1.0000 0.10230  0.43290  0.60200  Biso   1.000  C
  C27      1.0000 0.09930  0.40400  0.69180  Biso   1.000  C
  C28      1.0000 0.18800  0.46040  0.59720  Biso   1.000  C
  C29      1.0000 0.17220  0.48010  0.36460  Biso   1.000  C
  C30      1.0000 0.26600  0.49840  0.31100  Biso   1.000  C
  C31      1.0000 0.22610  0.52750  0.25680  Biso   1.000  C
  C32      1.0000 0.87670  0.02240  0.41760  Biso   1.000  C
  C33      1.0000 0.88580  0.98790  0.38940  Biso   1.000  C
  C34      1.0000 0.85046  0.93536  0.41788  Biso   1.000  C
  C35      1.0000 0.85890  0.90400  0.39320  Biso   1.000  C
  C36      1.0000 0.90366  0.92336  0.33688  Biso   1.000  C
  C37      1.0000 0.93765  0.97665  0.30750  Biso   1.000  C
  C38      1.0000 0.92860  0.00760  0.33440  Biso   1.000  C
  C39      1.0000 0.91373  0.88763  0.31114  Biso   1.000  C
  C40      1.0000 0.91180  0.65600  0.43780  Biso   1.000  C
  C41      1.0000 0.91384  0.71634  0.40332  Biso   1.000  C
  C42      1.0000 0.88277  0.73157  0.37706  Biso   1.000  C
  C43      1.0000 0.88235  0.78545  0.34810  Biso   1.000  C
  C44      1.0000 0.91339  0.82939  0.34382  Biso   1.000  C
  C45      1.0000 0.94415  0.81315  0.37110  Biso   1.000  C
  C46      1.0000 0.94464  0.75754  0.39932  Biso   1.000  C
  C47      1.0000 0.95840  0.96480  0.08340  Biso   1.000  C
  C48      1.0000 0.94702  0.94642  0.14256  Biso   1.000  C
  C49      1.0000 0.98226  0.92016  0.15988  Biso   1.000  C
  C50      1.0000 0.97370  0.90310  0.21320  Biso   1.000  C
  C51      1.0000 0.92634  0.90944  0.25312  Biso   1.000  C
  C52      1.0000 0.89053  0.93683  0.23414  Biso   1.000  C
  C53      1.0000 0.90088  0.95418  0.18024  Biso   1.000  C
  C54      1.0000 0.02538  0.11588  0.48044  Biso   1.000  C
  C55      1.0000 0.05300  0.20960  0.45760  Biso   1.000  C
  C56      1.0000 0.10700  0.14020  0.47900  Biso   1.000  C
  C57      1.0000 0.79570  0.96510  0.60200  Biso   1.000  C
  C58      1.0000 0.70890  0.90420  0.69180  Biso   1.000  C
  C59      1.0000 0.71480  0.94240  0.59720  Biso   1.000  C
  C60      1.0000 0.96320  0.15530  0.36460  Biso   1.000  C
  C61      1.0000 0.92300  0.19060  0.31100  Biso   1.000  C
  C62      1.0000 0.01710  0.21570  0.25680  Biso   1.000  C
  C63      1.0000 0.56000  0.87670  0.91760  Biso   1.000  C
  C64      1.0000 0.62270  0.88580  0.88940  Biso   1.000  C
  C65      1.0000 0.64676  0.85046  0.91788  Biso   1.000  C
  C66      1.0000 0.70280  0.85890  0.89320  Biso   1.000  C
  C67      1.0000 0.73976  0.90366  0.83688  Biso   1.000  C
  C68      1.0000 0.71585  0.93765  0.80750  Biso   1.000  C
  C69      1.0000 0.65800  0.92860  0.83440  Biso   1.000  C
  C70      1.0000 0.80123  0.91373  0.81114  Biso   1.000  C
  C71      1.0000 0.90620  0.91180  0.93780  Biso   1.000  C
  C72      1.0000 0.88034  0.91384  0.90332  Biso   1.000  C
  C73      1.0000 0.89137  0.88277  0.87706  Biso   1.000  C
  C74      1.0000 0.86645  0.88235  0.84810  Biso   1.000  C
  C75      1.0000 0.82679  0.91339  0.84382  Biso   1.000  C
  C76      1.0000 0.81575  0.94415  0.87110  Biso   1.000  C
  C77      1.0000 0.84314  0.94464  0.89932  Biso   1.000  C
  C78      1.0000 0.95180  0.95840  0.58340  Biso   1.000  C
  C79      1.0000 0.91102  0.94702  0.64256  Biso   1.000  C
  C80      1.0000 0.91996  0.98226  0.65988  Biso   1.000  C
  C81      1.0000 0.88370  0.97370  0.71320  Biso   1.000  C
  C82      1.0000 0.83744  0.92634  0.75312  Biso   1.000  C
  C83      1.0000 0.82903  0.89053  0.73414  Biso   1.000  C
  C84      1.0000 0.86558  0.90088  0.68024  Biso   1.000  C
  C85      1.0000 0.40368  0.02538  0.98044  Biso   1.000  C
  C86      1.0000 0.33280  0.05300  0.95760  Biso   1.000  C
  C87      1.0000 0.38080  0.10700  0.97900  Biso   1.000  C
  C88      1.0000 0.43290  0.79570  0.10200  Biso   1.000  C
  C89      1.0000 0.40400  0.70890  0.19180  Biso   1.000  C
  C90      1.0000 0.46040  0.71480  0.09720  Biso   1.000  C
  C91      1.0000 0.48010  0.96320  0.86460  Biso   1.000  C
  C92      1.0000 0.49840  0.92300  0.81100  Biso   1.000  C
  C93      1.0000 0.52750  0.01710  0.75680  Biso   1.000  C
  C94      1.0000 0.02240  0.20570  0.91760  Biso   1.000  C
  C95      1.0000 0.98790  0.22480  0.88940  Biso   1.000  C
  C96      1.0000 0.93536  0.23166  0.91788  Biso   1.000  C
  C97      1.0000 0.90400  0.24790  0.89320  Biso   1.000  C
  C98      1.0000 0.92336  0.25946  0.83688  Biso   1.000  C
  C99      1.0000 0.97665  0.25485  0.80750  Biso   1.000  C
  C100     1.0000 0.00760  0.23700  0.83440  Biso   1.000  C
  C101     1.0000 0.88763  0.27513  0.81114  Biso   1.000  C
  C102     1.0000 0.65600  0.15040  0.93780  Biso   1.000  C
  C103     1.0000 0.71634  0.18284  0.90332  Biso   1.000  C
  C104     1.0000 0.73157  0.24017  0.87706  Biso   1.000  C
  C105     1.0000 0.78545  0.26955  0.84810  Biso   1.000  C
  C106     1.0000 0.82939  0.24279  0.84382  Biso   1.000  C
  C107     1.0000 0.81315  0.18475  0.87110  Biso   1.000  C
  C108     1.0000 0.75754  0.15604  0.89932  Biso   1.000  C
  C109     1.0000 0.96480  0.45820  0.58340  Biso   1.000  C
  C110     1.0000 0.94642  0.41042  0.64256  Biso   1.000  C
  C111     1.0000 0.92016  0.35786  0.65988  Biso   1.000  C
  C112     1.0000 0.90310  0.31310  0.71320  Biso   1.000  C
  C113     1.0000 0.90944  0.32054  0.75312  Biso   1.000  C
  C114     1.0000 0.93683  0.37533  0.73414  Biso   1.000  C
  C115     1.0000 0.95418  0.41888  0.68024  Biso   1.000  C
  C116     1.0000 0.11588  0.99418  0.98044  Biso   1.000  C
  C117     1.0000 0.20960  0.98940  0.95760  Biso   1.000  C
  C118     1.0000 0.14020  0.91400  0.97900  Biso   1.000  C
  C119     1.0000 0.96510  0.10230  0.10200  Biso   1.000  C
  C120     1.0000 0.90420  0.09930  0.19180  Biso   1.000  C
  C121     1.0000 0.94240  0.18800  0.09720  Biso   1.000  C
  C122     1.0000 0.15530  0.17220  0.86460  Biso   1.000  C
  C123     1.0000 0.19060  0.26600  0.81100  Biso   1.000  C
  C124     1.0000 0.21570  0.22610  0.75680  Biso   1.000  C
  C125     1.0000 0.79430  0.44000  0.58240  Biso   1.000  C
  C126     1.0000 0.77520  0.37730  0.61060  Biso   1.000  C
  C127     1.0000 0.76834  0.35324  0.58212  Biso   1.000  C
  C128     1.0000 0.75210  0.29720  0.60680  Biso   1.000  C
  C129     1.0000 0.74054  0.26024  0.66312  Biso   1.000  C
  C130     1.0000 0.74515  0.28415  0.69250  Biso   1.000  C
  C131     1.0000 0.76300  0.34200  0.66560  Biso   1.000  C
  C132     1.0000 0.72487  0.19877  0.68886  Biso   1.000  C
  C133     1.0000 0.84960  0.09380  0.56220  Biso   1.000  C
  C134     1.0000 0.81716  0.11966  0.59668  Biso   1.000  C
  C135     1.0000 0.75983  0.10863  0.62294  Biso   1.000  C
  C136     1.0000 0.73045  0.13355  0.65190  Biso   1.000  C
  C137     1.0000 0.75721  0.17321  0.65618  Biso   1.000  C
  C138     1.0000 0.81525  0.18425  0.62890  Biso   1.000  C
  C139     1.0000 0.84396  0.15686  0.60068  Biso   1.000  C
  C140     1.0000 0.54180  0.04820  0.91660  Biso   1.000  C
  C141     1.0000 0.58958  0.08898  0.85744  Biso   1.000  C
  C142     1.0000 0.64214  0.08004  0.84012  Biso   1.000  C
  C143     1.0000 0.68690  0.11630  0.78680  Biso   1.000  C
  C144     1.0000 0.67946  0.16256  0.74688  Biso   1.000  C
  C145     1.0000 0.62467  0.17097  0.76586  Biso   1.000  C
  C146     1.0000 0.58112  0.13442  0.81976  Biso   1.000  C
  C147     1.0000 0.00582  0.59632  0.51956  Biso   1.000  C
  C148     1.0000 0.01060  0.66720  0.54240  Biso   1.000  C
  C149     1.0000 0.08600  0.61920  0.52100  Biso   1.000  C
  C150     1.0000 0.89770  0.56710  0.39800  Biso   1.000  C
  C151     1.0000 0.90070  0.59600  0.30820  Biso   1.000  C
  C152     1.0000 0.81200  0.53960  0.40280  Biso   1.000  C
  C153     1.0000 0.82780  0.51990  0.63540  Biso   1.000  C
  C154     1.0000 0.73400  0.50160  0.68900  Biso   1.000  C
  C155     1.0000 0.77390  0.47250  0.74320  Biso   1.000  C
  C156     1.0000 0.12330  0.97760  0.58240  Biso   1.000  C
  C157     1.0000 0.11420  0.01210  0.61060  Biso   1.000  C
  C158     1.0000 0.14954  0.06464  0.58212  Biso   1.000  C
  C159     1.0000 0.14110  0.09600  0.60680  Biso   1.000  C
  C160     1.0000 0.09634  0.07664  0.66312  Biso   1.000  C
  C161     1.0000 0.06235  0.02335  0.69250  Biso   1.000  C
  C162     1.0000 0.07140  0.99240  0.66560  Biso   1.000  C
  C163     1.0000 0.08627  0.11237  0.68886  Biso   1.000  C
  C164     1.0000 0.08820  0.34400  0.56220  Biso   1.000  C
  C165     1.0000 0.08616  0.28366  0.59668  Biso   1.000  C
  C166     1.0000 0.11723  0.26843  0.62294  Biso   1.000  C
  C167     1.0000 0.11765  0.21455  0.65190  Biso   1.000  C
  C168     1.0000 0.08661  0.17061  0.65618  Biso   1.000  C
  C169     1.0000 0.05585  0.18685  0.62890  Biso   1.000  C
  C170     1.0000 0.05536  0.24246  0.60068  Biso   1.000  C
  C171     1.0000 0.04160  0.03520  0.91660  Biso   1.000  C
  C172     1.0000 0.05298  0.05358  0.85744  Biso   1.000  C
  C173     1.0000 0.01774  0.07984  0.84012  Biso   1.000  C
  C174     1.0000 0.02630  0.09690  0.78680  Biso   1.000  C
  C175     1.0000 0.07366  0.09056  0.74688  Biso   1.000  C
  C176     1.0000 0.10947  0.06317  0.76586  Biso   1.000  C
  C177     1.0000 0.09912  0.04582  0.81976  Biso   1.000  C
  C178     1.0000 0.97462  0.88412  0.51956  Biso   1.000  C
  C179     1.0000 0.94700  0.79040  0.54240  Biso   1.000  C
  C180     1.0000 0.89300  0.85980  0.52100  Biso   1.000  C
  C181     1.0000 0.20430  0.03490  0.39800  Biso   1.000  C
  C182     1.0000 0.29110  0.09580  0.30820  Biso   1.000  C
  C183     1.0000 0.28520  0.05760  0.40280  Biso   1.000  C
  C184     1.0000 0.03680  0.84470  0.63540  Biso   1.000  C
  C185     1.0000 0.07700  0.80940  0.68900  Biso   1.000  C
  C186     1.0000 0.98290  0.78430  0.74320  Biso   1.000  C
  C187     1.0000 0.44000  0.12330  0.08240  Biso   1.000  C
  C188     1.0000 0.37730  0.11420  0.11060  Biso   1.000  C
  C189     1.0000 0.35324  0.14954  0.08212  Biso   1.000  C
  C190     1.0000 0.29720  0.14110  0.10680  Biso   1.000  C
  C191     1.0000 0.26024  0.09634  0.16312  Biso   1.000  C
  C192     1.0000 0.28415  0.06235  0.19250  Biso   1.000  C
  C193     1.0000 0.34200  0.07140  0.16560  Biso   1.000  C
  C194     1.0000 0.19877  0.08627  0.18886  Biso   1.000  C
  C195     1.0000 0.09380  0.08820  0.06220  Biso   1.000  C
  C196     1.0000 0.11966  0.08616  0.09668  Biso   1.000  C
  C197     1.0000 0.10863  0.11723  0.12294  Biso   1.000  C
  C198     1.0000 0.13355  0.11765  0.15190  Biso   1.000  C
  C199     1.0000 0.17321  0.08661  0.15618  Biso   1.000  C
  C200     1.0000 0.18425  0.05585  0.12890  Biso   1.000  C
  C201     1.0000 0.15686  0.05536  0.10068  Biso   1.000  C
  C202     1.0000 0.04820  0.04160  0.41660  Biso   1.000  C
  C203     1.0000 0.08898  0.05298  0.35744  Biso   1.000  C
  C204     1.0000 0.08004  0.01774  0.34012  Biso   1.000  C
  C205     1.0000 0.11630  0.02630  0.28680  Biso   1.000  C
  C206     1.0000 0.16256  0.07366  0.24688  Biso   1.000  C
  C207     1.0000 0.17097  0.10947  0.26586  Biso   1.000  C
  C208     1.0000 0.13442  0.09912  0.31976  Biso   1.000  C
  C209     1.0000 0.59632  0.97462  0.01956  Biso   1.000  C
  C210     1.0000 0.66720  0.94700  0.04240  Biso   1.000  C
  C211     1.0000 0.61920  0.89300  0.02100  Biso   1.000  C
  C212     1.0000 0.56710  0.20430  0.89800  Biso   1.000  C
  C213     1.0000 0.59600  0.29110  0.80820  Biso   1.000  C
  C214     1.0000 0.53960  0.28520  0.90280  Biso   1.000  C
  C215     1.0000 0.51990  0.03680  0.13540  Biso   1.000  C
  C216     1.0000 0.50160  0.07700  0.18900  Biso   1.000  C
  C217     1.0000 0.47250  0.98290  0.24320  Biso   1.000  C
  C218     1.0000 0.97760  0.79430  0.08240  Biso   1.000  C
  C219     1.0000 0.01210  0.77520  0.11060  Biso   1.000  C
  C220     1.0000 0.06464  0.76834  0.08212  Biso   1.000  C
  C221     1.0000 0.09600  0.75210  0.10680  Biso   1.000  C
  C222     1.0000 0.07664  0.74054  0.16312  Biso   1.000  C
  C223     1.0000 0.02335  0.74515  0.19250  Biso   1.000  C
  C224     1.0000 0.99240  0.76300  0.16560  Biso   1.000  C
  C225     1.0000 0.11237  0.72487  0.18886  Biso   1.000  C
  C226     1.0000 0.34400  0.84960  0.06220  Biso   1.000  C
  C227     1.0000 0.28366  0.81716  0.09668  Biso   1.000  C
  C228     1.0000 0.26843  0.75983  0.12294  Biso   1.000  C
  C229     1.0000 0.21455  0.73045  0.15190  Biso   1.000  C
  C230     1.0000 0.17061  0.75721  0.15618  Biso   1.000  C
  C231     1.0000 0.18685  0.81525  0.12890  Biso   1.000  C
  C232     1.0000 0.24246  0.84396  0.10068  Biso   1.000  C
  C233     1.0000 0.03520  0.54180  0.41660  Biso   1.000  C
  C234     1.0000 0.05358  0.58958  0.35744  Biso   1.000  C
  C235     1.0000 0.07984  0.64214  0.34012  Biso   1.000  C
  C236     1.0000 0.09690  0.68690  0.28680  Biso   1.000  C
  C237     1.0000 0.09056  0.67946  0.24688  Biso   1.000  C
  C238     1.0000 0.06317  0.62467  0.26586  Biso   1.000  C
  C239     1.0000 0.04582  0.58112  0.31976  Biso   1.000  C
  C240     1.0000 0.88412  0.00582  0.01956  Biso   1.000  C
  C241     1.0000 0.79040  0.01060  0.04240  Biso   1.000  C
  C242     1.0000 0.85980  0.08600  0.02100  Biso   1.000  C
  C243     1.0000 0.03490  0.89770  0.89800  Biso   1.000  C
  C244     1.0000 0.09580  0.90070  0.80820  Biso   1.000  C
  C245     1.0000 0.05760  0.81200  0.90280  Biso   1.000  C
  C246     1.0000 0.84470  0.82780  0.13540  Biso   1.000  C
  C247     1.0000 0.80940  0.73400  0.18900  Biso   1.000  C
  C248     1.0000 0.78430  0.77390  0.24320  Biso   1.000  C
  N1       1.0000 0.96690  0.37340  0.47260  Biso   1.000  N
  N2       1.0000 0.12640  0.43380  0.63060  Biso   1.000  N
  N3       1.0000 0.20800  0.49850  0.31420  Biso   1.000  N
  N4       1.0000 0.06050  0.15400  0.47260  Biso   1.000  N
  N5       1.0000 0.74300  0.93560  0.63060  Biso   1.000  N
  N6       1.0000 0.97780  0.18730  0.31420  Biso   1.000  N
  N7       1.0000 0.37340  0.06050  0.97260  Biso   1.000  N
  N8       1.0000 0.43380  0.74300  0.13060  Biso   1.000  N
  N9       1.0000 0.49850  0.97780  0.81420  Biso   1.000  N
  N10      1.0000 0.15400  0.96690  0.97260  Biso   1.000  N
  N11      1.0000 0.93560  0.12640  0.13060  Biso   1.000  N
  N12      1.0000 0.18730  0.20800  0.81420  Biso   1.000  N
  N13      1.0000 0.03310  0.62660  0.52740  Biso   1.000  N
  N14      1.0000 0.87360  0.56620  0.36940  Biso   1.000  N
  N15      1.0000 0.79200  0.50150  0.68580  Biso   1.000  N
  N16      1.0000 0.93950  0.84600  0.52740  Biso   1.000  N
  N17      1.0000 0.25700  0.06440  0.36940  Biso   1.000  N
  N18      1.0000 0.02220  0.81270  0.68580  Biso   1.000  N
  N19      1.0000 0.62660  0.93950  0.02740  Biso   1.000  N
  N20      1.0000 0.56620  0.25700  0.86940  Biso   1.000  N
  N21      1.0000 0.50150  0.02220  0.18580  Biso   1.000  N
  N22      1.0000 0.84600  0.03310  0.02740  Biso   1.000  N
  N23      1.0000 0.06440  0.87360  0.86940  Biso   1.000  N
  N24      1.0000 0.81270  0.79200  0.18580  Biso   1.000  N
  Cl1      1.0000 0.21887  0.60287  0.48608  Biso   1.000  Cl
  Cl2      1.0000 0.25877  0.72954  0.43014  Biso   1.000  Cl
  Cl3      1.0000 0.26552  0.75655  0.24040  Biso   1.000  Cl
  Cl4      1.0000 0.22861  0.62921  0.29784  Biso   1.000  Cl
  Cl5      1.0000 0.27466  0.93882  0.38246  Biso   1.000  Cl
  Cl6      1.0000 0.34116  0.87949  0.32038  Biso   1.000  Cl
  Cl7      1.0000 0.14838  0.77054  0.36576  Biso   1.000  Cl
  Cl8      1.0000 0.08389  0.82881  0.42994  Biso   1.000  Cl
  Cl9      1.0000 0.34733  0.97797  0.11378  Biso   1.000  Cl
  Cl10     1.0000 0.24746  0.89211  0.23068  Biso   1.000  Cl
  Cl11     1.0000 0.38819  0.77486  0.28072  Biso   1.000  Cl
  Cl12     1.0000 0.48494  0.85623  0.15792  Biso   1.000  Cl
  Cl13     1.0000 0.79505  0.91105  0.48608  Biso   1.000  Cl
  Cl14     1.0000 0.81109  0.84032  0.43014  Biso   1.000  Cl
  Cl15     1.0000 0.99408  0.00305  0.24040  Biso   1.000  Cl
  Cl16     1.0000 0.97355  0.07295  0.29784  Biso   1.000  Cl
  Cl17     1.0000 0.84288  0.67872  0.38246  Biso   1.000  Cl
  Cl18     1.0000 0.83846  0.80013  0.32038  Biso   1.000  Cl
  Cl19     1.0000 0.98586  0.86370  0.36576  Biso   1.000  Cl
  Cl20     1.0000 0.98617  0.74125  0.42994  Biso   1.000  Cl
  Cl21     1.0000 0.03889  0.90825  0.11378  Biso   1.000  Cl
  Cl22     1.0000 0.02186  0.87721  0.23068  Biso   1.000  Cl
  Cl23     1.0000 0.83109  0.94442  0.28072  Biso   1.000  Cl
  Cl24     1.0000 0.85714  0.98585  0.15792  Biso   1.000  Cl
  Cl25     1.0000 0.60287  0.79505  0.98608  Biso   1.000  Cl
  Cl26     1.0000 0.72954  0.81109  0.93014  Biso   1.000  Cl
  Cl27     1.0000 0.75655  0.99408  0.74040  Biso   1.000  Cl
  Cl28     1.0000 0.62921  0.97355  0.79784  Biso   1.000  Cl
  Cl29     1.0000 0.93882  0.84288  0.88246  Biso   1.000  Cl
  Cl30     1.0000 0.87949  0.83846  0.82038  Biso   1.000  Cl
  Cl31     1.0000 0.77054  0.98586  0.86576  Biso   1.000  Cl
  Cl32     1.0000 0.82881  0.98617  0.92994  Biso   1.000  Cl
  Cl33     1.0000 0.97797  0.03889  0.61378  Biso   1.000  Cl
  Cl34     1.0000 0.89211  0.02186  0.73068  Biso   1.000  Cl
  Cl35     1.0000 0.77486  0.83109  0.78072  Biso   1.000  Cl
  Cl36     1.0000 0.85623  0.85714  0.65792  Biso   1.000  Cl
  Cl37     1.0000 0.91105  0.21887  0.98608  Biso   1.000  Cl
  Cl38     1.0000 0.84032  0.25877  0.93014  Biso   1.000  Cl
  Cl39     1.0000 0.00305  0.26552  0.74040  Biso   1.000  Cl
  Cl40     1.0000 0.07295  0.22861  0.79784  Biso   1.000  Cl
  Cl41     1.0000 0.67872  0.27466  0.88246  Biso   1.000  Cl
  Cl42     1.0000 0.80013  0.34116  0.82038  Biso   1.000  Cl
  Cl43     1.0000 0.86370  0.14838  0.86576  Biso   1.000  Cl
  Cl44     1.0000 0.74125  0.08389  0.92994  Biso   1.000  Cl
  Cl45     1.0000 0.90825  0.34733  0.61378  Biso   1.000  Cl
  Cl46     1.0000 0.87721  0.24746  0.73068  Biso   1.000  Cl
  Cl47     1.0000 0.94442  0.38819  0.78072  Biso   1.000  Cl
  Cl48     1.0000 0.98585  0.48494  0.65792  Biso   1.000  Cl
  Cl49     1.0000 0.78113  0.39713  0.51392  Biso   1.000  Cl
  Cl50     1.0000 0.74123  0.27046  0.56986  Biso   1.000  Cl
  Cl51     1.0000 0.73448  0.24345  0.75960  Biso   1.000  Cl
  Cl52     1.0000 0.77139  0.37079  0.70216  Biso   1.000  Cl
  Cl53     1.0000 0.72534  0.06118  0.61754  Biso   1.000  Cl
  Cl54     1.0000 0.65884  0.12051  0.67962  Biso   1.000  Cl
  Cl55     1.0000 0.85162  0.22946  0.63424  Biso   1.000  Cl
  Cl56     1.0000 0.91611  0.17119  0.57006  Biso   1.000  Cl
  Cl57     1.0000 0.65267  0.02203  0.88622  Biso   1.000  Cl
  Cl58     1.0000 0.75254  0.10789  0.76932  Biso   1.000  Cl
  Cl59     1.0000 0.61181  0.22514  0.71928  Biso   1.000  Cl
  Cl60     1.0000 0.51506  0.14377  0.84208  Biso   1.000  Cl
  Cl61     1.0000 0.20495  0.08895  0.51392  Biso   1.000  Cl
  Cl62     1.0000 0.18891  0.15968  0.56986  Biso   1.000  Cl
  Cl63     1.0000 0.00592  0.99695  0.75960  Biso   1.000  Cl
  Cl64     1.0000 0.02645  0.92705  0.70216  Biso   1.000  Cl
  Cl65     1.0000 0.15712  0.32128  0.61754  Biso   1.000  Cl
  Cl66     1.0000 0.16154  0.19987  0.67962  Biso   1.000  Cl
  Cl67     1.0000 0.01414  0.13630  0.63424  Biso   1.000  Cl
  Cl68     1.0000 0.01383  0.25875  0.57006  Biso   1.000  Cl
  Cl69     1.0000 0.96111  0.09175  0.88622  Biso   1.000  Cl
  Cl70     1.0000 0.97814  0.12279  0.76932  Biso   1.000  Cl
  Cl71     1.0000 0.16891  0.05558  0.71928  Biso   1.000  Cl
  Cl72     1.0000 0.14286  0.01415  0.84208  Biso   1.000  Cl
  Cl73     1.0000 0.39713  0.20495  0.01392  Biso   1.000  Cl
  Cl74     1.0000 0.27046  0.18891  0.06986  Biso   1.000  Cl
  Cl75     1.0000 0.24345  0.00592  0.25960  Biso   1.000  Cl
  Cl76     1.0000 0.37079  0.02645  0.20216  Biso   1.000  Cl
  Cl77     1.0000 0.06118  0.15712  0.11754  Biso   1.000  Cl
  Cl78     1.0000 0.12051  0.16154  0.17962  Biso   1.000  Cl
  Cl79     1.0000 0.22946  0.01414  0.13424  Biso   1.000  Cl
  Cl80     1.0000 0.17119  0.01383  0.07006  Biso   1.000  Cl
  Cl81     1.0000 0.02203  0.96111  0.38622  Biso   1.000  Cl
  Cl82     1.0000 0.10789  0.97814  0.26932  Biso   1.000  Cl
  Cl83     1.0000 0.22514  0.16891  0.21928  Biso   1.000  Cl
  Cl84     1.0000 0.14377  0.14286  0.34208  Biso   1.000  Cl
  Cl85     1.0000 0.08895  0.78113  0.01392  Biso   1.000  Cl
  Cl86     1.0000 0.15968  0.74123  0.06986  Biso   1.000  Cl
  Cl87     1.0000 0.99695  0.73448  0.25960  Biso   1.000  Cl
  Cl88     1.0000 0.92705  0.77139  0.20216  Biso   1.000  Cl
  Cl89     1.0000 0.32128  0.72534  0.11754  Biso   1.000  Cl
  Cl90     1.0000 0.19987  0.65884  0.17962  Biso   1.000  Cl
  Cl91     1.0000 0.13630  0.85162  0.13424  Biso   1.000  Cl
  Cl92     1.0000 0.25875  0.91611  0.07006  Biso   1.000  Cl
  Cl93     1.0000 0.09175  0.65267  0.38622  Biso   1.000  Cl
  Cl94     1.0000 0.12279  0.75254  0.26932  Biso   1.000  Cl
  Cl95     1.0000 0.05558  0.61181  0.21928  Biso   1.000  Cl
  Cl96     1.0000 0.01415  0.51506  0.34208  Biso   1.000  Cl
  O1       1.0000 0.15425  0.53935  0.44550  Biso   1.000  O
  O2       1.0000 0.24256  0.53566  0.41128  Biso   1.000  O
  O3       1.0000 0.12963  0.94343  0.41794  Biso   1.000  O
  O4       1.0000 0.14359  0.88769  0.48582  Biso   1.000  O
  O5       1.0000 0.48194  0.99434  0.07672  Biso   1.000  O
  O6       1.0000 0.47040  0.93904  0.04632  Biso   1.000  O
  O7       1.0000 0.04025  0.40069  0.47870  Biso   1.000  O
  O8       1.0000 0.12153  0.45703  0.55074  Biso   1.000  O
  O9       1.0000 0.16027  0.46157  0.40646  Biso   1.000  O
  O10      1.0000 0.90025  0.01515  0.44550  Biso   1.000  O
  O11      1.0000 0.84616  0.05306  0.41128  Biso   1.000  O
  O12      1.0000 0.95243  0.63863  0.41794  Biso   1.000  O
  O13      1.0000 0.87059  0.62649  0.48582  Biso   1.000  O
  O14      1.0000 0.94134  0.92894  0.07672  Biso   1.000  O
  O15      1.0000 0.98328  0.01464  0.04632  Biso   1.000  O
  O16      1.0000 0.98105  0.12061  0.47870  Biso   1.000  O
  O17      1.0000 0.82773  0.99223  0.55074  Biso   1.000  O
  O18      1.0000 0.93327  0.13197  0.40646  Biso   1.000  O
  O19      1.0000 0.53935  0.90025  0.94550  Biso   1.000  O
  O20      1.0000 0.53566  0.84616  0.91128  Biso   1.000  O
  O21      1.0000 0.94343  0.95243  0.91794  Biso   1.000  O
  O22      1.0000 0.88769  0.87059  0.98582  Biso   1.000  O
  O23      1.0000 0.99434  0.94134  0.57672  Biso   1.000  O
  O24      1.0000 0.93904  0.98328  0.54632  Biso   1.000  O
  O25      1.0000 0.40069  0.98105  0.97870  Biso   1.000  O
  O26      1.0000 0.45703  0.82773  0.05074  Biso   1.000  O
  O27      1.0000 0.46157  0.93327  0.90646  Biso   1.000  O
  O28      1.0000 0.01515  0.15425  0.94550  Biso   1.000  O
  O29      1.0000 0.05306  0.24256  0.91128  Biso   1.000  O
  O30      1.0000 0.63863  0.12963  0.91794  Biso   1.000  O
  O31      1.0000 0.62649  0.14359  0.98582  Biso   1.000  O
  O32      1.0000 0.92894  0.48194  0.57672  Biso   1.000  O
  O33      1.0000 0.01464  0.47040  0.54632  Biso   1.000  O
  O34      1.0000 0.12061  0.04025  0.97870  Biso   1.000  O
  O35      1.0000 0.99223  0.12153  0.05074  Biso   1.000  O
  O36      1.0000 0.13197  0.16027  0.90646  Biso   1.000  O
  O37      1.0000 0.84575  0.46065  0.55450  Biso   1.000  O
  O38      1.0000 0.75744  0.46434  0.58872  Biso   1.000  O
  O39      1.0000 0.87037  0.05657  0.58206  Biso   1.000  O
  O40      1.0000 0.85641  0.11231  0.51418  Biso   1.000  O
  O41      1.0000 0.51806  0.00566  0.92328  Biso   1.000  O
  O42      1.0000 0.52960  0.06096  0.95368  Biso   1.000  O
  O43      1.0000 0.95975  0.59931  0.52130  Biso   1.000  O
  O44      1.0000 0.87847  0.54297  0.44926  Biso   1.000  O
  O45      1.0000 0.83973  0.53843  0.59354  Biso   1.000  O
  O46      1.0000 0.09975  0.98485  0.55450  Biso   1.000  O
  O47      1.0000 0.15384  0.94694  0.58872  Biso   1.000  O
  O48      1.0000 0.04757  0.36137  0.58206  Biso   1.000  O
  O49      1.0000 0.12941  0.37351  0.51418  Biso   1.000  O
  O50      1.0000 0.05866  0.07106  0.92328  Biso   1.000  O
  O51      1.0000 0.01672  0.98536  0.95368  Biso   1.000  O
  O52      1.0000 0.01895  0.87939  0.52130  Biso   1.000  O
  O53      1.0000 0.17227  0.00777  0.44926  Biso   1.000  O
  O54      1.0000 0.06673  0.86803  0.59354  Biso   1.000  O
  O55      1.0000 0.46065  0.09975  0.05450  Biso   1.000  O
  O56      1.0000 0.46434  0.15384  0.08872  Biso   1.000  O
  O57      1.0000 0.05657  0.04757  0.08206  Biso   1.000  O
  O58      1.0000 0.11231  0.12941  0.01418  Biso   1.000  O
  O59      1.0000 0.00566  0.05866  0.42328  Biso   1.000  O
  O60      1.0000 0.06096  0.01672  0.45368  Biso   1.000  O
  O61      1.0000 0.59931  0.01895  0.02130  Biso   1.000  O
  O62      1.0000 0.54297  0.17227  0.94926  Biso   1.000  O
  O63      1.0000 0.53843  0.06673  0.09354  Biso   1.000  O
  O64      1.0000 0.98485  0.84575  0.05450  Biso   1.000  O
  O65      1.0000 0.94694  0.75744  0.08872  Biso   1.000  O
  O66      1.0000 0.36137  0.87037  0.08206  Biso   1.000  O
  O67      1.0000 0.37351  0.85641  0.01418  Biso   1.000  O
  O68      1.0000 0.07106  0.51806  0.42328  Biso   1.000  O
  O69      1.0000 0.98536  0.52960  0.45368  Biso   1.000  O
  O70      1.0000 0.87939  0.95975  0.02130  Biso   1.000  O
  O71      1.0000 0.00777  0.87847  0.94926  Biso   1.000  O
  O72      1.0000 0.86803  0.83973  0.09354  Biso   1.000  O
