data_image0
_cell_length_a       6.7261
_cell_length_b       11.0455
_cell_length_c       11.0455
_cell_angle_alpha    119.896
_cell_angle_beta     105.951
_cell_angle_gamma    74.0486

_symmetry_space_group_name_H-M    P 1
_symmetry_int_tables_number       1

loop_
  _symmetry_equiv_pos_as_xyz
  'x, y, z'

loop_
  _atom_site_label
  _atom_site_occupancy
  _atom_site_fract_x
  _atom_site_fract_y
  _atom_site_fract_z
  _atom_site_thermal_displace_type
  _atom_site_B_iso_or_equiv
  _atom_site_type_symbol
  Ga1      1.0000 0.00000  0.00000  0.00000  Biso   1.000  Ga
  Ga2      1.0000 0.50000  0.00000  0.00000  Biso   1.000  Ga
  H1       1.0000 0.28280  0.95560  0.59760  Biso   1.000  H
  H2       1.0000 0.84230  0.02360  0.60840  Biso   1.000  H
  H3       1.0000 0.21720  0.59760  0.95560  Biso   1.000  H
  H4       1.0000 0.65770  0.60840  0.02360  Biso   1.000  H
  H5       1.0000 0.71720  0.04440  0.40240  Biso   1.000  H
  H6       1.0000 0.15770  0.97640  0.39160  Biso   1.000  H
  H7       1.0000 0.78280  0.40240  0.04440  Biso   1.000  H
  H8       1.0000 0.34230  0.39160  0.97640  Biso   1.000  H
  H9       1.0000 0.75000  0.15160  0.15160  Biso   1.000  H
  H10      1.0000 0.25000  0.84840  0.84840  Biso   1.000  H
  C1       1.0000 0.65740  0.97320  0.75820  Biso   1.000  C
  C2       1.0000 0.57720  0.98660  0.62400  Biso   1.000  C
  C3       1.0000 0.37080  0.97320  0.55840  Biso   1.000  C
  C4       1.0000 0.70410  0.01380  0.56480  Biso   1.000  C
  C5       1.0000 0.84260  0.75820  0.97320  Biso   1.000  C
  C6       1.0000 0.92280  0.62400  0.98660  Biso   1.000  C
  C7       1.0000 0.12920  0.55840  0.97320  Biso   1.000  C
  C8       1.0000 0.79590  0.56480  0.01380  Biso   1.000  C
  C9       1.0000 0.34260  0.02680  0.24180  Biso   1.000  C
  C10      1.0000 0.42280  0.01340  0.37600  Biso   1.000  C
  C11      1.0000 0.62920  0.02680  0.44160  Biso   1.000  C
  C12      1.0000 0.29590  0.98620  0.43520  Biso   1.000  C
  C13      1.0000 0.15740  0.24180  0.02680  Biso   1.000  C
  C14      1.0000 0.07720  0.37600  0.01340  Biso   1.000  C
  C15      1.0000 0.87080  0.44160  0.02680  Biso   1.000  C
  C16      1.0000 0.20410  0.43520  0.98620  Biso   1.000  C
  O1       1.0000 0.84520  0.98870  0.81330  Biso   1.000  O
  O2       1.0000 0.53180  0.94670  0.80410  Biso   1.000  O
  O3       1.0000 0.65480  0.81330  0.98870  Biso   1.000  O
  O4       1.0000 0.96820  0.80410  0.94670  Biso   1.000  O
  O5       1.0000 0.15480  0.01130  0.18670  Biso   1.000  O
  O6       1.0000 0.46820  0.05330  0.19590  Biso   1.000  O
  O7       1.0000 0.34520  0.18670  0.01130  Biso   1.000  O
  O8       1.0000 0.03180  0.19590  0.05330  Biso   1.000  O
  O9       1.0000 0.75000  0.07850  0.07850  Biso   1.000  O
  O10      1.0000 0.25000  0.92150  0.92150  Biso   1.000  O
