data_image0
_cell_length_a       17.287
_cell_length_b       6.727
_cell_length_c       12.461
_cell_angle_alpha    90
_cell_angle_beta     90
_cell_angle_gamma    90

_symmetry_space_group_name_H-M    "P 1"
_symmetry_int_tables_number       1

loop_
  _symmetry_equiv_pos_as_xyz
  'x, y, z'

loop_
  _atom_site_label
  _atom_site_occupancy
  _atom_site_fract_x
  _atom_site_fract_y
  _atom_site_fract_z
  _atom_site_thermal_displace_type
  _atom_site_B_iso_or_equiv
  _atom_site_type_symbol
  O1       1.0000 0.58210  0.08360  0.90040  Biso   1.000  O
  C1       1.0000 0.71640  0.07300  0.78050  Biso   1.000  C
  H1       1.0000 0.69410  0.95310  0.80110  Biso   1.000  H
  O2       1.0000 0.08210  0.58360  0.40040  Biso   1.000  O
  C2       1.0000 0.21640  0.57300  0.28050  Biso   1.000  C
  H2       1.0000 0.19410  0.45310  0.30110  Biso   1.000  H
  O3       1.0000 0.41790  0.41640  0.90040  Biso   1.000  O
  C3       1.0000 0.28360  0.42700  0.78050  Biso   1.000  C
  H3       1.0000 0.30590  0.54690  0.80110  Biso   1.000  H
  O4       1.0000 0.91790  0.91640  0.40040  Biso   1.000  O
  C4       1.0000 0.78360  0.92700  0.28050  Biso   1.000  C
  H4       1.0000 0.80590  0.04690  0.30110  Biso   1.000  H
  O5       1.0000 0.41790  0.58360  0.09960  Biso   1.000  O
  C5       1.0000 0.28360  0.57300  0.21950  Biso   1.000  C
  H5       1.0000 0.30590  0.45310  0.19890  Biso   1.000  H
  O6       1.0000 0.91790  0.08360  0.59960  Biso   1.000  O
  C6       1.0000 0.78360  0.07300  0.71950  Biso   1.000  C
  H6       1.0000 0.80590  0.95310  0.69890  Biso   1.000  H
  O7       1.0000 0.58210  0.91640  0.09960  Biso   1.000  O
  C7       1.0000 0.71640  0.92700  0.21950  Biso   1.000  C
  H7       1.0000 0.69410  0.04690  0.19890  Biso   1.000  H
  O8       1.0000 0.08210  0.41640  0.59960  Biso   1.000  O
  C8       1.0000 0.21640  0.42700  0.71950  Biso   1.000  C
  H8       1.0000 0.19410  0.54690  0.69890  Biso   1.000  H
  O9       1.0000 0.41790  0.91640  0.09960  Biso   1.000  O
  C9       1.0000 0.28360  0.92700  0.21950  Biso   1.000  C
  H9       1.0000 0.30590  0.04690  0.19890  Biso   1.000  H
  O10      1.0000 0.91790  0.41640  0.59960  Biso   1.000  O
  C10      1.0000 0.78360  0.42700  0.71950  Biso   1.000  C
  H10      1.0000 0.80590  0.54690  0.69890  Biso   1.000  H
  O11      1.0000 0.58210  0.58360  0.09960  Biso   1.000  O
  C11      1.0000 0.71640  0.57300  0.21950  Biso   1.000  C
  H11      1.0000 0.69410  0.45310  0.19890  Biso   1.000  H
  O12      1.0000 0.08210  0.08360  0.59960  Biso   1.000  O
  C12      1.0000 0.21640  0.07300  0.71950  Biso   1.000  C
  H12      1.0000 0.19410  0.95310  0.69890  Biso   1.000  H
  O13      1.0000 0.58210  0.41640  0.90040  Biso   1.000  O
  C13      1.0000 0.71640  0.42700  0.78050  Biso   1.000  C
  H13      1.0000 0.69410  0.54690  0.80110  Biso   1.000  H
  O14      1.0000 0.08210  0.91640  0.40040  Biso   1.000  O
  C14      1.0000 0.21640  0.92700  0.28050  Biso   1.000  C
  H14      1.0000 0.19410  0.04690  0.30110  Biso   1.000  H
  O15      1.0000 0.41790  0.08360  0.90040  Biso   1.000  O
  C15      1.0000 0.28360  0.07300  0.78050  Biso   1.000  C
  H15      1.0000 0.30590  0.95310  0.80110  Biso   1.000  H
  O16      1.0000 0.91790  0.58360  0.40040  Biso   1.000  O
  C16      1.0000 0.78360  0.57300  0.28050  Biso   1.000  C
  H16      1.0000 0.80590  0.45310  0.30110  Biso   1.000  H
  Ga1      1.0000 0.50000  0.00000  0.00000  Biso   1.000  Ga
  Ga2      1.0000 0.00000  0.50000  0.50000  Biso   1.000  Ga
  Ga3      1.0000 0.50000  0.50000  0.00000  Biso   1.000  Ga
  Ga4      1.0000 0.00000  0.00000  0.50000  Biso   1.000  Ga
  O17      1.0000 0.50000  0.25000  0.06970  Biso   1.000  O
  O18      1.0000 0.00000  0.75000  0.56970  Biso   1.000  O
  O19      1.0000 0.50000  0.75000  0.93030  Biso   1.000  O
  O20      1.0000 0.00000  0.25000  0.43030  Biso   1.000  O
  C17      1.0000 0.68250  0.25000  0.81070  Biso   1.000  C
  C18      1.0000 0.60930  0.25000  0.87610  Biso   1.000  C
  C19      1.0000 0.18250  0.75000  0.31070  Biso   1.000  C
  C20      1.0000 0.10930  0.75000  0.37610  Biso   1.000  C
  C21      1.0000 0.31750  0.25000  0.81070  Biso   1.000  C
  C22      1.0000 0.39070  0.25000  0.87610  Biso   1.000  C
  C23      1.0000 0.81750  0.75000  0.31070  Biso   1.000  C
  C24      1.0000 0.89070  0.75000  0.37610  Biso   1.000  C
  C25      1.0000 0.31750  0.75000  0.18930  Biso   1.000  C
  C26      1.0000 0.39070  0.75000  0.12390  Biso   1.000  C
  C27      1.0000 0.81750  0.25000  0.68930  Biso   1.000  C
  C28      1.0000 0.89070  0.25000  0.62390  Biso   1.000  C
  C29      1.0000 0.68250  0.75000  0.18930  Biso   1.000  C
  C30      1.0000 0.60930  0.75000  0.12390  Biso   1.000  C
  C31      1.0000 0.18250  0.25000  0.68930  Biso   1.000  C
  C32      1.0000 0.10930  0.25000  0.62390  Biso   1.000  C
