data_image0
_cell_length_a       17.525
_cell_length_b       6.7216
_cell_length_c       11.893
_cell_angle_alpha    90
_cell_angle_beta     90
_cell_angle_gamma    90

_symmetry_space_group_name_H-M    "P 1"
_symmetry_int_tables_number       1

loop_
  _symmetry_equiv_pos_as_xyz
  'x, y, z'

loop_
  _atom_site_label
  _atom_site_occupancy
  _atom_site_fract_x
  _atom_site_fract_y
  _atom_site_fract_z
  _atom_site_thermal_displace_type
  _atom_site_B_iso_or_equiv
  _atom_site_type_symbol
  O1       1.0000 0.42665  0.41770  0.88340  Biso   1.000  O
  O2       1.0000 0.08859  0.41790  0.59040  Biso   1.000  O
  C1       1.0000 0.29400  0.42900  0.75990  Biso   1.000  C
  H1       1.0000 0.31720  0.54870  0.77930  Biso   1.000  H
  C2       1.0000 0.22580  0.42890  0.70190  Biso   1.000  C
  H2       1.0000 0.20280  0.54860  0.68210  Biso   1.000  H
  O3       1.0000 0.07335  0.58230  0.38340  Biso   1.000  O
  O4       1.0000 0.41141  0.58210  0.09040  Biso   1.000  O
  C3       1.0000 0.20600  0.57100  0.25990  Biso   1.000  C
  H3       1.0000 0.18280  0.45130  0.27930  Biso   1.000  H
  C4       1.0000 0.27420  0.57110  0.20190  Biso   1.000  C
  H4       1.0000 0.29720  0.45140  0.18210  Biso   1.000  H
  O5       1.0000 0.57335  0.91770  0.11660  Biso   1.000  O
  O6       1.0000 0.91141  0.91790  0.40960  Biso   1.000  O
  C5       1.0000 0.70600  0.92900  0.24010  Biso   1.000  C
  H5       1.0000 0.68280  0.04870  0.22070  Biso   1.000  H
  C6       1.0000 0.77420  0.92890  0.29810  Biso   1.000  C
  H6       1.0000 0.79720  0.04860  0.31790  Biso   1.000  H
  O7       1.0000 0.92665  0.08230  0.61660  Biso   1.000  O
  O8       1.0000 0.58859  0.08210  0.90960  Biso   1.000  O
  C7       1.0000 0.79400  0.07100  0.74010  Biso   1.000  C
  H7       1.0000 0.81720  0.95130  0.72070  Biso   1.000  H
  C8       1.0000 0.72580  0.07110  0.79810  Biso   1.000  C
  H8       1.0000 0.70280  0.95140  0.81790  Biso   1.000  H
  O9       1.0000 0.57335  0.58230  0.11660  Biso   1.000  O
  O10      1.0000 0.91141  0.58210  0.40960  Biso   1.000  O
  C9       1.0000 0.70600  0.57100  0.24010  Biso   1.000  C
  H9       1.0000 0.68280  0.45130  0.22070  Biso   1.000  H
  C10      1.0000 0.77420  0.57110  0.29810  Biso   1.000  C
  H10      1.0000 0.79720  0.45140  0.31790  Biso   1.000  H
  O11      1.0000 0.92665  0.41770  0.61660  Biso   1.000  O
  O12      1.0000 0.58859  0.41790  0.90960  Biso   1.000  O
  C11      1.0000 0.79400  0.42900  0.74010  Biso   1.000  C
  H11      1.0000 0.81720  0.54870  0.72070  Biso   1.000  H
  C12      1.0000 0.72580  0.42890  0.79810  Biso   1.000  C
  H12      1.0000 0.70280  0.54860  0.81790  Biso   1.000  H
  O13      1.0000 0.42665  0.08230  0.88340  Biso   1.000  O
  O14      1.0000 0.08859  0.08210  0.59040  Biso   1.000  O
  C13      1.0000 0.29400  0.07100  0.75990  Biso   1.000  C
  H13      1.0000 0.31720  0.95130  0.77930  Biso   1.000  H
  C14      1.0000 0.22580  0.07110  0.70190  Biso   1.000  C
  H14      1.0000 0.20280  0.95140  0.68210  Biso   1.000  H
  O15      1.0000 0.07335  0.91770  0.38340  Biso   1.000  O
  O16      1.0000 0.41141  0.91790  0.09040  Biso   1.000  O
  C15      1.0000 0.20600  0.92900  0.25990  Biso   1.000  C
  H15      1.0000 0.18280  0.04870  0.27930  Biso   1.000  H
  C16      1.0000 0.27420  0.92890  0.20190  Biso   1.000  C
  H16      1.0000 0.29720  0.04860  0.18210  Biso   1.000  H
  Ga1      1.0000 0.50000  0.50000  0.00000  Biso   1.000  Ga
  Ga2      1.0000 0.00000  0.50000  0.50000  Biso   1.000  Ga
  Ga3      1.0000 0.50000  0.00000  0.00000  Biso   1.000  Ga
  Ga4      1.0000 0.00000  0.00000  0.50000  Biso   1.000  Ga
  O17      1.0000 0.49394  0.25000  0.07320  Biso   1.000  O
  C17      1.0000 0.40000  0.25000  0.85730  Biso   1.000  C
  C18      1.0000 0.32790  0.25000  0.78930  Biso   1.000  C
  C19      1.0000 0.19150  0.25000  0.67310  Biso   1.000  C
  C20      1.0000 0.11650  0.25000  0.61330  Biso   1.000  C
  O18      1.0000 0.00606  0.75000  0.57320  Biso   1.000  O
  C21      1.0000 0.10000  0.75000  0.35730  Biso   1.000  C
  C22      1.0000 0.17210  0.75000  0.28930  Biso   1.000  C
  C23      1.0000 0.30850  0.75000  0.17310  Biso   1.000  C
  C24      1.0000 0.38350  0.75000  0.11330  Biso   1.000  C
  O19      1.0000 0.50606  0.75000  0.92680  Biso   1.000  O
  C25      1.0000 0.60000  0.75000  0.14270  Biso   1.000  C
  C26      1.0000 0.67210  0.75000  0.21070  Biso   1.000  C
  C27      1.0000 0.80850  0.75000  0.32690  Biso   1.000  C
  C28      1.0000 0.88350  0.75000  0.38670  Biso   1.000  C
  O20      1.0000 0.99394  0.25000  0.42680  Biso   1.000  O
  C29      1.0000 0.90000  0.25000  0.64270  Biso   1.000  C
  C30      1.0000 0.82790  0.25000  0.71070  Biso   1.000  C
  C31      1.0000 0.69150  0.25000  0.82690  Biso   1.000  C
  C32      1.0000 0.61650  0.25000  0.88670  Biso   1.000  C
