data_image0
_cell_length_a       8.648
_cell_length_b       11.6612
_cell_length_c       18.493
_cell_angle_alpha    102.037
_cell_angle_beta     90
_cell_angle_gamma    90

_symmetry_space_group_name_H-M    P 1
_symmetry_int_tables_number       1

loop_
  _symmetry_equiv_pos_as_xyz
  'x, y, z'

loop_
  _atom_site_label
  _atom_site_occupancy
  _atom_site_fract_x
  _atom_site_fract_y
  _atom_site_fract_z
  _atom_site_thermal_displace_type
  _atom_site_B_iso_or_equiv
  _atom_site_type_symbol
  Mn1      1.0000 0.79378  0.94163  0.16580  Biso   1.000  Mn
  Mn2      1.0000 0.29378  0.05837  0.33420  Biso   1.000  Mn
  Mn3      1.0000 0.20622  0.05837  0.83420  Biso   1.000  Mn
  Mn4      1.0000 0.70622  0.94163  0.66580  Biso   1.000  Mn
  H1       1.0000 0.53200  0.89800  0.10000  Biso   1.000  H
  H2       1.0000 0.47700  0.96100  0.17400  Biso   1.000  H
  H3       1.0000 0.65100  0.88000  0.88600  Biso   1.000  H
  H4       1.0000 0.90800  0.01700  0.93700  Biso   1.000  H
  H5       1.0000 0.63800  0.70300  0.09620  Biso   1.000  H
  H6       1.0000 0.63800  0.50900  0.09760  Biso   1.000  H
  H7       1.0000 0.97000  0.56400  0.24300  Biso   1.000  H
  H8       1.0000 0.96700  0.75200  0.24000  Biso   1.000  H
  H9       1.0000 0.65000  0.12800  0.07800  Biso   1.000  H
  H10      1.0000 0.64500  0.32500  0.08360  Biso   1.000  H
  H11      1.0000 0.95000  0.37200  0.24960  Biso   1.000  H
  H12      1.0000 0.94700  0.17500  0.24800  Biso   1.000  H
  H13      1.0000 0.03200  0.10200  0.40000  Biso   1.000  H
  H14      1.0000 0.97700  0.03900  0.32600  Biso   1.000  H
  H15      1.0000 0.15100  0.12000  0.61400  Biso   1.000  H
  H16      1.0000 0.40800  0.98300  0.56300  Biso   1.000  H
  H17      1.0000 0.13800  0.29700  0.40380  Biso   1.000  H
  H18      1.0000 0.13800  0.49100  0.40240  Biso   1.000  H
  H19      1.0000 0.47000  0.43600  0.25700  Biso   1.000  H
  H20      1.0000 0.46700  0.24800  0.26000  Biso   1.000  H
  H21      1.0000 0.15000  0.87200  0.42200  Biso   1.000  H
  H22      1.0000 0.14500  0.67500  0.41640  Biso   1.000  H
  H23      1.0000 0.45000  0.62800  0.25040  Biso   1.000  H
  H24      1.0000 0.44700  0.82500  0.25200  Biso   1.000  H
  H25      1.0000 0.46800  0.10200  0.90000  Biso   1.000  H
  H26      1.0000 0.52300  0.03900  0.82600  Biso   1.000  H
  H27      1.0000 0.34900  0.12000  0.11400  Biso   1.000  H
  H28      1.0000 0.09200  0.98300  0.06300  Biso   1.000  H
  H29      1.0000 0.36200  0.29700  0.90380  Biso   1.000  H
  H30      1.0000 0.36200  0.49100  0.90240  Biso   1.000  H
  H31      1.0000 0.03000  0.43600  0.75700  Biso   1.000  H
  H32      1.0000 0.03300  0.24800  0.76000  Biso   1.000  H
  H33      1.0000 0.35000  0.87200  0.92200  Biso   1.000  H
  H34      1.0000 0.35500  0.67500  0.91640  Biso   1.000  H
  H35      1.0000 0.05000  0.62800  0.75040  Biso   1.000  H
  H36      1.0000 0.05300  0.82500  0.75200  Biso   1.000  H
  H37      1.0000 0.96800  0.89800  0.60000  Biso   1.000  H
  H38      1.0000 0.02300  0.96100  0.67400  Biso   1.000  H
  H39      1.0000 0.84900  0.88000  0.38600  Biso   1.000  H
  H40      1.0000 0.59200  0.01700  0.43700  Biso   1.000  H
  H41      1.0000 0.86200  0.70300  0.59620  Biso   1.000  H
  H42      1.0000 0.86200  0.50900  0.59760  Biso   1.000  H
  H43      1.0000 0.53000  0.56400  0.74300  Biso   1.000  H
  H44      1.0000 0.53300  0.75200  0.74000  Biso   1.000  H
  H45      1.0000 0.85000  0.12800  0.57800  Biso   1.000  H
  H46      1.0000 0.85500  0.32500  0.58360  Biso   1.000  H
  H47      1.0000 0.55000  0.37200  0.74960  Biso   1.000  H
  H48      1.0000 0.55300  0.17500  0.74800  Biso   1.000  H
  C1       1.0000 0.69590  0.88630  0.99800  Biso   1.000  C
  C2       1.0000 0.72420  0.90960  0.92312  Biso   1.000  C
  C3       1.0000 0.83300  0.97660  0.90440  Biso   1.000  C
  C4       1.0000 0.84280  0.00350  0.82892  Biso   1.000  C
  C5       1.0000 0.70760  0.67270  0.12690  Biso   1.000  C
  C6       1.0000 0.70250  0.55470  0.12610  Biso   1.000  C
  C7       1.0000 0.80150  0.50650  0.16958  Biso   1.000  C
  C8       1.0000 0.90050  0.58400  0.21390  Biso   1.000  C
  C9       1.0000 0.89870  0.70120  0.21110  Biso   1.000  C
  C10      1.0000 0.71350  0.18260  0.11930  Biso   1.000  C
  C11      1.0000 0.70980  0.29990  0.11930  Biso   1.000  C
  C12      1.0000 0.80080  0.37860  0.16831  Biso   1.000  C
  C13      1.0000 0.89070  0.32960  0.21570  Biso   1.000  C
  C14      1.0000 0.88690  0.21070  0.21330  Biso   1.000  C
  C15      1.0000 0.19590  0.11370  0.50200  Biso   1.000  C
  C16      1.0000 0.22420  0.09040  0.57688  Biso   1.000  C
  C17      1.0000 0.33300  0.02340  0.59560  Biso   1.000  C
  C18      1.0000 0.34280  0.99650  0.67108  Biso   1.000  C
  C19      1.0000 0.20760  0.32730  0.37310  Biso   1.000  C
  C20      1.0000 0.20250  0.44530  0.37390  Biso   1.000  C
  C21      1.0000 0.30150  0.49350  0.33042  Biso   1.000  C
  C22      1.0000 0.40050  0.41600  0.28610  Biso   1.000  C
  C23      1.0000 0.39870  0.29880  0.28890  Biso   1.000  C
  C24      1.0000 0.21350  0.81740  0.38070  Biso   1.000  C
  C25      1.0000 0.20980  0.70010  0.38070  Biso   1.000  C
  C26      1.0000 0.30080  0.62140  0.33169  Biso   1.000  C
  C27      1.0000 0.39070  0.67040  0.28430  Biso   1.000  C
  C28      1.0000 0.38690  0.78930  0.28670  Biso   1.000  C
  C29      1.0000 0.30410  0.11370  0.00200  Biso   1.000  C
  C30      1.0000 0.27580  0.09040  0.07688  Biso   1.000  C
  C31      1.0000 0.16700  0.02340  0.09560  Biso   1.000  C
  C32      1.0000 0.15720  0.99650  0.17108  Biso   1.000  C
  C33      1.0000 0.29240  0.32730  0.87310  Biso   1.000  C
  C34      1.0000 0.29750  0.44530  0.87390  Biso   1.000  C
  C35      1.0000 0.19850  0.49350  0.83042  Biso   1.000  C
  C36      1.0000 0.09950  0.41600  0.78610  Biso   1.000  C
  C37      1.0000 0.10130  0.29880  0.78890  Biso   1.000  C
  C38      1.0000 0.28650  0.81740  0.88070  Biso   1.000  C
  C39      1.0000 0.29020  0.70010  0.88070  Biso   1.000  C
  C40      1.0000 0.19920  0.62140  0.83169  Biso   1.000  C
  C41      1.0000 0.10930  0.67040  0.78430  Biso   1.000  C
  C42      1.0000 0.11310  0.78930  0.78670  Biso   1.000  C
  C43      1.0000 0.80410  0.88630  0.49800  Biso   1.000  C
  C44      1.0000 0.77580  0.90960  0.42312  Biso   1.000  C
  C45      1.0000 0.66700  0.97660  0.40440  Biso   1.000  C
  C46      1.0000 0.65720  0.00350  0.32892  Biso   1.000  C
  C47      1.0000 0.79240  0.67270  0.62690  Biso   1.000  C
  C48      1.0000 0.79750  0.55470  0.62610  Biso   1.000  C
  C49      1.0000 0.69850  0.50650  0.66958  Biso   1.000  C
  C50      1.0000 0.59950  0.58400  0.71390  Biso   1.000  C
  C51      1.0000 0.60130  0.70120  0.71110  Biso   1.000  C
  C52      1.0000 0.78650  0.18260  0.61930  Biso   1.000  C
  C53      1.0000 0.79020  0.29990  0.61930  Biso   1.000  C
  C54      1.0000 0.69920  0.37860  0.66831  Biso   1.000  C
  C55      1.0000 0.60930  0.32960  0.71570  Biso   1.000  C
  C56      1.0000 0.61310  0.21070  0.71330  Biso   1.000  C
  N1       1.0000 0.80340  0.74690  0.16812  Biso   1.000  N
  N2       1.0000 0.79890  0.13690  0.16616  Biso   1.000  N
  N3       1.0000 0.30340  0.25310  0.33188  Biso   1.000  N
  N4       1.0000 0.29890  0.86310  0.33384  Biso   1.000  N
  N5       1.0000 0.19660  0.25310  0.83188  Biso   1.000  N
  N6       1.0000 0.20110  0.86310  0.83384  Biso   1.000  N
  N7       1.0000 0.69660  0.74690  0.66812  Biso   1.000  N
  N8       1.0000 0.70110  0.13690  0.66616  Biso   1.000  N
  O1       1.0000 0.80250  0.90866  0.04601  Biso   1.000  O
  O2       1.0000 0.56560  0.84590  0.00891  Biso   1.000  O
  O3       1.0000 0.72960  0.97577  0.78589  Biso   1.000  O
  O4       1.0000 0.96260  0.05279  0.81215  Biso   1.000  O
  O5       1.0000 0.54370  0.92350  0.15201  Biso   1.000  O
  O6       1.0000 0.30250  0.09134  0.45399  Biso   1.000  O
  O7       1.0000 0.06560  0.15410  0.49109  Biso   1.000  O
  O8       1.0000 0.22960  0.02423  0.71411  Biso   1.000  O
  O9       1.0000 0.46260  0.94721  0.68785  Biso   1.000  O
  O10      1.0000 0.04370  0.07650  0.34799  Biso   1.000  O
  O11      1.0000 0.19750  0.09134  0.95399  Biso   1.000  O
  O12      1.0000 0.43440  0.15410  0.99109  Biso   1.000  O
  O13      1.0000 0.27040  0.02423  0.21411  Biso   1.000  O
  O14      1.0000 0.03740  0.94721  0.18785  Biso   1.000  O
  O15      1.0000 0.45630  0.07650  0.84799  Biso   1.000  O
  O16      1.0000 0.69750  0.90866  0.54601  Biso   1.000  O
  O17      1.0000 0.93440  0.84590  0.50891  Biso   1.000  O
  O18      1.0000 0.77040  0.97577  0.28589  Biso   1.000  O
  O19      1.0000 0.53740  0.05279  0.31215  Biso   1.000  O
  O20      1.0000 0.95630  0.92350  0.65201  Biso   1.000  O
