data_image0
_cell_length_a       12.8708
_cell_length_b       12.8708
_cell_length_c       17.2433
_cell_angle_alpha    90
_cell_angle_beta     90
_cell_angle_gamma    120

_symmetry_space_group_name_H-M    "P 1"
_symmetry_int_tables_number       1

loop_
  _symmetry_equiv_pos_as_xyz
  'x, y, z'

loop_
  _atom_site_label
  _atom_site_occupancy
  _atom_site_fract_x
  _atom_site_fract_y
  _atom_site_fract_z
  _atom_site_thermal_displace_type
  _atom_site_B_iso_or_equiv
  _atom_site_type_symbol
  O1       1.0000 0.68080  0.81950  0.01050  Biso   1.000  O
  O2       1.0000 0.49230  0.69640  0.98490  Biso   1.000  O
  O3       1.0000 0.34020  0.98370  0.19950  Biso   1.000  O
  O4       1.0000 0.51350  0.02400  0.24560  Biso   1.000  O
  C1       1.0000 0.54460  0.89960  0.01240  Biso   1.000  C
  C2       1.0000 0.46310  0.87380  0.08510  Biso   1.000  C
  C3       1.0000 0.48870  0.00130  0.10650  Biso   1.000  C
  H1       1.0000 0.44800  0.02690  0.06960  Biso   1.000  H
  C4       1.0000 0.62540  0.07860  0.09580  Biso   1.000  C
  H2       1.0000 0.64760  0.16020  0.08200  Biso   1.000  H
  H3       1.0000 0.66690  0.08030  0.14320  Biso   1.000  H
  C5       1.0000 0.65510  0.02160  0.03340  Biso   1.000  C
  H4       1.0000 0.72050  0.00950  0.04960  Biso   1.000  H
  H5       1.0000 0.68120  0.07340  0.98820  Biso   1.000  H
  C6       1.0000 0.48610  0.90710  0.93800  Biso   1.000  C
  H6       1.0000 0.53970  0.92260  0.89530  Biso   1.000  H
  H7       1.0000 0.46820  0.97090  0.94200  Biso   1.000  H
  H8       1.0000 0.41320  0.83260  0.92960  Biso   1.000  H
  C7       1.0000 0.32230  0.79060  0.06590  Biso   1.000  C
  H9       1.0000 0.27640  0.77770  0.11240  Biso   1.000  H
  H10      1.0000 0.30760  0.71480  0.04590  Biso   1.000  H
  H11      1.0000 0.29900  0.82970  0.02800  Biso   1.000  H
  C8       1.0000 0.49330  0.81320  0.14940  Biso   1.000  C
  H12      1.0000 0.57700  0.86050  0.16190  Biso   1.000  H
  H13      1.0000 0.47570  0.73490  0.13270  Biso   1.000  H
  H14      1.0000 0.44640  0.80580  0.19450  Biso   1.000  H
  C9       1.0000 0.57460  0.79950  0.00130  Biso   1.000  C
  C10      1.0000 0.44600  0.00450  0.18930  Biso   1.000  C
  O5       1.0000 0.18050  0.86130  0.34383  Biso   1.000  O
  O6       1.0000 0.30360  0.79590  0.31823  Biso   1.000  O
  O7       1.0000 0.01630  0.35650  0.53283  Biso   1.000  O
  O8       1.0000 0.97600  0.48950  0.57893  Biso   1.000  O
  C11      1.0000 0.10040  0.64500  0.34573  Biso   1.000  C
  C12      1.0000 0.12620  0.58930  0.41843  Biso   1.000  C
  C13      1.0000 0.99870  0.48740  0.43983  Biso   1.000  C
  H15      1.0000 0.97310  0.42110  0.40293  Biso   1.000  H
  C14      1.0000 0.92140  0.54680  0.42913  Biso   1.000  C
  H16      1.0000 0.83980  0.48740  0.41533  Biso   1.000  H
  H17      1.0000 0.91970  0.58660  0.47653  Biso   1.000  H
  C15      1.0000 0.97840  0.63350  0.36673  Biso   1.000  C
  H18      1.0000 0.99050  0.71100  0.38293  Biso   1.000  H
  H19      1.0000 0.92660  0.60780  0.32153  Biso   1.000  H
  C16      1.0000 0.09290  0.57900  0.27133  Biso   1.000  C
  H20      1.0000 0.07740  0.61710  0.22863  Biso   1.000  H
  H21      1.0000 0.02910  0.49730  0.27533  Biso   1.000  H
  H22      1.0000 0.16740  0.58060  0.26293  Biso   1.000  H
  C17      1.0000 0.20940  0.53170  0.39923  Biso   1.000  C
  H23      1.0000 0.22230  0.49870  0.44573  Biso   1.000  H
  H24      1.0000 0.28520  0.59280  0.37923  Biso   1.000  H
  H25      1.0000 0.17030  0.46930  0.36133  Biso   1.000  H
  C18      1.0000 0.18680  0.68010  0.48273  Biso   1.000  C
  H26      1.0000 0.13950  0.71650  0.49523  Biso   1.000  H
  H27      1.0000 0.26510  0.74080  0.46603  Biso   1.000  H
  H28      1.0000 0.19420  0.64060  0.52783  Biso   1.000  H
  C19      1.0000 0.20050  0.77510  0.33463  Biso   1.000  C
  C20      1.0000 0.99550  0.44150  0.52263  Biso   1.000  C
  O9       1.0000 0.13870  0.31920  0.67717  Biso   1.000  O
  O10      1.0000 0.20410  0.50770  0.65157  Biso   1.000  O
  O11      1.0000 0.64350  0.65980  0.86617  Biso   1.000  O
  O12      1.0000 0.51050  0.48650  0.91227  Biso   1.000  O
  C21      1.0000 0.35500  0.45540  0.67907  Biso   1.000  C
  C22      1.0000 0.41070  0.53690  0.75177  Biso   1.000  C
  C23      1.0000 0.51260  0.51130  0.77317  Biso   1.000  C
  H29      1.0000 0.57890  0.55200  0.73627  Biso   1.000  H
  C24      1.0000 0.45320  0.37460  0.76247  Biso   1.000  C
  H30      1.0000 0.51260  0.35240  0.74867  Biso   1.000  H
  H31      1.0000 0.41340  0.33310  0.80987  Biso   1.000  H
  C25      1.0000 0.36650  0.34490  0.70007  Biso   1.000  C
  H32      1.0000 0.28900  0.27950  0.71627  Biso   1.000  H
  H33      1.0000 0.39220  0.31880  0.65487  Biso   1.000  H
  C26      1.0000 0.42100  0.51390  0.60467  Biso   1.000  C
  H34      1.0000 0.38290  0.46030  0.56197  Biso   1.000  H
  H35      1.0000 0.50270  0.53180  0.60867  Biso   1.000  H
  H36      1.0000 0.41940  0.58680  0.59627  Biso   1.000  H
  C27      1.0000 0.46830  0.67770  0.73257  Biso   1.000  C
  H37      1.0000 0.50130  0.72360  0.77907  Biso   1.000  H
  H38      1.0000 0.40720  0.69240  0.71257  Biso   1.000  H
  H39      1.0000 0.53070  0.70100  0.69467  Biso   1.000  H
  C28      1.0000 0.31990  0.50670  0.81607  Biso   1.000  C
  H40      1.0000 0.28350  0.42300  0.82857  Biso   1.000  H
  H41      1.0000 0.25920  0.52430  0.79937  Biso   1.000  H
  H42      1.0000 0.35940  0.55360  0.86117  Biso   1.000  H
  C29      1.0000 0.22490  0.42540  0.66797  Biso   1.000  C
  C30      1.0000 0.55850  0.55400  0.85597  Biso   1.000  C
  O13      1.0000 0.81950  0.68080  0.98950  Biso   1.000  O
  O14      1.0000 0.69640  0.49230  0.01510  Biso   1.000  O
  O15      1.0000 0.98370  0.34020  0.80050  Biso   1.000  O
  O16      1.0000 0.02400  0.51350  0.75440  Biso   1.000  O
  C31      1.0000 0.89960  0.54460  0.98760  Biso   1.000  C
  C32      1.0000 0.87380  0.46310  0.91490  Biso   1.000  C
  C33      1.0000 0.00130  0.48870  0.89350  Biso   1.000  C
  H43      1.0000 0.02690  0.44800  0.93040  Biso   1.000  H
  C34      1.0000 0.07860  0.62540  0.90420  Biso   1.000  C
  H44      1.0000 0.16020  0.64760  0.91800  Biso   1.000  H
  H45      1.0000 0.08030  0.66690  0.85680  Biso   1.000  H
  C35      1.0000 0.02160  0.65510  0.96660  Biso   1.000  C
  H46      1.0000 0.00950  0.72050  0.95040  Biso   1.000  H
  H47      1.0000 0.07340  0.68120  0.01180  Biso   1.000  H
  C36      1.0000 0.90710  0.48610  0.06200  Biso   1.000  C
  H48      1.0000 0.92260  0.53970  0.10470  Biso   1.000  H
  H49      1.0000 0.97090  0.46820  0.05800  Biso   1.000  H
  H50      1.0000 0.83260  0.41320  0.07040  Biso   1.000  H
  C37      1.0000 0.79060  0.32230  0.93410  Biso   1.000  C
  H51      1.0000 0.77770  0.27640  0.88760  Biso   1.000  H
  H52      1.0000 0.71480  0.30760  0.95410  Biso   1.000  H
  H53      1.0000 0.82970  0.29900  0.97200  Biso   1.000  H
  C38      1.0000 0.81320  0.49330  0.85060  Biso   1.000  C
  H54      1.0000 0.86050  0.57700  0.83810  Biso   1.000  H
  H55      1.0000 0.73490  0.47570  0.86730  Biso   1.000  H
  H56      1.0000 0.80580  0.44640  0.80550  Biso   1.000  H
  C39      1.0000 0.79950  0.57460  0.99870  Biso   1.000  C
  C40      1.0000 0.00450  0.44600  0.81070  Biso   1.000  C
  O17      1.0000 0.86130  0.18050  0.65617  Biso   1.000  O
  O18      1.0000 0.79590  0.30360  0.68177  Biso   1.000  O
  O19      1.0000 0.35650  0.01630  0.46717  Biso   1.000  O
  O20      1.0000 0.48950  0.97600  0.42107  Biso   1.000  O
  C41      1.0000 0.64500  0.10040  0.65427  Biso   1.000  C
  C42      1.0000 0.58930  0.12620  0.58157  Biso   1.000  C
  C43      1.0000 0.48740  0.99870  0.56017  Biso   1.000  C
  H57      1.0000 0.42110  0.97310  0.59707  Biso   1.000  H
  C44      1.0000 0.54680  0.92140  0.57087  Biso   1.000  C
  H58      1.0000 0.48740  0.83980  0.58467  Biso   1.000  H
  H59      1.0000 0.58660  0.91970  0.52347  Biso   1.000  H
  C45      1.0000 0.63350  0.97840  0.63327  Biso   1.000  C
  H60      1.0000 0.71100  0.99050  0.61707  Biso   1.000  H
  H61      1.0000 0.60780  0.92660  0.67847  Biso   1.000  H
  C46      1.0000 0.57900  0.09290  0.72867  Biso   1.000  C
  H62      1.0000 0.61710  0.07740  0.77137  Biso   1.000  H
  H63      1.0000 0.49730  0.02910  0.72467  Biso   1.000  H
  H64      1.0000 0.58060  0.16740  0.73707  Biso   1.000  H
  C47      1.0000 0.53170  0.20940  0.60077  Biso   1.000  C
  H65      1.0000 0.49870  0.22230  0.55427  Biso   1.000  H
  H66      1.0000 0.59280  0.28520  0.62077  Biso   1.000  H
  H67      1.0000 0.46930  0.17030  0.63867  Biso   1.000  H
  C48      1.0000 0.68010  0.18680  0.51727  Biso   1.000  C
  H68      1.0000 0.71650  0.13950  0.50477  Biso   1.000  H
  H69      1.0000 0.74080  0.26510  0.53397  Biso   1.000  H
  H70      1.0000 0.64060  0.19420  0.47217  Biso   1.000  H
  C49      1.0000 0.77510  0.20050  0.66537  Biso   1.000  C
  C50      1.0000 0.44150  0.99550  0.47737  Biso   1.000  C
  O21      1.0000 0.31920  0.13870  0.32283  Biso   1.000  O
  O22      1.0000 0.50770  0.20410  0.34843  Biso   1.000  O
  O23      1.0000 0.65980  0.64350  0.13383  Biso   1.000  O
  O24      1.0000 0.48650  0.51050  0.08773  Biso   1.000  O
  C51      1.0000 0.45540  0.35500  0.32093  Biso   1.000  C
  C52      1.0000 0.53690  0.41070  0.24823  Biso   1.000  C
  C53      1.0000 0.51130  0.51260  0.22683  Biso   1.000  C
  H71      1.0000 0.55200  0.57890  0.26373  Biso   1.000  H
  C54      1.0000 0.37460  0.45320  0.23753  Biso   1.000  C
  H72      1.0000 0.35240  0.51260  0.25133  Biso   1.000  H
  H73      1.0000 0.33310  0.41340  0.19013  Biso   1.000  H
  C55      1.0000 0.34490  0.36650  0.29993  Biso   1.000  C
  H74      1.0000 0.27950  0.28900  0.28373  Biso   1.000  H
  H75      1.0000 0.31880  0.39220  0.34513  Biso   1.000  H
  C56      1.0000 0.51390  0.42100  0.39533  Biso   1.000  C
  H76      1.0000 0.46030  0.38290  0.43803  Biso   1.000  H
  H77      1.0000 0.53180  0.50270  0.39133  Biso   1.000  H
  H78      1.0000 0.58680  0.41940  0.40373  Biso   1.000  H
  C57      1.0000 0.67770  0.46830  0.26743  Biso   1.000  C
  H79      1.0000 0.72360  0.50130  0.22093  Biso   1.000  H
  H80      1.0000 0.69240  0.40720  0.28743  Biso   1.000  H
  H81      1.0000 0.70100  0.53070  0.30533  Biso   1.000  H
  C58      1.0000 0.50670  0.31990  0.18393  Biso   1.000  C
  H82      1.0000 0.42300  0.28350  0.17143  Biso   1.000  H
  H83      1.0000 0.52430  0.25920  0.20063  Biso   1.000  H
  H84      1.0000 0.55360  0.35940  0.13883  Biso   1.000  H
  C59      1.0000 0.42540  0.22490  0.33203  Biso   1.000  C
  C60      1.0000 0.55400  0.55850  0.14403  Biso   1.000  C
  In1      1.0000 0.62470  0.62470  0.00000  Biso   1.000  In
  In2      1.0000 0.37530  0.00000  0.33333  Biso   1.000  In
  In3      1.0000 0.00000  0.37530  0.66667  Biso   1.000  In
