data_image0
_cell_length_a       12.2234
_cell_length_b       18.184
_cell_length_c       18.256
_cell_angle_alpha    103.438
_cell_angle_beta     90
_cell_angle_gamma    90

_symmetry_space_group_name_H-M    P 1
_symmetry_int_tables_number       1

loop_
  _symmetry_equiv_pos_as_xyz
  'x, y, z'

loop_
  _atom_site_label
  _atom_site_occupancy
  _atom_site_fract_x
  _atom_site_fract_y
  _atom_site_fract_z
  _atom_site_thermal_displace_type
  _atom_site_B_iso_or_equiv
  _atom_site_type_symbol
  K1       1.0000 0.46728  0.70217  0.86013  Biso   1.000  K
  K2       1.0000 0.94643  0.89868  0.47635  Biso   1.000  K
  K3       1.0000 0.96728  0.29783  0.63987  Biso   1.000  K
  K4       1.0000 0.44643  0.10132  0.02365  Biso   1.000  K
  K5       1.0000 0.53272  0.29783  0.13987  Biso   1.000  K
  K6       1.0000 0.05357  0.10132  0.52365  Biso   1.000  K
  K7       1.0000 0.03272  0.70217  0.36013  Biso   1.000  K
  K8       1.0000 0.55357  0.89868  0.97635  Biso   1.000  K
  Fe1      1.0000 0.91637  0.73345  0.56467  Biso   1.000  Fe
  Fe2      1.0000 0.41637  0.26655  0.93533  Biso   1.000  Fe
  Fe3      1.0000 0.08363  0.26655  0.43533  Biso   1.000  Fe
  Fe4      1.0000 0.58363  0.73345  0.06467  Biso   1.000  Fe
  H1       1.0000 0.82150  0.76440  0.76360  Biso   1.000  H
  H2       1.0000 0.08330  0.70160  0.72530  Biso   1.000  H
  H3       1.0000 0.86470  0.58740  0.67230  Biso   1.000  H
  H4       1.0000 0.96030  0.76450  0.86920  Biso   1.000  H
  H5       1.0000 0.91890  0.71180  0.92230  Biso   1.000  H
  H6       1.0000 0.73940  0.71630  0.87750  Biso   1.000  H
  H7       1.0000 0.78360  0.80000  0.91250  Biso   1.000  H
  H8       1.0000 0.52530  0.88790  0.73850  Biso   1.000  H
  H9       1.0000 0.50830  0.92560  0.62700  Biso   1.000  H
  H10      1.0000 0.63900  0.88920  0.53010  Biso   1.000  H
  H11      1.0000 0.05800  0.58200  0.78640  Biso   1.000  H
  H12      1.0000 0.04370  0.61400  0.87510  Biso   1.000  H
  H13      1.0000 0.12470  0.72930  0.86660  Biso   1.000  H
  H14      1.0000 0.20620  0.66030  0.83520  Biso   1.000  H
  H15      1.0000 0.39620  0.77470  0.65260  Biso   1.000  H
  H16      1.0000 0.39590  0.81210  0.53990  Biso   1.000  H
  H17      1.0000 0.23400  0.81380  0.47220  Biso   1.000  H
  H18      1.0000 0.77810  0.61860  0.80730  Biso   1.000  H
  H19      1.0000 0.85270  0.58420  0.86310  Biso   1.000  H
  H20      1.0000 0.93790  0.50290  0.75980  Biso   1.000  H
  H21      1.0000 0.80840  0.48930  0.75730  Biso   1.000  H
  H22      1.0000 0.84550  0.39140  0.48290  Biso   1.000  H
  H23      1.0000 0.85670  0.41560  0.36230  Biso   1.000  H
  H24      1.0000 0.88140  0.53670  0.34780  Biso   1.000  H
  H25      1.0000 0.67620  0.65430  0.68320  Biso   1.000  H
  H26      1.0000 0.44130  0.53600  0.59250  Biso   1.000  H
  H27      1.0000 0.40670  0.59680  0.66720  Biso   1.000  H
  H28      1.0000 0.38990  0.61530  0.58630  Biso   1.000  H
  H29      1.0000 0.66120  0.66650  0.56510  Biso   1.000  H
  H30      1.0000 0.58710  0.60340  0.51190  Biso   1.000  H
  H31      1.0000 0.53900  0.68640  0.54490  Biso   1.000  H
  H32      1.0000 0.32150  0.23560  0.73640  Biso   1.000  H
  H33      1.0000 0.58330  0.29840  0.77470  Biso   1.000  H
  H34      1.0000 0.36470  0.41260  0.82770  Biso   1.000  H
  H35      1.0000 0.46030  0.23550  0.63080  Biso   1.000  H
  H36      1.0000 0.41890  0.28820  0.57770  Biso   1.000  H
  H37      1.0000 0.23940  0.28370  0.62250  Biso   1.000  H
  H38      1.0000 0.28360  0.20000  0.58750  Biso   1.000  H
  H39      1.0000 0.02530  0.11210  0.76150  Biso   1.000  H
  H40      1.0000 0.00830  0.07440  0.87300  Biso   1.000  H
  H41      1.0000 0.13900  0.11080  0.96990  Biso   1.000  H
  H42      1.0000 0.55800  0.41800  0.71360  Biso   1.000  H
  H43      1.0000 0.54370  0.38600  0.62490  Biso   1.000  H
  H44      1.0000 0.62470  0.27070  0.63340  Biso   1.000  H
  H45      1.0000 0.70620  0.33970  0.66480  Biso   1.000  H
  H46      1.0000 0.89620  0.22530  0.84740  Biso   1.000  H
  H47      1.0000 0.89590  0.18790  0.96010  Biso   1.000  H
  H48      1.0000 0.73400  0.18620  0.02780  Biso   1.000  H
  H49      1.0000 0.27810  0.38140  0.69270  Biso   1.000  H
  H50      1.0000 0.35270  0.41580  0.63690  Biso   1.000  H
  H51      1.0000 0.43790  0.49710  0.74020  Biso   1.000  H
  H52      1.0000 0.30840  0.51070  0.74270  Biso   1.000  H
  H53      1.0000 0.34550  0.60860  0.01710  Biso   1.000  H
  H54      1.0000 0.35670  0.58440  0.13770  Biso   1.000  H
  H55      1.0000 0.38140  0.46330  0.15220  Biso   1.000  H
  H56      1.0000 0.17620  0.34570  0.81680  Biso   1.000  H
  H57      1.0000 0.94130  0.46400  0.90750  Biso   1.000  H
  H58      1.0000 0.90670  0.40320  0.83280  Biso   1.000  H
  H59      1.0000 0.88990  0.38470  0.91370  Biso   1.000  H
  H60      1.0000 0.16120  0.33350  0.93490  Biso   1.000  H
  H61      1.0000 0.08710  0.39660  0.98810  Biso   1.000  H
  H62      1.0000 0.03900  0.31360  0.95510  Biso   1.000  H
  H63      1.0000 0.17850  0.23560  0.23640  Biso   1.000  H
  H64      1.0000 0.91670  0.29840  0.27470  Biso   1.000  H
  H65      1.0000 0.13530  0.41260  0.32770  Biso   1.000  H
  H66      1.0000 0.03970  0.23550  0.13080  Biso   1.000  H
  H67      1.0000 0.08110  0.28820  0.07770  Biso   1.000  H
  H68      1.0000 0.26060  0.28370  0.12250  Biso   1.000  H
  H69      1.0000 0.21640  0.20000  0.08750  Biso   1.000  H
  H70      1.0000 0.47470  0.11210  0.26150  Biso   1.000  H
  H71      1.0000 0.49170  0.07440  0.37300  Biso   1.000  H
  H72      1.0000 0.36100  0.11080  0.46990  Biso   1.000  H
  H73      1.0000 0.94200  0.41800  0.21360  Biso   1.000  H
  H74      1.0000 0.95630  0.38600  0.12490  Biso   1.000  H
  H75      1.0000 0.87530  0.27070  0.13340  Biso   1.000  H
  H76      1.0000 0.79380  0.33970  0.16480  Biso   1.000  H
  H77      1.0000 0.60380  0.22530  0.34740  Biso   1.000  H
  H78      1.0000 0.60410  0.18790  0.46010  Biso   1.000  H
  H79      1.0000 0.76600  0.18620  0.52780  Biso   1.000  H
  H80      1.0000 0.22190  0.38140  0.19270  Biso   1.000  H
  H81      1.0000 0.14730  0.41580  0.13690  Biso   1.000  H
  H82      1.0000 0.06210  0.49710  0.24020  Biso   1.000  H
  H83      1.0000 0.19160  0.51070  0.24270  Biso   1.000  H
  H84      1.0000 0.15450  0.60860  0.51710  Biso   1.000  H
  H85      1.0000 0.14330  0.58440  0.63770  Biso   1.000  H
  H86      1.0000 0.11860  0.46330  0.65220  Biso   1.000  H
  H87      1.0000 0.32380  0.34570  0.31680  Biso   1.000  H
  H88      1.0000 0.55870  0.46400  0.40750  Biso   1.000  H
  H89      1.0000 0.59330  0.40320  0.33280  Biso   1.000  H
  H90      1.0000 0.61010  0.38470  0.41370  Biso   1.000  H
  H91      1.0000 0.33880  0.33350  0.43490  Biso   1.000  H
  H92      1.0000 0.41290  0.39660  0.48810  Biso   1.000  H
  H93      1.0000 0.46100  0.31360  0.45510  Biso   1.000  H
  H94      1.0000 0.67850  0.76440  0.26360  Biso   1.000  H
  H95      1.0000 0.41670  0.70160  0.22530  Biso   1.000  H
  H96      1.0000 0.63530  0.58740  0.17230  Biso   1.000  H
  H97      1.0000 0.53970  0.76450  0.36920  Biso   1.000  H
  H98      1.0000 0.58110  0.71180  0.42230  Biso   1.000  H
  H99      1.0000 0.76060  0.71630  0.37750  Biso   1.000  H
  H100     1.0000 0.71640  0.80000  0.41250  Biso   1.000  H
  H101     1.0000 0.97470  0.88790  0.23850  Biso   1.000  H
  H102     1.0000 0.99170  0.92560  0.12700  Biso   1.000  H
  H103     1.0000 0.86100  0.88920  0.03010  Biso   1.000  H
  H104     1.0000 0.44200  0.58200  0.28640  Biso   1.000  H
  H105     1.0000 0.45630  0.61400  0.37510  Biso   1.000  H
  H106     1.0000 0.37530  0.72930  0.36660  Biso   1.000  H
  H107     1.0000 0.29380  0.66030  0.33520  Biso   1.000  H
  H108     1.0000 0.10380  0.77470  0.15260  Biso   1.000  H
  H109     1.0000 0.10410  0.81210  0.03990  Biso   1.000  H
  H110     1.0000 0.26600  0.81380  0.97220  Biso   1.000  H
  H111     1.0000 0.72190  0.61860  0.30730  Biso   1.000  H
  H112     1.0000 0.64730  0.58420  0.36310  Biso   1.000  H
  H113     1.0000 0.56210  0.50290  0.25980  Biso   1.000  H
  H114     1.0000 0.69160  0.48930  0.25730  Biso   1.000  H
  H115     1.0000 0.65450  0.39140  0.98290  Biso   1.000  H
  H116     1.0000 0.64330  0.41560  0.86230  Biso   1.000  H
  H117     1.0000 0.61860  0.53670  0.84780  Biso   1.000  H
  H118     1.0000 0.82380  0.65430  0.18320  Biso   1.000  H
  H119     1.0000 0.05870  0.53600  0.09250  Biso   1.000  H
  H120     1.0000 0.09330  0.59680  0.16720  Biso   1.000  H
  H121     1.0000 0.11010  0.61530  0.08630  Biso   1.000  H
  H122     1.0000 0.83880  0.66650  0.06510  Biso   1.000  H
  H123     1.0000 0.91290  0.60340  0.01190  Biso   1.000  H
  H124     1.0000 0.96100  0.68640  0.04490  Biso   1.000  H
  C1       1.0000 0.90780  0.72410  0.87270  Biso   1.000  C
  C2       1.0000 0.79310  0.75490  0.87060  Biso   1.000  C
  C3       1.0000 0.67920  0.81030  0.78720  Biso   1.000  C
  C4       1.0000 0.67000  0.83120  0.71450  Biso   1.000  C
  C5       1.0000 0.58000  0.87390  0.70090  Biso   1.000  C
  C6       1.0000 0.56930  0.89570  0.63430  Biso   1.000  C
  C7       1.0000 0.64760  0.87440  0.57640  Biso   1.000  C
  C8       1.0000 0.73590  0.83230  0.58780  Biso   1.000  C
  C9       1.0000 0.74870  0.81120  0.65720  Biso   1.000  C
  C10      1.0000 0.04360  0.62830  0.82600  Biso   1.000  C
  C11      1.0000 0.13620  0.68370  0.82560  Biso   1.000  C
  C12      1.0000 0.23530  0.73130  0.72890  Biso   1.000  C
  C13      1.0000 0.23270  0.75170  0.65480  Biso   1.000  C
  C14      1.0000 0.32960  0.77460  0.62580  Biso   1.000  C
  C15      1.0000 0.32930  0.79700  0.55880  Biso   1.000  C
  C16      1.0000 0.23280  0.79780  0.51820  Biso   1.000  C
  C17      1.0000 0.13580  0.77560  0.54490  Biso   1.000  C
  C18      1.0000 0.13590  0.75030  0.61320  Biso   1.000  C
  C19      1.0000 0.85130  0.59740  0.81340  Biso   1.000  C
  C20      1.0000 0.86650  0.52590  0.75270  Biso   1.000  C
  C21      1.0000 0.85650  0.50070  0.54020  Biso   1.000  C
  C22      1.0000 0.85310  0.44190  0.47750  Biso   1.000  C
  C23      1.0000 0.86090  0.45630  0.40550  Biso   1.000  C
  C24      1.0000 0.87430  0.52790  0.39680  Biso   1.000  C
  C25      1.0000 0.85490  0.48370  0.61740  Biso   1.000  C
  C26      1.0000 0.60600  0.63190  0.68330  Biso   1.000  C
  C27      1.0000 0.43710  0.59000  0.61640  Biso   1.000  C
  C28      1.0000 0.58670  0.64670  0.55540  Biso   1.000  C
  C29      1.0000 0.87760  0.58900  0.46030  Biso   1.000  C
  C30      1.0000 0.40780  0.27590  0.62730  Biso   1.000  C
  C31      1.0000 0.29310  0.24510  0.62940  Biso   1.000  C
  C32      1.0000 0.17920  0.18970  0.71280  Biso   1.000  C
  C33      1.0000 0.17000  0.16880  0.78550  Biso   1.000  C
  C34      1.0000 0.08000  0.12610  0.79910  Biso   1.000  C
  C35      1.0000 0.06930  0.10430  0.86570  Biso   1.000  C
  C36      1.0000 0.14760  0.12560  0.92360  Biso   1.000  C
  C37      1.0000 0.23590  0.16770  0.91220  Biso   1.000  C
  C38      1.0000 0.24870  0.18880  0.84280  Biso   1.000  C
  C39      1.0000 0.54360  0.37170  0.67400  Biso   1.000  C
  C40      1.0000 0.63620  0.31630  0.67440  Biso   1.000  C
  C41      1.0000 0.73530  0.26870  0.77110  Biso   1.000  C
  C42      1.0000 0.73270  0.24830  0.84520  Biso   1.000  C
  C43      1.0000 0.82960  0.22540  0.87420  Biso   1.000  C
  C44      1.0000 0.82930  0.20300  0.94120  Biso   1.000  C
  C45      1.0000 0.73280  0.20220  0.98180  Biso   1.000  C
  C46      1.0000 0.63580  0.22440  0.95510  Biso   1.000  C
  C47      1.0000 0.63590  0.24970  0.88680  Biso   1.000  C
  C48      1.0000 0.35130  0.40260  0.68660  Biso   1.000  C
  C49      1.0000 0.36650  0.47410  0.74730  Biso   1.000  C
  C50      1.0000 0.35650  0.49930  0.95980  Biso   1.000  C
  C51      1.0000 0.35310  0.55810  0.02250  Biso   1.000  C
  C52      1.0000 0.36090  0.54370  0.09450  Biso   1.000  C
  C53      1.0000 0.37430  0.47210  0.10320  Biso   1.000  C
  C54      1.0000 0.35490  0.51630  0.88260  Biso   1.000  C
  C55      1.0000 0.10600  0.36810  0.81670  Biso   1.000  C
  C56      1.0000 0.93710  0.41000  0.88360  Biso   1.000  C
  C57      1.0000 0.08670  0.35330  0.94460  Biso   1.000  C
  C58      1.0000 0.37760  0.41100  0.03970  Biso   1.000  C
  C59      1.0000 0.09220  0.27590  0.12730  Biso   1.000  C
  C60      1.0000 0.20690  0.24510  0.12940  Biso   1.000  C
  C61      1.0000 0.32080  0.18970  0.21280  Biso   1.000  C
  C62      1.0000 0.33000  0.16880  0.28550  Biso   1.000  C
  C63      1.0000 0.42000  0.12610  0.29910  Biso   1.000  C
  C64      1.0000 0.43070  0.10430  0.36570  Biso   1.000  C
  C65      1.0000 0.35240  0.12560  0.42360  Biso   1.000  C
  C66      1.0000 0.26410  0.16770  0.41220  Biso   1.000  C
  C67      1.0000 0.25130  0.18880  0.34280  Biso   1.000  C
  C68      1.0000 0.95640  0.37170  0.17400  Biso   1.000  C
  C69      1.0000 0.86380  0.31630  0.17440  Biso   1.000  C
  C70      1.0000 0.76470  0.26870  0.27110  Biso   1.000  C
  C71      1.0000 0.76730  0.24830  0.34520  Biso   1.000  C
  C72      1.0000 0.67040  0.22540  0.37420  Biso   1.000  C
  C73      1.0000 0.67070  0.20300  0.44120  Biso   1.000  C
  C74      1.0000 0.76720  0.20220  0.48180  Biso   1.000  C
  C75      1.0000 0.86420  0.22440  0.45510  Biso   1.000  C
  C76      1.0000 0.86410  0.24970  0.38680  Biso   1.000  C
  C77      1.0000 0.14870  0.40260  0.18660  Biso   1.000  C
  C78      1.0000 0.13350  0.47410  0.24730  Biso   1.000  C
  C79      1.0000 0.14350  0.49930  0.45980  Biso   1.000  C
  C80      1.0000 0.14690  0.55810  0.52250  Biso   1.000  C
  C81      1.0000 0.13910  0.54370  0.59450  Biso   1.000  C
  C82      1.0000 0.12570  0.47210  0.60320  Biso   1.000  C
  C83      1.0000 0.14510  0.51630  0.38260  Biso   1.000  C
  C84      1.0000 0.39400  0.36810  0.31670  Biso   1.000  C
  C85      1.0000 0.56290  0.41000  0.38360  Biso   1.000  C
  C86      1.0000 0.41330  0.35330  0.44460  Biso   1.000  C
  C87      1.0000 0.12240  0.41100  0.53970  Biso   1.000  C
  C88      1.0000 0.59220  0.72410  0.37270  Biso   1.000  C
  C89      1.0000 0.70690  0.75490  0.37060  Biso   1.000  C
  C90      1.0000 0.82080  0.81030  0.28720  Biso   1.000  C
  C91      1.0000 0.83000  0.83120  0.21450  Biso   1.000  C
  C92      1.0000 0.92000  0.87390  0.20090  Biso   1.000  C
  C93      1.0000 0.93070  0.89570  0.13430  Biso   1.000  C
  C94      1.0000 0.85240  0.87440  0.07640  Biso   1.000  C
  C95      1.0000 0.76410  0.83230  0.08780  Biso   1.000  C
  C96      1.0000 0.75130  0.81120  0.15720  Biso   1.000  C
  C97      1.0000 0.45640  0.62830  0.32600  Biso   1.000  C
  C98      1.0000 0.36380  0.68370  0.32560  Biso   1.000  C
  C99      1.0000 0.26470  0.73130  0.22890  Biso   1.000  C
  C100     1.0000 0.26730  0.75170  0.15480  Biso   1.000  C
  C101     1.0000 0.17040  0.77460  0.12580  Biso   1.000  C
  C102     1.0000 0.17070  0.79700  0.05880  Biso   1.000  C
  C103     1.0000 0.26720  0.79780  0.01820  Biso   1.000  C
  C104     1.0000 0.36420  0.77560  0.04490  Biso   1.000  C
  C105     1.0000 0.36410  0.75030  0.11320  Biso   1.000  C
  C106     1.0000 0.64870  0.59740  0.31340  Biso   1.000  C
  C107     1.0000 0.63350  0.52590  0.25270  Biso   1.000  C
  C108     1.0000 0.64350  0.50070  0.04020  Biso   1.000  C
  C109     1.0000 0.64690  0.44190  0.97750  Biso   1.000  C
  C110     1.0000 0.63910  0.45630  0.90550  Biso   1.000  C
  C111     1.0000 0.62570  0.52790  0.89680  Biso   1.000  C
  C112     1.0000 0.64510  0.48370  0.11740  Biso   1.000  C
  C113     1.0000 0.89400  0.63190  0.18330  Biso   1.000  C
  C114     1.0000 0.06290  0.59000  0.11640  Biso   1.000  C
  C115     1.0000 0.91330  0.64670  0.05540  Biso   1.000  C
  C116     1.0000 0.62240  0.58900  0.96030  Biso   1.000  C
  N1       1.0000 0.93430  0.65650  0.81340  Biso   1.000  N
  N2       1.0000 0.77210  0.77520  0.79960  Biso   1.000  N
  N3       1.0000 0.14230  0.70550  0.75360  Biso   1.000  N
  N4       1.0000 0.86230  0.54060  0.67760  Biso   1.000  N
  N5       1.0000 0.86500  0.57230  0.52980  Biso   1.000  N
  N6       1.0000 0.54640  0.62290  0.62100  Biso   1.000  N
  N7       1.0000 0.43430  0.34350  0.68660  Biso   1.000  N
  N8       1.0000 0.27210  0.22480  0.70040  Biso   1.000  N
  N9       1.0000 0.64230  0.29450  0.74640  Biso   1.000  N
  N10      1.0000 0.36230  0.45940  0.82240  Biso   1.000  N
  N11      1.0000 0.36500  0.42770  0.97020  Biso   1.000  N
  N12      1.0000 0.04640  0.37710  0.87900  Biso   1.000  N
  N13      1.0000 0.06570  0.34350  0.18660  Biso   1.000  N
  N14      1.0000 0.22790  0.22480  0.20040  Biso   1.000  N
  N15      1.0000 0.85770  0.29450  0.24640  Biso   1.000  N
  N16      1.0000 0.13770  0.45940  0.32240  Biso   1.000  N
  N17      1.0000 0.13500  0.42770  0.47020  Biso   1.000  N
  N18      1.0000 0.45360  0.37710  0.37900  Biso   1.000  N
  N19      1.0000 0.56570  0.65650  0.31340  Biso   1.000  N
  N20      1.0000 0.72790  0.77520  0.29960  Biso   1.000  N
  N21      1.0000 0.35770  0.70550  0.25360  Biso   1.000  N
  N22      1.0000 0.63770  0.54060  0.17760  Biso   1.000  N
  N23      1.0000 0.63500  0.57230  0.02980  Biso   1.000  N
  N24      1.0000 0.95360  0.62290  0.12100  Biso   1.000  N
  O1       1.0000 0.83830  0.77190  0.66280  Biso   1.000  O
  O2       1.0000 0.81450  0.80710  0.53660  Biso   1.000  O
  O3       1.0000 0.60670  0.82410  0.83670  Biso   1.000  O
  O4       1.0000 0.04040  0.72530  0.63270  Biso   1.000  O
  O5       1.0000 0.03750  0.77530  0.51190  Biso   1.000  O
  O6       1.0000 0.32040  0.73730  0.76740  Biso   1.000  O
  O7       1.0000 0.86320  0.63350  0.58780  Biso   1.000  O
  O8       1.0000 0.89220  0.65860  0.46030  Biso   1.000  O
  O9       1.0000 0.12000  0.87520  0.35850  Biso   1.000  O
  O10      1.0000 0.84900  0.41720  0.62100  Biso   1.000  O
  O11      1.0000 0.57700  0.61340  0.74160  Biso   1.000  O
  O12      1.0000 0.08340  0.97690  0.57980  Biso   1.000  O
  O13      1.0000 0.82750  0.01960  0.52350  Biso   1.000  O
  O14      1.0000 0.33830  0.22810  0.83720  Biso   1.000  O
  O15      1.0000 0.31450  0.19290  0.96340  Biso   1.000  O
  O16      1.0000 0.10670  0.17590  0.66330  Biso   1.000  O
  O17      1.0000 0.54040  0.27470  0.86730  Biso   1.000  O
  O18      1.0000 0.53750  0.22470  0.98810  Biso   1.000  O
  O19      1.0000 0.82040  0.26270  0.73260  Biso   1.000  O
  O20      1.0000 0.36320  0.36650  0.91220  Biso   1.000  O
  O21      1.0000 0.39220  0.34140  0.03970  Biso   1.000  O
  O22      1.0000 0.62000  0.12480  0.14150  Biso   1.000  O
  O23      1.0000 0.34900  0.58280  0.87900  Biso   1.000  O
  O24      1.0000 0.07700  0.38660  0.75840  Biso   1.000  O
  O25      1.0000 0.58340  0.02310  0.92020  Biso   1.000  O
  O26      1.0000 0.32750  0.98040  0.97650  Biso   1.000  O
  O27      1.0000 0.16170  0.22810  0.33720  Biso   1.000  O
  O28      1.0000 0.18550  0.19290  0.46340  Biso   1.000  O
  O29      1.0000 0.39330  0.17590  0.16330  Biso   1.000  O
  O30      1.0000 0.95960  0.27470  0.36730  Biso   1.000  O
  O31      1.0000 0.96250  0.22470  0.48810  Biso   1.000  O
  O32      1.0000 0.67960  0.26270  0.23260  Biso   1.000  O
  O33      1.0000 0.13680  0.36650  0.41220  Biso   1.000  O
  O34      1.0000 0.10780  0.34140  0.53970  Biso   1.000  O
  O35      1.0000 0.88000  0.12480  0.64150  Biso   1.000  O
  O36      1.0000 0.15100  0.58280  0.37900  Biso   1.000  O
  O37      1.0000 0.42300  0.38660  0.25840  Biso   1.000  O
  O38      1.0000 0.91660  0.02310  0.42020  Biso   1.000  O
  O39      1.0000 0.17250  0.98040  0.47650  Biso   1.000  O
  O40      1.0000 0.66170  0.77190  0.16280  Biso   1.000  O
  O41      1.0000 0.68550  0.80710  0.03660  Biso   1.000  O
  O42      1.0000 0.89330  0.82410  0.33670  Biso   1.000  O
  O43      1.0000 0.45960  0.72530  0.13270  Biso   1.000  O
  O44      1.0000 0.46250  0.77530  0.01190  Biso   1.000  O
  O45      1.0000 0.17960  0.73730  0.26740  Biso   1.000  O
  O46      1.0000 0.63680  0.63350  0.08780  Biso   1.000  O
  O47      1.0000 0.60780  0.65860  0.96030  Biso   1.000  O
  O48      1.0000 0.38000  0.87520  0.85850  Biso   1.000  O
  O49      1.0000 0.65100  0.41720  0.12100  Biso   1.000  O
  O50      1.0000 0.92300  0.61340  0.24160  Biso   1.000  O
  O51      1.0000 0.41660  0.97690  0.07980  Biso   1.000  O
  O52      1.0000 0.67250  0.01960  0.02350  Biso   1.000  O
