data_image0
_cell_length_a       6.8419
_cell_length_b       12.0877
_cell_length_c       14.207
_cell_angle_alpha    90
_cell_angle_beta     122.547
_cell_angle_gamma    90

_symmetry_space_group_name_H-M    "P 1"
_symmetry_int_tables_number       1

loop_
  _symmetry_equiv_pos_as_xyz
  'x, y, z'

loop_
  _atom_site_label
  _atom_site_occupancy
  _atom_site_fract_x
  _atom_site_fract_y
  _atom_site_fract_z
  _atom_site_thermal_displace_type
  _atom_site_B_iso_or_equiv
  _atom_site_type_symbol
  O1       1.0000 0.24705  0.40015  0.11591  Biso   1.000  O
  O2       1.0000 0.53844  0.36877  0.08438  Biso   1.000  O
  O3       1.0000 0.45060  0.09330  0.37967  Biso   1.000  O
  O4       1.0000 0.78276  0.11334  0.39942  Biso   1.000  O
  C1       1.0000 0.42977  0.34699  0.13382  Biso   1.000  C
  C2       1.0000 0.55444  0.26496  0.22203  Biso   1.000  C
  C3       1.0000 0.45578  0.22792  0.27381  Biso   1.000  C
  C4       1.0000 0.57869  0.14099  0.36040  Biso   1.000  C
  H1       1.0000 0.72968  0.23217  0.24306  Biso   1.000  H
  H2       1.0000 0.27772  0.25787  0.25162  Biso   1.000  H
  O5       1.0000 0.81988  0.48269  0.05985  Biso   1.000  O
  H3       1.0000 0.92295  0.52558  0.13066  Biso   1.000  H
  O6       1.0000 0.75295  0.90015  0.38409  Biso   1.000  O
  O7       1.0000 0.46156  0.86877  0.41562  Biso   1.000  O
  O8       1.0000 0.54940  0.59330  0.12033  Biso   1.000  O
  O9       1.0000 0.21724  0.61334  0.10058  Biso   1.000  O
  C5       1.0000 0.57023  0.84699  0.36618  Biso   1.000  C
  C6       1.0000 0.44556  0.76496  0.27797  Biso   1.000  C
  C7       1.0000 0.54422  0.72792  0.22619  Biso   1.000  C
  C8       1.0000 0.42131  0.64099  0.13960  Biso   1.000  C
  H4       1.0000 0.27032  0.73217  0.25694  Biso   1.000  H
  H5       1.0000 0.72228  0.75787  0.24838  Biso   1.000  H
  O10      1.0000 0.18012  0.98269  0.44015  Biso   1.000  O
  H6       1.0000 0.07705  0.02558  0.36934  Biso   1.000  H
  O11      1.0000 0.75295  0.59985  0.88409  Biso   1.000  O
  O12      1.0000 0.46156  0.63123  0.91562  Biso   1.000  O
  O13      1.0000 0.54940  0.90670  0.62033  Biso   1.000  O
  O14      1.0000 0.21724  0.88666  0.60058  Biso   1.000  O
  C9       1.0000 0.57023  0.65301  0.86618  Biso   1.000  C
  C10      1.0000 0.44556  0.73504  0.77797  Biso   1.000  C
  C11      1.0000 0.54422  0.77208  0.72619  Biso   1.000  C
  C12      1.0000 0.42131  0.85901  0.63960  Biso   1.000  C
  H7       1.0000 0.27032  0.76783  0.75694  Biso   1.000  H
  H8       1.0000 0.72228  0.74213  0.74838  Biso   1.000  H
  O15      1.0000 0.18012  0.51731  0.94015  Biso   1.000  O
  H9       1.0000 0.07705  0.47442  0.86934  Biso   1.000  H
  O16      1.0000 0.24705  0.09985  0.61591  Biso   1.000  O
  O17      1.0000 0.53844  0.13123  0.58438  Biso   1.000  O
  O18      1.0000 0.45060  0.40670  0.87967  Biso   1.000  O
  O19      1.0000 0.78276  0.38666  0.89942  Biso   1.000  O
  C13      1.0000 0.42977  0.15301  0.63382  Biso   1.000  C
  C14      1.0000 0.55444  0.23504  0.72203  Biso   1.000  C
  C15      1.0000 0.45578  0.27208  0.77381  Biso   1.000  C
  C16      1.0000 0.57869  0.35901  0.86040  Biso   1.000  C
  H10      1.0000 0.72968  0.26783  0.74306  Biso   1.000  H
  H11      1.0000 0.27772  0.24213  0.75162  Biso   1.000  H
  O20      1.0000 0.81988  0.01731  0.55985  Biso   1.000  O
  H12      1.0000 0.92295  0.97442  0.63066  Biso   1.000  H
  Al1      1.0000 0.50000  0.50000  0.00000  Biso   1.000  Al
  Al2      1.0000 0.50000  0.00000  0.50000  Biso   1.000  Al
  Al3      1.0000 0.00000  0.50000  0.00000  Biso   1.000  Al
  Al4      1.0000 0.00000  0.00000  0.50000  Biso   1.000  Al
