data_image0
_cell_length_a       9.774
_cell_length_b       13.918
_cell_length_c       7.715
_cell_angle_alpha    90.41
_cell_angle_beta     90.43
_cell_angle_gamma    93.18

_symmetry_space_group_name_H-M    "P 1"
_symmetry_int_tables_number       1

loop_
  _symmetry_equiv_pos_as_xyz
  'x, y, z'

loop_
  _atom_site_label
  _atom_site_occupancy
  _atom_site_fract_x
  _atom_site_fract_y
  _atom_site_fract_z
  _atom_site_thermal_displace_type
  _atom_site_B_iso_or_equiv
  _atom_site_type_symbol
  Cd1      1.0000 0.09521  0.26437  0.50349  Biso   1.000  Cd
  C1       1.0000 0.02900  0.09230  0.17300  Biso   1.000  C
  C2       1.0000 0.07300  0.42590  0.17300  Biso   1.000  C
  C3       1.0000 0.08300  0.42860  0.83100  Biso   1.000  C
  C4       1.0000 0.04300  0.09150  0.83100  Biso   1.000  C
  C5       1.0000 0.41800  0.32040  0.51300  Biso   1.000  C
  C6       1.0000 0.56800  0.29900  0.49400  Biso   1.000  C
  C7       1.0000 0.66400  0.38560  0.52200  Biso   1.000  C
  C8       1.0000 0.81400  0.37100  0.48000  Biso   1.000  C
  N1       1.0000 0.04800  0.14790  0.27900  Biso   1.000  N
  N2       1.0000 0.11500  0.37990  0.28300  Biso   1.000  N
  N3       1.0000 0.13000  0.38400  0.72400  Biso   1.000  N
  N4       1.0000 0.06900  0.14720  0.72600  Biso   1.000  N
  N5       1.0000 0.32210  0.23860  0.48500  Biso   1.000  N
  N6       1.0000 0.86400  0.28610  0.53900  Biso   1.000  N
  H1       1.0000 0.33969  0.21227  0.35318  Biso   1.000  H
  H2       1.0000 0.34559  0.18517  0.57520  Biso   1.000  H
  H3       1.0000 0.40157  0.34882  0.64085  Biso   1.000  H
  H4       1.0000 0.39414  0.37672  0.41925  Biso   1.000  H
  H5       1.0000 0.58276  0.27122  0.36448  Biso   1.000  H
  H6       1.0000 0.59126  0.24600  0.58711  Biso   1.000  H
  H7       1.0000 0.66014  0.40661  0.65423  Biso   1.000  H
  H8       1.0000 0.62985  0.44289  0.44022  Biso   1.000  H
  H9       1.0000 0.87627  0.43165  0.52635  Biso   1.000  H
  H10      1.0000 0.82416  0.36898  0.33636  Biso   1.000  H
  H11      1.0000 0.80682  0.22314  0.48741  Biso   1.000  H
  H12      1.0000 0.84533  0.28331  0.68437  Biso   1.000  H
  Cd2      1.0000 0.90479  0.73563  0.49651  Biso   1.000  Cd
  C9       1.0000 0.97100  0.90770  0.82700  Biso   1.000  C
  C10      1.0000 0.92700  0.57410  0.82700  Biso   1.000  C
  C11      1.0000 0.91700  0.57140  0.16900  Biso   1.000  C
  C12      1.0000 0.95700  0.90850  0.16900  Biso   1.000  C
  C13      1.0000 0.58200  0.67960  0.48700  Biso   1.000  C
  C14      1.0000 0.43200  0.70100  0.50600  Biso   1.000  C
  C15      1.0000 0.33600  0.61440  0.47800  Biso   1.000  C
  C16      1.0000 0.18600  0.62900  0.52000  Biso   1.000  C
  N7       1.0000 0.95200  0.85210  0.72100  Biso   1.000  N
  N8       1.0000 0.88500  0.62010  0.71700  Biso   1.000  N
  N9       1.0000 0.87000  0.61600  0.27600  Biso   1.000  N
  N10      1.0000 0.93100  0.85280  0.27400  Biso   1.000  N
  N11      1.0000 0.67790  0.76140  0.51500  Biso   1.000  N
  N12      1.0000 0.13600  0.71390  0.46100  Biso   1.000  N
  H13      1.0000 0.66031  0.78773  0.64682  Biso   1.000  H
  H14      1.0000 0.65441  0.81483  0.42480  Biso   1.000  H
  H15      1.0000 0.59843  0.65118  0.35915  Biso   1.000  H
  H16      1.0000 0.60586  0.62328  0.58075  Biso   1.000  H
  H17      1.0000 0.41724  0.72878  0.63552  Biso   1.000  H
  H18      1.0000 0.40874  0.75400  0.41289  Biso   1.000  H
  H19      1.0000 0.33986  0.59339  0.34577  Biso   1.000  H
  H20      1.0000 0.37015  0.55711  0.55978  Biso   1.000  H
  H21      1.0000 0.12373  0.56835  0.47365  Biso   1.000  H
  H22      1.0000 0.17584  0.63102  0.66364  Biso   1.000  H
  H23      1.0000 0.19318  0.77686  0.51259  Biso   1.000  H
  H24      1.0000 0.15467  0.71669  0.31563  Biso   1.000  H
  Ni1      1.0000 0.00000  0.00000  0.00000  Biso   1.000  Ni
  Ni2      1.0000 0.00000  0.50000  0.00000  Biso   1.000  Ni
