data_image0
_cell_length_a       19.86
_cell_length_b       22.14
_cell_length_c       11.6844
_cell_angle_alpha    90
_cell_angle_beta     116.318
_cell_angle_gamma    90

_symmetry_space_group_name_H-M    "P 1"
_symmetry_int_tables_number       1

loop_
  _symmetry_equiv_pos_as_xyz
  'x, y, z'

loop_
  _atom_site_label
  _atom_site_occupancy
  _atom_site_fract_x
  _atom_site_fract_y
  _atom_site_fract_z
  _atom_site_thermal_displace_type
  _atom_site_B_iso_or_equiv
  _atom_site_type_symbol
  Co1      1.0000 0.31289  0.12295  0.61349  Biso   1.000  Co
  N1       1.0000 0.90633  0.31967  0.68700  Biso   1.000  N
  N2       1.0000 0.14070  0.20892  0.97050  Biso   1.000  N
  N3       1.0000 0.28160  0.14144  0.42280  Biso   1.000  N
  O1       1.0000 0.31314  0.12376  0.80240  Biso   1.000  O
  O2       1.0000 0.23248  0.17575  0.64040  Biso   1.000  O
  O3       1.0000 0.23641  0.05012  0.56290  Biso   1.000  O
  O4       1.0000 0.38474  0.05017  0.63930  Biso   1.000  O
  C1       1.0000 0.91850  0.27410  0.62350  Biso   1.000  C
  H1       1.0000 0.88070  0.26420  0.54340  Biso   1.000  H
  C2       1.0000 0.98380  0.24110  0.66990  Biso   1.000  C
  H2       1.0000 0.99010  0.21070  0.62060  Biso   1.000  H
  C3       1.0000 0.04000  0.25340  0.79000  Biso   1.000  C
  C4       1.0000 0.02730  0.29970  0.85960  Biso   1.000  C
  H3       1.0000 0.06330  0.30910  0.94160  Biso   1.000  H
  C5       1.0000 0.96050  0.33110  0.80450  Biso   1.000  C
  H4       1.0000 0.95270  0.36190  0.85140  Biso   1.000  H
  C6       1.0000 0.11180  0.22010  0.84530  Biso   1.000  C
  C7       1.0000 0.14720  0.20360  0.77100  Biso   1.000  C
  H5       1.0000 0.12560  0.21230  0.68410  Biso   1.000  H
  C8       1.0000 0.21550  0.17393  0.82920  Biso   1.000  C
  C9       1.0000 0.24480  0.16011  0.95740  Biso   1.000  C
  H6       1.0000 0.28970  0.13890  0.99750  Biso   1.000  H
  C10      1.0000 0.20600  0.17850  0.02560  Biso   1.000  C
  C11      1.0000 0.32540  0.13040  0.36500  Biso   1.000  C
  H7       1.0000 0.37310  0.11450  0.41340  Biso   1.000  H
  C12      1.0000 0.30340  0.14130  0.23780  Biso   1.000  C
  H8       1.0000 0.33570  0.13270  0.20190  Biso   1.000  H
  C13      1.0000 0.23310  0.16513  0.16300  Biso   1.000  C
  C14      1.0000 0.18870  0.17700  0.22330  Biso   1.000  C
  H9       1.0000 0.14100  0.19340  0.17760  Biso   1.000  H
  C15      1.0000 0.21480  0.16460  0.35090  Biso   1.000  C
  H10      1.0000 0.18350  0.17300  0.38900  Biso   1.000  H
  C16      1.0000 0.25650  0.15689  0.75280  Biso   1.000  C
  Co2      1.0000 0.81289  0.62295  0.61349  Biso   1.000  Co
  N4       1.0000 0.40633  0.81967  0.68700  Biso   1.000  N
  N5       1.0000 0.64070  0.70892  0.97050  Biso   1.000  N
  N6       1.0000 0.78160  0.64144  0.42280  Biso   1.000  N
  O5       1.0000 0.81314  0.62376  0.80240  Biso   1.000  O
  O6       1.0000 0.73248  0.67575  0.64040  Biso   1.000  O
  O7       1.0000 0.73641  0.55012  0.56290  Biso   1.000  O
  O8       1.0000 0.88474  0.55017  0.63930  Biso   1.000  O
  C17      1.0000 0.41850  0.77410  0.62350  Biso   1.000  C
  H11      1.0000 0.38070  0.76420  0.54340  Biso   1.000  H
  C18      1.0000 0.48380  0.74110  0.66990  Biso   1.000  C
  H12      1.0000 0.49010  0.71070  0.62060  Biso   1.000  H
  C19      1.0000 0.54000  0.75340  0.79000  Biso   1.000  C
  C20      1.0000 0.52730  0.79970  0.85960  Biso   1.000  C
  H13      1.0000 0.56330  0.80910  0.94160  Biso   1.000  H
  C21      1.0000 0.46050  0.83110  0.80450  Biso   1.000  C
  H14      1.0000 0.45270  0.86190  0.85140  Biso   1.000  H
  C22      1.0000 0.61180  0.72010  0.84530  Biso   1.000  C
  C23      1.0000 0.64720  0.70360  0.77100  Biso   1.000  C
  H15      1.0000 0.62560  0.71230  0.68410  Biso   1.000  H
  C24      1.0000 0.71550  0.67393  0.82920  Biso   1.000  C
  C25      1.0000 0.74480  0.66011  0.95740  Biso   1.000  C
  H16      1.0000 0.78970  0.63890  0.99750  Biso   1.000  H
  C26      1.0000 0.70600  0.67850  0.02560  Biso   1.000  C
  C27      1.0000 0.82540  0.63040  0.36500  Biso   1.000  C
  H17      1.0000 0.87310  0.61450  0.41340  Biso   1.000  H
  C28      1.0000 0.80340  0.64130  0.23780  Biso   1.000  C
  H18      1.0000 0.83570  0.63270  0.20190  Biso   1.000  H
  C29      1.0000 0.73310  0.66513  0.16300  Biso   1.000  C
  C30      1.0000 0.68870  0.67700  0.22330  Biso   1.000  C
  H19      1.0000 0.64100  0.69340  0.17760  Biso   1.000  H
  C31      1.0000 0.71480  0.66460  0.35090  Biso   1.000  C
  H20      1.0000 0.68350  0.67300  0.38900  Biso   1.000  H
  C32      1.0000 0.75650  0.65689  0.75280  Biso   1.000  C
  Co3      1.0000 0.31289  0.87705  0.61349  Biso   1.000  Co
  N7       1.0000 0.90633  0.68033  0.68700  Biso   1.000  N
  N8       1.0000 0.14070  0.79108  0.97050  Biso   1.000  N
  N9       1.0000 0.28160  0.85856  0.42280  Biso   1.000  N
  O9       1.0000 0.31314  0.87624  0.80240  Biso   1.000  O
  O10      1.0000 0.23248  0.82425  0.64040  Biso   1.000  O
  O11      1.0000 0.23641  0.94988  0.56290  Biso   1.000  O
  O12      1.0000 0.38474  0.94983  0.63930  Biso   1.000  O
  C33      1.0000 0.91850  0.72590  0.62350  Biso   1.000  C
  H21      1.0000 0.88070  0.73580  0.54340  Biso   1.000  H
  C34      1.0000 0.98380  0.75890  0.66990  Biso   1.000  C
  H22      1.0000 0.99010  0.78930  0.62060  Biso   1.000  H
  C35      1.0000 0.04000  0.74660  0.79000  Biso   1.000  C
  C36      1.0000 0.02730  0.70030  0.85960  Biso   1.000  C
  H23      1.0000 0.06330  0.69090  0.94160  Biso   1.000  H
  C37      1.0000 0.96050  0.66890  0.80450  Biso   1.000  C
  H24      1.0000 0.95270  0.63810  0.85140  Biso   1.000  H
  C38      1.0000 0.11180  0.77990  0.84530  Biso   1.000  C
  C39      1.0000 0.14720  0.79640  0.77100  Biso   1.000  C
  H25      1.0000 0.12560  0.78770  0.68410  Biso   1.000  H
  C40      1.0000 0.21550  0.82607  0.82920  Biso   1.000  C
  C41      1.0000 0.24480  0.83989  0.95740  Biso   1.000  C
  H26      1.0000 0.28970  0.86110  0.99750  Biso   1.000  H
  C42      1.0000 0.20600  0.82150  0.02560  Biso   1.000  C
  C43      1.0000 0.32540  0.86960  0.36500  Biso   1.000  C
  H27      1.0000 0.37310  0.88550  0.41340  Biso   1.000  H
  C44      1.0000 0.30340  0.85870  0.23780  Biso   1.000  C
  H28      1.0000 0.33570  0.86730  0.20190  Biso   1.000  H
  C45      1.0000 0.23310  0.83487  0.16300  Biso   1.000  C
  C46      1.0000 0.18870  0.82300  0.22330  Biso   1.000  C
  H29      1.0000 0.14100  0.80660  0.17760  Biso   1.000  H
  C47      1.0000 0.21480  0.83540  0.35090  Biso   1.000  C
  H30      1.0000 0.18350  0.82700  0.38900  Biso   1.000  H
  C48      1.0000 0.25650  0.84311  0.75280  Biso   1.000  C
  Co4      1.0000 0.81289  0.37705  0.61349  Biso   1.000  Co
  N10      1.0000 0.40633  0.18033  0.68700  Biso   1.000  N
  N11      1.0000 0.64070  0.29108  0.97050  Biso   1.000  N
  N12      1.0000 0.78160  0.35856  0.42280  Biso   1.000  N
  O13      1.0000 0.81314  0.37624  0.80240  Biso   1.000  O
  O14      1.0000 0.73248  0.32425  0.64040  Biso   1.000  O
  O15      1.0000 0.73641  0.44988  0.56290  Biso   1.000  O
  O16      1.0000 0.88474  0.44983  0.63930  Biso   1.000  O
  C49      1.0000 0.41850  0.22590  0.62350  Biso   1.000  C
  H31      1.0000 0.38070  0.23580  0.54340  Biso   1.000  H
  C50      1.0000 0.48380  0.25890  0.66990  Biso   1.000  C
  H32      1.0000 0.49010  0.28930  0.62060  Biso   1.000  H
  C51      1.0000 0.54000  0.24660  0.79000  Biso   1.000  C
  C52      1.0000 0.52730  0.20030  0.85960  Biso   1.000  C
  H33      1.0000 0.56330  0.19090  0.94160  Biso   1.000  H
  C53      1.0000 0.46050  0.16890  0.80450  Biso   1.000  C
  H34      1.0000 0.45270  0.13810  0.85140  Biso   1.000  H
  C54      1.0000 0.61180  0.27990  0.84530  Biso   1.000  C
  C55      1.0000 0.64720  0.29640  0.77100  Biso   1.000  C
  H35      1.0000 0.62560  0.28770  0.68410  Biso   1.000  H
  C56      1.0000 0.71550  0.32607  0.82920  Biso   1.000  C
  C57      1.0000 0.74480  0.33989  0.95740  Biso   1.000  C
  H36      1.0000 0.78970  0.36110  0.99750  Biso   1.000  H
  C58      1.0000 0.70600  0.32150  0.02560  Biso   1.000  C
  C59      1.0000 0.82540  0.36960  0.36500  Biso   1.000  C
  H37      1.0000 0.87310  0.38550  0.41340  Biso   1.000  H
  C60      1.0000 0.80340  0.35870  0.23780  Biso   1.000  C
  H38      1.0000 0.83570  0.36730  0.20190  Biso   1.000  H
  C61      1.0000 0.73310  0.33487  0.16300  Biso   1.000  C
  C62      1.0000 0.68870  0.32300  0.22330  Biso   1.000  C
  H39      1.0000 0.64100  0.30660  0.17760  Biso   1.000  H
  C63      1.0000 0.71480  0.33540  0.35090  Biso   1.000  C
  H40      1.0000 0.68350  0.32700  0.38900  Biso   1.000  H
  C64      1.0000 0.75650  0.34311  0.75280  Biso   1.000  C
  C65      1.0000 0.26710  0.00000  0.57860  Biso   1.000  C
  C66      1.0000 0.35320  0.00000  0.62270  Biso   1.000  C
  C67      1.0000 0.76710  0.50000  0.57860  Biso   1.000  C
  C68      1.0000 0.85320  0.50000  0.62270  Biso   1.000  C
  Co5      1.0000 0.68711  0.12295  0.38651  Biso   1.000  Co
  N13      1.0000 0.09367  0.31967  0.31300  Biso   1.000  N
  N14      1.0000 0.85930  0.20892  0.02950  Biso   1.000  N
  N15      1.0000 0.71840  0.14144  0.57720  Biso   1.000  N
  O17      1.0000 0.68686  0.12376  0.19760  Biso   1.000  O
  O18      1.0000 0.76752  0.17575  0.35960  Biso   1.000  O
  O19      1.0000 0.76359  0.05012  0.43710  Biso   1.000  O
  O20      1.0000 0.61526  0.05017  0.36070  Biso   1.000  O
  C69      1.0000 0.08150  0.27410  0.37650  Biso   1.000  C
  H41      1.0000 0.11930  0.26420  0.45660  Biso   1.000  H
  C70      1.0000 0.01620  0.24110  0.33010  Biso   1.000  C
  H42      1.0000 0.00990  0.21070  0.37940  Biso   1.000  H
  C71      1.0000 0.96000  0.25340  0.21000  Biso   1.000  C
  C72      1.0000 0.97270  0.29970  0.14040  Biso   1.000  C
  H43      1.0000 0.93670  0.30910  0.05840  Biso   1.000  H
  C73      1.0000 0.03950  0.33110  0.19550  Biso   1.000  C
  H44      1.0000 0.04730  0.36190  0.14860  Biso   1.000  H
  C74      1.0000 0.88820  0.22010  0.15470  Biso   1.000  C
  C75      1.0000 0.85280  0.20360  0.22900  Biso   1.000  C
  H45      1.0000 0.87440  0.21230  0.31590  Biso   1.000  H
  C76      1.0000 0.78450  0.17393  0.17080  Biso   1.000  C
  C77      1.0000 0.75520  0.16011  0.04260  Biso   1.000  C
  H46      1.0000 0.71030  0.13890  0.00250  Biso   1.000  H
  C78      1.0000 0.79400  0.17850  0.97440  Biso   1.000  C
  C79      1.0000 0.67460  0.13040  0.63500  Biso   1.000  C
  H47      1.0000 0.62690  0.11450  0.58660  Biso   1.000  H
  C80      1.0000 0.69660  0.14130  0.76220  Biso   1.000  C
  H48      1.0000 0.66430  0.13270  0.79810  Biso   1.000  H
  C81      1.0000 0.76690  0.16513  0.83700  Biso   1.000  C
  C82      1.0000 0.81130  0.17700  0.77670  Biso   1.000  C
  H49      1.0000 0.85900  0.19340  0.82240  Biso   1.000  H
  C83      1.0000 0.78520  0.16460  0.64910  Biso   1.000  C
  H50      1.0000 0.81650  0.17300  0.61100  Biso   1.000  H
  C84      1.0000 0.74350  0.15689  0.24720  Biso   1.000  C
  Co6      1.0000 0.18711  0.62295  0.38651  Biso   1.000  Co
  N16      1.0000 0.59367  0.81967  0.31300  Biso   1.000  N
  N17      1.0000 0.35930  0.70892  0.02950  Biso   1.000  N
  N18      1.0000 0.21840  0.64144  0.57720  Biso   1.000  N
  O21      1.0000 0.18686  0.62376  0.19760  Biso   1.000  O
  O22      1.0000 0.26752  0.67575  0.35960  Biso   1.000  O
  O23      1.0000 0.26359  0.55012  0.43710  Biso   1.000  O
  O24      1.0000 0.11526  0.55017  0.36070  Biso   1.000  O
  C85      1.0000 0.58150  0.77410  0.37650  Biso   1.000  C
  H51      1.0000 0.61930  0.76420  0.45660  Biso   1.000  H
  C86      1.0000 0.51620  0.74110  0.33010  Biso   1.000  C
  H52      1.0000 0.50990  0.71070  0.37940  Biso   1.000  H
  C87      1.0000 0.46000  0.75340  0.21000  Biso   1.000  C
  C88      1.0000 0.47270  0.79970  0.14040  Biso   1.000  C
  H53      1.0000 0.43670  0.80910  0.05840  Biso   1.000  H
  C89      1.0000 0.53950  0.83110  0.19550  Biso   1.000  C
  H54      1.0000 0.54730  0.86190  0.14860  Biso   1.000  H
  C90      1.0000 0.38820  0.72010  0.15470  Biso   1.000  C
  C91      1.0000 0.35280  0.70360  0.22900  Biso   1.000  C
  H55      1.0000 0.37440  0.71230  0.31590  Biso   1.000  H
  C92      1.0000 0.28450  0.67393  0.17080  Biso   1.000  C
  C93      1.0000 0.25520  0.66011  0.04260  Biso   1.000  C
  H56      1.0000 0.21030  0.63890  0.00250  Biso   1.000  H
  C94      1.0000 0.29400  0.67850  0.97440  Biso   1.000  C
  C95      1.0000 0.17460  0.63040  0.63500  Biso   1.000  C
  H57      1.0000 0.12690  0.61450  0.58660  Biso   1.000  H
  C96      1.0000 0.19660  0.64130  0.76220  Biso   1.000  C
  H58      1.0000 0.16430  0.63270  0.79810  Biso   1.000  H
  C97      1.0000 0.26690  0.66513  0.83700  Biso   1.000  C
  C98      1.0000 0.31130  0.67700  0.77670  Biso   1.000  C
  H59      1.0000 0.35900  0.69340  0.82240  Biso   1.000  H
  C99      1.0000 0.28520  0.66460  0.64910  Biso   1.000  C
  H60      1.0000 0.31650  0.67300  0.61100  Biso   1.000  H
  C100     1.0000 0.24350  0.65689  0.24720  Biso   1.000  C
  Co7      1.0000 0.68711  0.87705  0.38651  Biso   1.000  Co
  N19      1.0000 0.09367  0.68033  0.31300  Biso   1.000  N
  N20      1.0000 0.85930  0.79108  0.02950  Biso   1.000  N
  N21      1.0000 0.71840  0.85856  0.57720  Biso   1.000  N
  O25      1.0000 0.68686  0.87624  0.19760  Biso   1.000  O
  O26      1.0000 0.76752  0.82425  0.35960  Biso   1.000  O
  O27      1.0000 0.76359  0.94988  0.43710  Biso   1.000  O
  O28      1.0000 0.61526  0.94983  0.36070  Biso   1.000  O
  C101     1.0000 0.08150  0.72590  0.37650  Biso   1.000  C
  H61      1.0000 0.11930  0.73580  0.45660  Biso   1.000  H
  C102     1.0000 0.01620  0.75890  0.33010  Biso   1.000  C
  H62      1.0000 0.00990  0.78930  0.37940  Biso   1.000  H
  C103     1.0000 0.96000  0.74660  0.21000  Biso   1.000  C
  C104     1.0000 0.97270  0.70030  0.14040  Biso   1.000  C
  H63      1.0000 0.93670  0.69090  0.05840  Biso   1.000  H
  C105     1.0000 0.03950  0.66890  0.19550  Biso   1.000  C
  H64      1.0000 0.04730  0.63810  0.14860  Biso   1.000  H
  C106     1.0000 0.88820  0.77990  0.15470  Biso   1.000  C
  C107     1.0000 0.85280  0.79640  0.22900  Biso   1.000  C
  H65      1.0000 0.87440  0.78770  0.31590  Biso   1.000  H
  C108     1.0000 0.78450  0.82607  0.17080  Biso   1.000  C
  C109     1.0000 0.75520  0.83989  0.04260  Biso   1.000  C
  H66      1.0000 0.71030  0.86110  0.00250  Biso   1.000  H
  C110     1.0000 0.79400  0.82150  0.97440  Biso   1.000  C
  C111     1.0000 0.67460  0.86960  0.63500  Biso   1.000  C
  H67      1.0000 0.62690  0.88550  0.58660  Biso   1.000  H
  C112     1.0000 0.69660  0.85870  0.76220  Biso   1.000  C
  H68      1.0000 0.66430  0.86730  0.79810  Biso   1.000  H
  C113     1.0000 0.76690  0.83487  0.83700  Biso   1.000  C
  C114     1.0000 0.81130  0.82300  0.77670  Biso   1.000  C
  H69      1.0000 0.85900  0.80660  0.82240  Biso   1.000  H
  C115     1.0000 0.78520  0.83540  0.64910  Biso   1.000  C
  H70      1.0000 0.81650  0.82700  0.61100  Biso   1.000  H
  C116     1.0000 0.74350  0.84311  0.24720  Biso   1.000  C
  Co8      1.0000 0.18711  0.37705  0.38651  Biso   1.000  Co
  N22      1.0000 0.59367  0.18033  0.31300  Biso   1.000  N
  N23      1.0000 0.35930  0.29108  0.02950  Biso   1.000  N
  N24      1.0000 0.21840  0.35856  0.57720  Biso   1.000  N
  O29      1.0000 0.18686  0.37624  0.19760  Biso   1.000  O
  O30      1.0000 0.26752  0.32425  0.35960  Biso   1.000  O
  O31      1.0000 0.26359  0.44988  0.43710  Biso   1.000  O
  O32      1.0000 0.11526  0.44983  0.36070  Biso   1.000  O
  C117     1.0000 0.58150  0.22590  0.37650  Biso   1.000  C
  H71      1.0000 0.61930  0.23580  0.45660  Biso   1.000  H
  C118     1.0000 0.51620  0.25890  0.33010  Biso   1.000  C
  H72      1.0000 0.50990  0.28930  0.37940  Biso   1.000  H
  C119     1.0000 0.46000  0.24660  0.21000  Biso   1.000  C
  C120     1.0000 0.47270  0.20030  0.14040  Biso   1.000  C
  H73      1.0000 0.43670  0.19090  0.05840  Biso   1.000  H
  C121     1.0000 0.53950  0.16890  0.19550  Biso   1.000  C
  H74      1.0000 0.54730  0.13810  0.14860  Biso   1.000  H
  C122     1.0000 0.38820  0.27990  0.15470  Biso   1.000  C
  C123     1.0000 0.35280  0.29640  0.22900  Biso   1.000  C
  H75      1.0000 0.37440  0.28770  0.31590  Biso   1.000  H
  C124     1.0000 0.28450  0.32607  0.17080  Biso   1.000  C
  C125     1.0000 0.25520  0.33989  0.04260  Biso   1.000  C
  H76      1.0000 0.21030  0.36110  0.00250  Biso   1.000  H
  C126     1.0000 0.29400  0.32150  0.97440  Biso   1.000  C
  C127     1.0000 0.17460  0.36960  0.63500  Biso   1.000  C
  H77      1.0000 0.12690  0.38550  0.58660  Biso   1.000  H
  C128     1.0000 0.19660  0.35870  0.76220  Biso   1.000  C
  H78      1.0000 0.16430  0.36730  0.79810  Biso   1.000  H
  C129     1.0000 0.26690  0.33487  0.83700  Biso   1.000  C
  C130     1.0000 0.31130  0.32300  0.77670  Biso   1.000  C
  H79      1.0000 0.35900  0.30660  0.82240  Biso   1.000  H
  C131     1.0000 0.28520  0.33540  0.64910  Biso   1.000  C
  H80      1.0000 0.31650  0.32700  0.61100  Biso   1.000  H
  C132     1.0000 0.24350  0.34311  0.24720  Biso   1.000  C
  C133     1.0000 0.73290  0.00000  0.42140  Biso   1.000  C
  C134     1.0000 0.64680  0.00000  0.37730  Biso   1.000  C
  C135     1.0000 0.23290  0.50000  0.42140  Biso   1.000  C
  C136     1.0000 0.14680  0.50000  0.37730  Biso   1.000  C
