data_image0
_cell_length_a       19.67
_cell_length_b       22.239
_cell_length_c       11.6392
_cell_angle_alpha    90
_cell_angle_beta     116.746
_cell_angle_gamma    90

_symmetry_space_group_name_H-M    "P 1"
_symmetry_int_tables_number       1

loop_
  _symmetry_equiv_pos_as_xyz
  'x, y, z'

loop_
  _atom_site_label
  _atom_site_occupancy
  _atom_site_fract_x
  _atom_site_fract_y
  _atom_site_fract_z
  _atom_site_thermal_displace_type
  _atom_site_B_iso_or_equiv
  _atom_site_type_symbol
  Ni1      1.0000 0.18936  0.12040  0.38787  Biso   1.000  Ni
  N1       1.0000 0.21880  0.13830  0.57560  Biso   1.000  N
  N2       1.0000 0.35960  0.20940  0.03030  Biso   1.000  N
  N3       1.0000 0.59810  0.32120  0.31530  Biso   1.000  N
  O1       1.0000 0.26800  0.17687  0.36360  Biso   1.000  O
  O2       1.0000 0.19040  0.11990  0.20360  Biso   1.000  O
  O3       1.0000 0.26734  0.05006  0.44070  Biso   1.000  O
  O4       1.0000 0.11638  0.05010  0.36450  Biso   1.000  O
  C1       1.0000 0.17400  0.12820  0.63260  Biso   1.000  C
  H1       1.0000 0.12600  0.11190  0.58340  Biso   1.000  H
  C2       1.0000 0.19540  0.14060  0.75990  Biso   1.000  C
  H2       1.0000 0.16190  0.13290  0.79450  Biso   1.000  H
  C3       1.0000 0.26740  0.16460  0.83750  Biso   1.000  C
  C4       1.0000 0.31330  0.17560  0.77840  Biso   1.000  C
  H3       1.0000 0.36150  0.19220  0.82500  Biso   1.000  H
  C5       1.0000 0.28740  0.16190  0.64970  Biso   1.000  C
  H4       1.0000 0.31960  0.16940  0.61230  Biso   1.000  H
  C6       1.0000 0.29490  0.17880  0.97550  Biso   1.000  C
  C7       1.0000 0.25630  0.16010  0.04520  Biso   1.000  C
  H5       1.0000 0.21120  0.13840  0.00500  Biso   1.000  H
  C8       1.0000 0.28580  0.17420  0.17390  Biso   1.000  C
  C9       1.0000 0.35470  0.20460  0.23230  Biso   1.000  C
  H6       1.0000 0.37680  0.21350  0.31970  Biso   1.000  H
  C10      1.0000 0.39000  0.22130  0.15650  Biso   1.000  C
  C11      1.0000 0.58780  0.27520  0.38080  Biso   1.000  C
  H7       1.0000 0.62690  0.26510  0.46080  Biso   1.000  H
  C12      1.0000 0.52060  0.24230  0.33260  Biso   1.000  C
  H8       1.0000 0.51460  0.21180  0.38190  Biso   1.000  H
  C13      1.0000 0.46290  0.25460  0.21240  Biso   1.000  C
  C14      1.0000 0.47480  0.30160  0.14270  Biso   1.000  C
  H9       1.0000 0.43800  0.31110  0.06020  Biso   1.000  H
  C15      1.0000 0.54210  0.33350  0.19890  Biso   1.000  C
  H10      1.0000 0.54890  0.36530  0.15310  Biso   1.000  H
  C16      1.0000 0.24510  0.15580  0.25120  Biso   1.000  C
  Ni2      1.0000 0.68936  0.62040  0.38787  Biso   1.000  Ni
  N4       1.0000 0.71880  0.63830  0.57560  Biso   1.000  N
  N5       1.0000 0.85960  0.70940  0.03030  Biso   1.000  N
  N6       1.0000 0.09810  0.82120  0.31530  Biso   1.000  N
  O5       1.0000 0.76800  0.67687  0.36360  Biso   1.000  O
  O6       1.0000 0.69040  0.61990  0.20360  Biso   1.000  O
  O7       1.0000 0.76734  0.55006  0.44070  Biso   1.000  O
  O8       1.0000 0.61638  0.55010  0.36450  Biso   1.000  O
  C17      1.0000 0.67400  0.62820  0.63260  Biso   1.000  C
  H11      1.0000 0.62600  0.61190  0.58340  Biso   1.000  H
  C18      1.0000 0.69540  0.64060  0.75990  Biso   1.000  C
  H12      1.0000 0.66190  0.63290  0.79450  Biso   1.000  H
  C19      1.0000 0.76740  0.66460  0.83750  Biso   1.000  C
  C20      1.0000 0.81330  0.67560  0.77840  Biso   1.000  C
  H13      1.0000 0.86150  0.69220  0.82500  Biso   1.000  H
  C21      1.0000 0.78740  0.66190  0.64970  Biso   1.000  C
  H14      1.0000 0.81960  0.66940  0.61230  Biso   1.000  H
  C22      1.0000 0.79490  0.67880  0.97550  Biso   1.000  C
  C23      1.0000 0.75630  0.66010  0.04520  Biso   1.000  C
  H15      1.0000 0.71120  0.63840  0.00500  Biso   1.000  H
  C24      1.0000 0.78580  0.67420  0.17390  Biso   1.000  C
  C25      1.0000 0.85470  0.70460  0.23230  Biso   1.000  C
  H16      1.0000 0.87680  0.71350  0.31970  Biso   1.000  H
  C26      1.0000 0.89000  0.72130  0.15650  Biso   1.000  C
  C27      1.0000 0.08780  0.77520  0.38080  Biso   1.000  C
  H17      1.0000 0.12690  0.76510  0.46080  Biso   1.000  H
  C28      1.0000 0.02060  0.74230  0.33260  Biso   1.000  C
  H18      1.0000 0.01460  0.71180  0.38190  Biso   1.000  H
  C29      1.0000 0.96290  0.75460  0.21240  Biso   1.000  C
  C30      1.0000 0.97480  0.80160  0.14270  Biso   1.000  C
  H19      1.0000 0.93800  0.81110  0.06020  Biso   1.000  H
  C31      1.0000 0.04210  0.83350  0.19890  Biso   1.000  C
  H20      1.0000 0.04890  0.86530  0.15310  Biso   1.000  H
  C32      1.0000 0.74510  0.65580  0.25120  Biso   1.000  C
  Ni3      1.0000 0.18936  0.87960  0.38787  Biso   1.000  Ni
  N7       1.0000 0.21880  0.86170  0.57560  Biso   1.000  N
  N8       1.0000 0.35960  0.79060  0.03030  Biso   1.000  N
  N9       1.0000 0.59810  0.67880  0.31530  Biso   1.000  N
  O9       1.0000 0.26800  0.82313  0.36360  Biso   1.000  O
  O10      1.0000 0.19040  0.88010  0.20360  Biso   1.000  O
  O11      1.0000 0.26734  0.94994  0.44070  Biso   1.000  O
  O12      1.0000 0.11638  0.94990  0.36450  Biso   1.000  O
  C33      1.0000 0.17400  0.87180  0.63260  Biso   1.000  C
  H21      1.0000 0.12600  0.88810  0.58340  Biso   1.000  H
  C34      1.0000 0.19540  0.85940  0.75990  Biso   1.000  C
  H22      1.0000 0.16190  0.86710  0.79450  Biso   1.000  H
  C35      1.0000 0.26740  0.83540  0.83750  Biso   1.000  C
  C36      1.0000 0.31330  0.82440  0.77840  Biso   1.000  C
  H23      1.0000 0.36150  0.80780  0.82500  Biso   1.000  H
  C37      1.0000 0.28740  0.83810  0.64970  Biso   1.000  C
  H24      1.0000 0.31960  0.83060  0.61230  Biso   1.000  H
  C38      1.0000 0.29490  0.82120  0.97550  Biso   1.000  C
  C39      1.0000 0.25630  0.83990  0.04520  Biso   1.000  C
  H25      1.0000 0.21120  0.86160  0.00500  Biso   1.000  H
  C40      1.0000 0.28580  0.82580  0.17390  Biso   1.000  C
  C41      1.0000 0.35470  0.79540  0.23230  Biso   1.000  C
  H26      1.0000 0.37680  0.78650  0.31970  Biso   1.000  H
  C42      1.0000 0.39000  0.77870  0.15650  Biso   1.000  C
  C43      1.0000 0.58780  0.72480  0.38080  Biso   1.000  C
  H27      1.0000 0.62690  0.73490  0.46080  Biso   1.000  H
  C44      1.0000 0.52060  0.75770  0.33260  Biso   1.000  C
  H28      1.0000 0.51460  0.78820  0.38190  Biso   1.000  H
  C45      1.0000 0.46290  0.74540  0.21240  Biso   1.000  C
  C46      1.0000 0.47480  0.69840  0.14270  Biso   1.000  C
  H29      1.0000 0.43800  0.68890  0.06020  Biso   1.000  H
  C47      1.0000 0.54210  0.66650  0.19890  Biso   1.000  C
  H30      1.0000 0.54890  0.63470  0.15310  Biso   1.000  H
  C48      1.0000 0.24510  0.84420  0.25120  Biso   1.000  C
  Ni4      1.0000 0.68936  0.37960  0.38787  Biso   1.000  Ni
  N10      1.0000 0.71880  0.36170  0.57560  Biso   1.000  N
  N11      1.0000 0.85960  0.29060  0.03030  Biso   1.000  N
  N12      1.0000 0.09810  0.17880  0.31530  Biso   1.000  N
  O13      1.0000 0.76800  0.32313  0.36360  Biso   1.000  O
  O14      1.0000 0.69040  0.38010  0.20360  Biso   1.000  O
  O15      1.0000 0.76734  0.44994  0.44070  Biso   1.000  O
  O16      1.0000 0.61638  0.44990  0.36450  Biso   1.000  O
  C49      1.0000 0.67400  0.37180  0.63260  Biso   1.000  C
  H31      1.0000 0.62600  0.38810  0.58340  Biso   1.000  H
  C50      1.0000 0.69540  0.35940  0.75990  Biso   1.000  C
  H32      1.0000 0.66190  0.36710  0.79450  Biso   1.000  H
  C51      1.0000 0.76740  0.33540  0.83750  Biso   1.000  C
  C52      1.0000 0.81330  0.32440  0.77840  Biso   1.000  C
  H33      1.0000 0.86150  0.30780  0.82500  Biso   1.000  H
  C53      1.0000 0.78740  0.33810  0.64970  Biso   1.000  C
  H34      1.0000 0.81960  0.33060  0.61230  Biso   1.000  H
  C54      1.0000 0.79490  0.32120  0.97550  Biso   1.000  C
  C55      1.0000 0.75630  0.33990  0.04520  Biso   1.000  C
  H35      1.0000 0.71120  0.36160  0.00500  Biso   1.000  H
  C56      1.0000 0.78580  0.32580  0.17390  Biso   1.000  C
  C57      1.0000 0.85470  0.29540  0.23230  Biso   1.000  C
  H36      1.0000 0.87680  0.28650  0.31970  Biso   1.000  H
  C58      1.0000 0.89000  0.27870  0.15650  Biso   1.000  C
  C59      1.0000 0.08780  0.22480  0.38080  Biso   1.000  C
  H37      1.0000 0.12690  0.23490  0.46080  Biso   1.000  H
  C60      1.0000 0.02060  0.25770  0.33260  Biso   1.000  C
  H38      1.0000 0.01460  0.28820  0.38190  Biso   1.000  H
  C61      1.0000 0.96290  0.24540  0.21240  Biso   1.000  C
  C62      1.0000 0.97480  0.19840  0.14270  Biso   1.000  C
  H39      1.0000 0.93800  0.18890  0.06020  Biso   1.000  H
  C63      1.0000 0.04210  0.16650  0.19890  Biso   1.000  C
  H40      1.0000 0.04890  0.13470  0.15310  Biso   1.000  H
  C64      1.0000 0.74510  0.34420  0.25120  Biso   1.000  C
  C65      1.0000 0.23590  0.00000  0.42490  Biso   1.000  C
  C66      1.0000 0.14840  0.00000  0.38100  Biso   1.000  C
  C67      1.0000 0.73590  0.50000  0.42490  Biso   1.000  C
  C68      1.0000 0.64840  0.50000  0.38100  Biso   1.000  C
  Ni5      1.0000 0.81064  0.12040  0.61213  Biso   1.000  Ni
  N13      1.0000 0.78120  0.13830  0.42440  Biso   1.000  N
  N14      1.0000 0.64040  0.20940  0.96970  Biso   1.000  N
  N15      1.0000 0.40190  0.32120  0.68470  Biso   1.000  N
  O17      1.0000 0.73200  0.17687  0.63640  Biso   1.000  O
  O18      1.0000 0.80960  0.11990  0.79640  Biso   1.000  O
  O19      1.0000 0.73266  0.05006  0.55930  Biso   1.000  O
  O20      1.0000 0.88362  0.05010  0.63550  Biso   1.000  O
  C69      1.0000 0.82600  0.12820  0.36740  Biso   1.000  C
  H41      1.0000 0.87400  0.11190  0.41660  Biso   1.000  H
  C70      1.0000 0.80460  0.14060  0.24010  Biso   1.000  C
  H42      1.0000 0.83810  0.13290  0.20550  Biso   1.000  H
  C71      1.0000 0.73260  0.16460  0.16250  Biso   1.000  C
  C72      1.0000 0.68670  0.17560  0.22160  Biso   1.000  C
  H43      1.0000 0.63850  0.19220  0.17500  Biso   1.000  H
  C73      1.0000 0.71260  0.16190  0.35030  Biso   1.000  C
  H44      1.0000 0.68040  0.16940  0.38770  Biso   1.000  H
  C74      1.0000 0.70510  0.17880  0.02450  Biso   1.000  C
  C75      1.0000 0.74370  0.16010  0.95480  Biso   1.000  C
  H45      1.0000 0.78880  0.13840  0.99500  Biso   1.000  H
  C76      1.0000 0.71420  0.17420  0.82610  Biso   1.000  C
  C77      1.0000 0.64530  0.20460  0.76770  Biso   1.000  C
  H46      1.0000 0.62320  0.21350  0.68030  Biso   1.000  H
  C78      1.0000 0.61000  0.22130  0.84350  Biso   1.000  C
  C79      1.0000 0.41220  0.27520  0.61920  Biso   1.000  C
  H47      1.0000 0.37310  0.26510  0.53920  Biso   1.000  H
  C80      1.0000 0.47940  0.24230  0.66740  Biso   1.000  C
  H48      1.0000 0.48540  0.21180  0.61810  Biso   1.000  H
  C81      1.0000 0.53710  0.25460  0.78760  Biso   1.000  C
  C82      1.0000 0.52520  0.30160  0.85730  Biso   1.000  C
  H49      1.0000 0.56200  0.31110  0.93980  Biso   1.000  H
  C83      1.0000 0.45790  0.33350  0.80110  Biso   1.000  C
  H50      1.0000 0.45110  0.36530  0.84690  Biso   1.000  H
  C84      1.0000 0.75490  0.15580  0.74880  Biso   1.000  C
  Ni6      1.0000 0.31064  0.62040  0.61213  Biso   1.000  Ni
  N16      1.0000 0.28120  0.63830  0.42440  Biso   1.000  N
  N17      1.0000 0.14040  0.70940  0.96970  Biso   1.000  N
  N18      1.0000 0.90190  0.82120  0.68470  Biso   1.000  N
  O21      1.0000 0.23200  0.67687  0.63640  Biso   1.000  O
  O22      1.0000 0.30960  0.61990  0.79640  Biso   1.000  O
  O23      1.0000 0.23266  0.55006  0.55930  Biso   1.000  O
  O24      1.0000 0.38362  0.55010  0.63550  Biso   1.000  O
  C85      1.0000 0.32600  0.62820  0.36740  Biso   1.000  C
  H51      1.0000 0.37400  0.61190  0.41660  Biso   1.000  H
  C86      1.0000 0.30460  0.64060  0.24010  Biso   1.000  C
  H52      1.0000 0.33810  0.63290  0.20550  Biso   1.000  H
  C87      1.0000 0.23260  0.66460  0.16250  Biso   1.000  C
  C88      1.0000 0.18670  0.67560  0.22160  Biso   1.000  C
  H53      1.0000 0.13850  0.69220  0.17500  Biso   1.000  H
  C89      1.0000 0.21260  0.66190  0.35030  Biso   1.000  C
  H54      1.0000 0.18040  0.66940  0.38770  Biso   1.000  H
  C90      1.0000 0.20510  0.67880  0.02450  Biso   1.000  C
  C91      1.0000 0.24370  0.66010  0.95480  Biso   1.000  C
  H55      1.0000 0.28880  0.63840  0.99500  Biso   1.000  H
  C92      1.0000 0.21420  0.67420  0.82610  Biso   1.000  C
  C93      1.0000 0.14530  0.70460  0.76770  Biso   1.000  C
  H56      1.0000 0.12320  0.71350  0.68030  Biso   1.000  H
  C94      1.0000 0.11000  0.72130  0.84350  Biso   1.000  C
  C95      1.0000 0.91220  0.77520  0.61920  Biso   1.000  C
  H57      1.0000 0.87310  0.76510  0.53920  Biso   1.000  H
  C96      1.0000 0.97940  0.74230  0.66740  Biso   1.000  C
  H58      1.0000 0.98540  0.71180  0.61810  Biso   1.000  H
  C97      1.0000 0.03710  0.75460  0.78760  Biso   1.000  C
  C98      1.0000 0.02520  0.80160  0.85730  Biso   1.000  C
  H59      1.0000 0.06200  0.81110  0.93980  Biso   1.000  H
  C99      1.0000 0.95790  0.83350  0.80110  Biso   1.000  C
  H60      1.0000 0.95110  0.86530  0.84690  Biso   1.000  H
  C100     1.0000 0.25490  0.65580  0.74880  Biso   1.000  C
  Ni7      1.0000 0.81064  0.87960  0.61213  Biso   1.000  Ni
  N19      1.0000 0.78120  0.86170  0.42440  Biso   1.000  N
  N20      1.0000 0.64040  0.79060  0.96970  Biso   1.000  N
  N21      1.0000 0.40190  0.67880  0.68470  Biso   1.000  N
  O25      1.0000 0.73200  0.82313  0.63640  Biso   1.000  O
  O26      1.0000 0.80960  0.88010  0.79640  Biso   1.000  O
  O27      1.0000 0.73266  0.94994  0.55930  Biso   1.000  O
  O28      1.0000 0.88362  0.94990  0.63550  Biso   1.000  O
  C101     1.0000 0.82600  0.87180  0.36740  Biso   1.000  C
  H61      1.0000 0.87400  0.88810  0.41660  Biso   1.000  H
  C102     1.0000 0.80460  0.85940  0.24010  Biso   1.000  C
  H62      1.0000 0.83810  0.86710  0.20550  Biso   1.000  H
  C103     1.0000 0.73260  0.83540  0.16250  Biso   1.000  C
  C104     1.0000 0.68670  0.82440  0.22160  Biso   1.000  C
  H63      1.0000 0.63850  0.80780  0.17500  Biso   1.000  H
  C105     1.0000 0.71260  0.83810  0.35030  Biso   1.000  C
  H64      1.0000 0.68040  0.83060  0.38770  Biso   1.000  H
  C106     1.0000 0.70510  0.82120  0.02450  Biso   1.000  C
  C107     1.0000 0.74370  0.83990  0.95480  Biso   1.000  C
  H65      1.0000 0.78880  0.86160  0.99500  Biso   1.000  H
  C108     1.0000 0.71420  0.82580  0.82610  Biso   1.000  C
  C109     1.0000 0.64530  0.79540  0.76770  Biso   1.000  C
  H66      1.0000 0.62320  0.78650  0.68030  Biso   1.000  H
  C110     1.0000 0.61000  0.77870  0.84350  Biso   1.000  C
  C111     1.0000 0.41220  0.72480  0.61920  Biso   1.000  C
  H67      1.0000 0.37310  0.73490  0.53920  Biso   1.000  H
  C112     1.0000 0.47940  0.75770  0.66740  Biso   1.000  C
  H68      1.0000 0.48540  0.78820  0.61810  Biso   1.000  H
  C113     1.0000 0.53710  0.74540  0.78760  Biso   1.000  C
  C114     1.0000 0.52520  0.69840  0.85730  Biso   1.000  C
  H69      1.0000 0.56200  0.68890  0.93980  Biso   1.000  H
  C115     1.0000 0.45790  0.66650  0.80110  Biso   1.000  C
  H70      1.0000 0.45110  0.63470  0.84690  Biso   1.000  H
  C116     1.0000 0.75490  0.84420  0.74880  Biso   1.000  C
  Ni8      1.0000 0.31064  0.37960  0.61213  Biso   1.000  Ni
  N22      1.0000 0.28120  0.36170  0.42440  Biso   1.000  N
  N23      1.0000 0.14040  0.29060  0.96970  Biso   1.000  N
  N24      1.0000 0.90190  0.17880  0.68470  Biso   1.000  N
  O29      1.0000 0.23200  0.32313  0.63640  Biso   1.000  O
  O30      1.0000 0.30960  0.38010  0.79640  Biso   1.000  O
  O31      1.0000 0.23266  0.44994  0.55930  Biso   1.000  O
  O32      1.0000 0.38362  0.44990  0.63550  Biso   1.000  O
  C117     1.0000 0.32600  0.37180  0.36740  Biso   1.000  C
  H71      1.0000 0.37400  0.38810  0.41660  Biso   1.000  H
  C118     1.0000 0.30460  0.35940  0.24010  Biso   1.000  C
  H72      1.0000 0.33810  0.36710  0.20550  Biso   1.000  H
  C119     1.0000 0.23260  0.33540  0.16250  Biso   1.000  C
  C120     1.0000 0.18670  0.32440  0.22160  Biso   1.000  C
  H73      1.0000 0.13850  0.30780  0.17500  Biso   1.000  H
  C121     1.0000 0.21260  0.33810  0.35030  Biso   1.000  C
  H74      1.0000 0.18040  0.33060  0.38770  Biso   1.000  H
  C122     1.0000 0.20510  0.32120  0.02450  Biso   1.000  C
  C123     1.0000 0.24370  0.33990  0.95480  Biso   1.000  C
  H75      1.0000 0.28880  0.36160  0.99500  Biso   1.000  H
  C124     1.0000 0.21420  0.32580  0.82610  Biso   1.000  C
  C125     1.0000 0.14530  0.29540  0.76770  Biso   1.000  C
  H76      1.0000 0.12320  0.28650  0.68030  Biso   1.000  H
  C126     1.0000 0.11000  0.27870  0.84350  Biso   1.000  C
  C127     1.0000 0.91220  0.22480  0.61920  Biso   1.000  C
  H77      1.0000 0.87310  0.23490  0.53920  Biso   1.000  H
  C128     1.0000 0.97940  0.25770  0.66740  Biso   1.000  C
  H78      1.0000 0.98540  0.28820  0.61810  Biso   1.000  H
  C129     1.0000 0.03710  0.24540  0.78760  Biso   1.000  C
  C130     1.0000 0.02520  0.19840  0.85730  Biso   1.000  C
  H79      1.0000 0.06200  0.18890  0.93980  Biso   1.000  H
  C131     1.0000 0.95790  0.16650  0.80110  Biso   1.000  C
  H80      1.0000 0.95110  0.13470  0.84690  Biso   1.000  H
  C132     1.0000 0.25490  0.34420  0.74880  Biso   1.000  C
  C133     1.0000 0.76410  0.00000  0.57510  Biso   1.000  C
  C134     1.0000 0.85160  0.00000  0.61900  Biso   1.000  C
  C135     1.0000 0.26410  0.50000  0.57510  Biso   1.000  C
  C136     1.0000 0.35160  0.50000  0.61900  Biso   1.000  C
