data_image0
_cell_length_a       14.4225
_cell_length_b       14.2601
_cell_length_c       22.5106
_cell_angle_alpha    90
_cell_angle_beta     100.154
_cell_angle_gamma    90

_symmetry_space_group_name_H-M    "P 1"
_symmetry_int_tables_number       1

loop_
  _symmetry_equiv_pos_as_xyz
  'x, y, z'

loop_
  _atom_site_label
  _atom_site_occupancy
  _atom_site_fract_x
  _atom_site_fract_y
  _atom_site_fract_z
  _atom_site_thermal_displace_type
  _atom_site_B_iso_or_equiv
  _atom_site_type_symbol
  Cd1      1.0000 0.25605  0.75113  0.24017  Biso   1.000  Cd
  Cd2      1.0000 0.18455  0.62409  0.36043  Biso   1.000  Cd
  O1       1.0000 0.09760  0.60330  0.26800  Biso   1.000  O
  O2       1.0000 0.31550  0.65250  0.31690  Biso   1.000  O
  O3       1.0000 0.25920  0.65380  0.45320  Biso   1.000  O
  O4       1.0000 0.61690  0.36060  0.24870  Biso   1.000  O
  O5       1.0000 0.84760  0.35790  0.23790  Biso   1.000  O
  O6       1.0000 0.69390  0.32140  0.33910  Biso   1.000  O
  O7       1.0000 0.37550  0.61820  0.23630  Biso   1.000  O
  O8       1.0000 0.82150  0.28320  0.15050  Biso   1.000  O
  N1       1.0000 0.52350  0.47100  0.48800  Biso   1.000  N
  N2       1.0000 0.97210  0.47350  0.00970  Biso   1.000  N
  C1       1.0000 0.62970  0.36600  0.30550  Biso   1.000  C
  C2       1.0000 0.03220  0.54260  0.17270  Biso   1.000  C
  C3       1.0000 0.43940  0.53980  0.32750  Biso   1.000  C
  C4       1.0000 0.51200  0.47950  0.42360  Biso   1.000  C
  C5       1.0000 0.49910  0.48410  0.29970  Biso   1.000  C
  H1       1.0000 0.49420  0.48540  0.25800  Biso   1.000  H
  C6       1.0000 0.57230  0.42510  0.39670  Biso   1.000  C
  H2       1.0000 0.61710  0.38730  0.42020  Biso   1.000  H
  C7       1.0000 0.44490  0.53670  0.38950  Biso   1.000  C
  H3       1.0000 0.40420  0.57240  0.40810  Biso   1.000  H
  C8       1.0000 0.97570  0.47950  0.07350  Biso   1.000  C
  C9       1.0000 0.91930  0.41700  0.09750  Biso   1.000  C
  H4       1.0000 0.88180  0.37480  0.07250  Biso   1.000  H
  C10      1.0000 0.56550  0.42730  0.33390  Biso   1.000  C
  C11      1.0000 0.97480  0.48000  0.19660  Biso   1.000  C
  H5       1.0000 0.97400  0.48020  0.23780  Biso   1.000  H
  C12      1.0000 0.03220  0.54280  0.11110  Biso   1.000  C
  H6       1.0000 0.07000  0.58510  0.09480  Biso   1.000  H
  C13      1.0000 0.09760  0.60870  0.21270  Biso   1.000  C
  C14      1.0000 0.91860  0.41720  0.15930  Biso   1.000  C
  C15      1.0000 0.37270  0.60530  0.28980  Biso   1.000  C
  C16      1.0000 0.85820  0.34680  0.18420  Biso   1.000  C
  N3       1.0000 0.25490  0.76940  0.51860  Biso   1.000  N
  C17      1.0000 0.38470  0.76610  0.46040  Biso   1.000  C
  H7       1.0000 0.43370  0.72010  0.47020  Biso   1.000  H
  H8       1.0000 0.40310  0.82280  0.48230  Biso   1.000  H
  H9       1.0000 0.37460  0.77870  0.41790  Biso   1.000  H
  C18      1.0000 0.29060  0.72750  0.47830  Biso   1.000  C
  O9       1.0000 0.21850  0.46880  0.36360  Biso   1.000  O
  C19      1.0000 0.17050  0.73340  0.53280  Biso   1.000  C
  H10      1.0000 0.15280  0.67790  0.50940  Biso   1.000  H
  H11      1.0000 0.12160  0.77960  0.52370  Biso   1.000  H
  H12      1.0000 0.17970  0.71820  0.57500  Biso   1.000  H
  O10      1.0000 0.14620  0.66230  0.18760  Biso   1.000  O
  C20      1.0000 0.29830  0.85130  0.55370  Biso   1.000  C
  H13      1.0000 0.35890  0.83390  0.57590  Biso   1.000  H
  H14      1.0000 0.25840  0.87130  0.58120  Biso   1.000  H
  H15      1.0000 0.30560  0.90170  0.52660  Biso   1.000  H
  C21      1.0000 0.21490  0.40190  0.39080  Biso   1.000  C
  C22      1.0000 0.25700  0.41100  0.45670  Biso   1.000  C
  H16      1.0000 0.28370  0.47300  0.46420  Biso   1.000  H
  H17      1.0000 0.30590  0.36530  0.46730  Biso   1.000  H
  H18      1.0000 0.20920  0.40200  0.48070  Biso   1.000  H
  N4       1.0000 0.17010  0.32440  0.37240  Biso   1.000  N
  C23      1.0000 0.15500  0.23700  0.40830  Biso   1.000  C
  H19      1.0000 0.19840  0.23760  0.44610  Biso   1.000  H
  H20      1.0000 0.16690  0.18210  0.38580  Biso   1.000  H
  H21      1.0000 0.09190  0.23550  0.41570  Biso   1.000  H
  C24      1.0000 0.12300  0.32000  0.30800  Biso   1.000  C
  H22      1.0000 0.16060  0.35120  0.28320  Biso   1.000  H
  H23      1.0000 0.06210  0.34910  0.30360  Biso   1.000  H
  H24      1.0000 0.11500  0.25510  0.29580  Biso   1.000  H
  O11      1.0000 0.05440  0.59600  0.39680  Biso   1.000  O
  C25      1.0000 0.93900  0.68700  0.34360  Biso   1.000  C
  H25      1.0000 0.89020  0.71520  0.36200  Biso   1.000  H
  H26      1.0000 0.91360  0.67210  0.30240  Biso   1.000  H
  H27      1.0000 0.98980  0.73090  0.34500  Biso   1.000  H
  N5       1.0000 0.91230  0.53150  0.37340  Biso   1.000  N
  C26      1.0000 0.94200  0.43200  0.38220  Biso   1.000  C
  H28      1.0000 0.00330  0.42410  0.37200  Biso   1.000  H
  H29      1.0000 0.89770  0.39250  0.35680  Biso   1.000  H
  H30      1.0000 0.94390  0.41470  0.42370  Biso   1.000  H
  C27      1.0000 0.97200  0.60400  0.37550  Biso   1.000  C
  C28      1.0000 0.81350  0.53800  0.34630  Biso   1.000  C
  H31      1.0000 0.79800  0.49000  0.31670  Biso   1.000  H
  H32      1.0000 0.80160  0.59860  0.32740  Biso   1.000  H
  H33      1.0000 0.77550  0.53150  0.37710  Biso   1.000  H
  Cd3      1.0000 0.74395  0.25113  0.25983  Biso   1.000  Cd
  Cd4      1.0000 0.81545  0.12409  0.13957  Biso   1.000  Cd
  O12      1.0000 0.90240  0.10330  0.23200  Biso   1.000  O
  O13      1.0000 0.68450  0.15250  0.18310  Biso   1.000  O
  O14      1.0000 0.74080  0.15380  0.04680  Biso   1.000  O
  O15      1.0000 0.38310  0.86060  0.25130  Biso   1.000  O
  O16      1.0000 0.15240  0.85790  0.26210  Biso   1.000  O
  O17      1.0000 0.30610  0.82140  0.16090  Biso   1.000  O
  O18      1.0000 0.62450  0.11820  0.26370  Biso   1.000  O
  O19      1.0000 0.17850  0.78320  0.34950  Biso   1.000  O
  N6       1.0000 0.47650  0.97100  0.01200  Biso   1.000  N
  N7       1.0000 0.02790  0.97350  0.49030  Biso   1.000  N
  C29      1.0000 0.37030  0.86600  0.19450  Biso   1.000  C
  C30      1.0000 0.96780  0.04260  0.32730  Biso   1.000  C
  C31      1.0000 0.56060  0.03980  0.17250  Biso   1.000  C
  C32      1.0000 0.48800  0.97950  0.07640  Biso   1.000  C
  C33      1.0000 0.50090  0.98410  0.20030  Biso   1.000  C
  H34      1.0000 0.50580  0.98540  0.24200  Biso   1.000  H
  C34      1.0000 0.42770  0.92510  0.10330  Biso   1.000  C
  H35      1.0000 0.38290  0.88730  0.07980  Biso   1.000  H
  C35      1.0000 0.55510  0.03670  0.11050  Biso   1.000  C
  H36      1.0000 0.59580  0.07240  0.09190  Biso   1.000  H
  C36      1.0000 0.02430  0.97950  0.42650  Biso   1.000  C
  C37      1.0000 0.08070  0.91700  0.40250  Biso   1.000  C
  H37      1.0000 0.11820  0.87480  0.42750  Biso   1.000  H
  C38      1.0000 0.43450  0.92730  0.16610  Biso   1.000  C
  C39      1.0000 0.02520  0.98000  0.30340  Biso   1.000  C
  H38      1.0000 0.02600  0.98020  0.26220  Biso   1.000  H
  C40      1.0000 0.96780  0.04280  0.38890  Biso   1.000  C
  H39      1.0000 0.93000  0.08510  0.40520  Biso   1.000  H
  C41      1.0000 0.90240  0.10870  0.28730  Biso   1.000  C
  C42      1.0000 0.08140  0.91720  0.34070  Biso   1.000  C
  C43      1.0000 0.62730  0.10530  0.21020  Biso   1.000  C
  C44      1.0000 0.14180  0.84680  0.31580  Biso   1.000  C
  N8       1.0000 0.74510  0.26940  0.98140  Biso   1.000  N
  C45      1.0000 0.61530  0.26610  0.03960  Biso   1.000  C
  H40      1.0000 0.56630  0.22010  0.02980  Biso   1.000  H
  H41      1.0000 0.59690  0.32280  0.01770  Biso   1.000  H
  H42      1.0000 0.62540  0.27870  0.08210  Biso   1.000  H
  C46      1.0000 0.70940  0.22750  0.02170  Biso   1.000  C
  O20      1.0000 0.78150  0.96880  0.13640  Biso   1.000  O
  C47      1.0000 0.82950  0.23340  0.96720  Biso   1.000  C
  H43      1.0000 0.84720  0.17790  0.99060  Biso   1.000  H
  H44      1.0000 0.87840  0.27960  0.97630  Biso   1.000  H
  H45      1.0000 0.82030  0.21820  0.92500  Biso   1.000  H
  O21      1.0000 0.85380  0.16230  0.31240  Biso   1.000  O
  C48      1.0000 0.70170  0.35130  0.94630  Biso   1.000  C
  H46      1.0000 0.64110  0.33390  0.92410  Biso   1.000  H
  H47      1.0000 0.74160  0.37130  0.91880  Biso   1.000  H
  H48      1.0000 0.69440  0.40170  0.97340  Biso   1.000  H
  C49      1.0000 0.78510  0.90190  0.10920  Biso   1.000  C
  C50      1.0000 0.74300  0.91100  0.04330  Biso   1.000  C
  H49      1.0000 0.71630  0.97300  0.03580  Biso   1.000  H
  H50      1.0000 0.69410  0.86530  0.03270  Biso   1.000  H
  H51      1.0000 0.79080  0.90200  0.01930  Biso   1.000  H
  N9       1.0000 0.82990  0.82440  0.12760  Biso   1.000  N
  C51      1.0000 0.84500  0.73700  0.09170  Biso   1.000  C
  H52      1.0000 0.80160  0.73760  0.05390  Biso   1.000  H
  H53      1.0000 0.83310  0.68210  0.11420  Biso   1.000  H
  H54      1.0000 0.90810  0.73550  0.08430  Biso   1.000  H
  C52      1.0000 0.87700  0.82000  0.19200  Biso   1.000  C
  H55      1.0000 0.83940  0.85120  0.21680  Biso   1.000  H
  H56      1.0000 0.93790  0.84910  0.19640  Biso   1.000  H
  H57      1.0000 0.88500  0.75510  0.20420  Biso   1.000  H
  O22      1.0000 0.94560  0.09600  0.10320  Biso   1.000  O
  C53      1.0000 0.06100  0.18700  0.15640  Biso   1.000  C
  H58      1.0000 0.10980  0.21520  0.13800  Biso   1.000  H
  H59      1.0000 0.08640  0.17210  0.19760  Biso   1.000  H
  H60      1.0000 0.01020  0.23090  0.15500  Biso   1.000  H
  N10      1.0000 0.08770  0.03150  0.12660  Biso   1.000  N
  C54      1.0000 0.05800  0.93200  0.11780  Biso   1.000  C
  H61      1.0000 0.99670  0.92410  0.12800  Biso   1.000  H
  H62      1.0000 0.10230  0.89250  0.14320  Biso   1.000  H
  H63      1.0000 0.05610  0.91470  0.07630  Biso   1.000  H
  C55      1.0000 0.02800  0.10400  0.12450  Biso   1.000  C
  C56      1.0000 0.18650  0.03800  0.15370  Biso   1.000  C
  H64      1.0000 0.20200  0.99000  0.18330  Biso   1.000  H
  H65      1.0000 0.19840  0.09860  0.17260  Biso   1.000  H
  H66      1.0000 0.22450  0.03150  0.12290  Biso   1.000  H
  Cd5      1.0000 0.74395  0.24887  0.75983  Biso   1.000  Cd
  Cd6      1.0000 0.81545  0.37591  0.63957  Biso   1.000  Cd
  O23      1.0000 0.90240  0.39670  0.73200  Biso   1.000  O
  O24      1.0000 0.68450  0.34750  0.68310  Biso   1.000  O
  O25      1.0000 0.74080  0.34620  0.54680  Biso   1.000  O
  O26      1.0000 0.38310  0.63940  0.75130  Biso   1.000  O
  O27      1.0000 0.15240  0.64210  0.76210  Biso   1.000  O
  O28      1.0000 0.30610  0.67860  0.66090  Biso   1.000  O
  O29      1.0000 0.62450  0.38180  0.76370  Biso   1.000  O
  O30      1.0000 0.17850  0.71680  0.84950  Biso   1.000  O
  N11      1.0000 0.47650  0.52900  0.51200  Biso   1.000  N
  N12      1.0000 0.02790  0.52650  0.99030  Biso   1.000  N
  C57      1.0000 0.37030  0.63400  0.69450  Biso   1.000  C
  C58      1.0000 0.96780  0.45740  0.82730  Biso   1.000  C
  C59      1.0000 0.56060  0.46020  0.67250  Biso   1.000  C
  C60      1.0000 0.48800  0.52050  0.57640  Biso   1.000  C
  C61      1.0000 0.50090  0.51590  0.70030  Biso   1.000  C
  H67      1.0000 0.50580  0.51460  0.74200  Biso   1.000  H
  C62      1.0000 0.42770  0.57490  0.60330  Biso   1.000  C
  H68      1.0000 0.38290  0.61270  0.57980  Biso   1.000  H
  C63      1.0000 0.55510  0.46330  0.61050  Biso   1.000  C
  H69      1.0000 0.59580  0.42760  0.59190  Biso   1.000  H
  C64      1.0000 0.02430  0.52050  0.92650  Biso   1.000  C
  C65      1.0000 0.08070  0.58300  0.90250  Biso   1.000  C
  H70      1.0000 0.11820  0.62520  0.92750  Biso   1.000  H
  C66      1.0000 0.43450  0.57270  0.66610  Biso   1.000  C
  C67      1.0000 0.02520  0.52000  0.80340  Biso   1.000  C
  H71      1.0000 0.02600  0.51980  0.76220  Biso   1.000  H
  C68      1.0000 0.96780  0.45720  0.88890  Biso   1.000  C
  H72      1.0000 0.93000  0.41490  0.90520  Biso   1.000  H
  C69      1.0000 0.90240  0.39130  0.78730  Biso   1.000  C
  C70      1.0000 0.08140  0.58280  0.84070  Biso   1.000  C
  C71      1.0000 0.62730  0.39470  0.71020  Biso   1.000  C
  C72      1.0000 0.14180  0.65320  0.81580  Biso   1.000  C
  N13      1.0000 0.74510  0.23060  0.48140  Biso   1.000  N
  C73      1.0000 0.61530  0.23390  0.53960  Biso   1.000  C
  H73      1.0000 0.56630  0.27990  0.52980  Biso   1.000  H
  H74      1.0000 0.59690  0.17720  0.51770  Biso   1.000  H
  H75      1.0000 0.62540  0.22130  0.58210  Biso   1.000  H
  C74      1.0000 0.70940  0.27250  0.52170  Biso   1.000  C
  O31      1.0000 0.78150  0.53120  0.63640  Biso   1.000  O
  C75      1.0000 0.82950  0.26660  0.46720  Biso   1.000  C
  H76      1.0000 0.84720  0.32210  0.49060  Biso   1.000  H
  H77      1.0000 0.87840  0.22040  0.47630  Biso   1.000  H
  H78      1.0000 0.82030  0.28180  0.42500  Biso   1.000  H
  O32      1.0000 0.85380  0.33770  0.81240  Biso   1.000  O
  C76      1.0000 0.70170  0.14870  0.44630  Biso   1.000  C
  H79      1.0000 0.64110  0.16610  0.42410  Biso   1.000  H
  H80      1.0000 0.74160  0.12870  0.41880  Biso   1.000  H
  H81      1.0000 0.69440  0.09830  0.47340  Biso   1.000  H
  C77      1.0000 0.78510  0.59810  0.60920  Biso   1.000  C
  C78      1.0000 0.74300  0.58900  0.54330  Biso   1.000  C
  H82      1.0000 0.71630  0.52700  0.53580  Biso   1.000  H
  H83      1.0000 0.69410  0.63470  0.53270  Biso   1.000  H
  H84      1.0000 0.79080  0.59800  0.51930  Biso   1.000  H
  N14      1.0000 0.82990  0.67560  0.62760  Biso   1.000  N
  C79      1.0000 0.84500  0.76300  0.59170  Biso   1.000  C
  H85      1.0000 0.80160  0.76240  0.55390  Biso   1.000  H
  H86      1.0000 0.83310  0.81790  0.61420  Biso   1.000  H
  H87      1.0000 0.90810  0.76450  0.58430  Biso   1.000  H
  C80      1.0000 0.87700  0.68000  0.69200  Biso   1.000  C
  H88      1.0000 0.83940  0.64880  0.71680  Biso   1.000  H
  H89      1.0000 0.93790  0.65090  0.69640  Biso   1.000  H
  H90      1.0000 0.88500  0.74490  0.70420  Biso   1.000  H
  O33      1.0000 0.94560  0.40400  0.60320  Biso   1.000  O
  C81      1.0000 0.06100  0.31300  0.65640  Biso   1.000  C
  H91      1.0000 0.10980  0.28480  0.63800  Biso   1.000  H
  H92      1.0000 0.08640  0.32790  0.69760  Biso   1.000  H
  H93      1.0000 0.01020  0.26910  0.65500  Biso   1.000  H
  N15      1.0000 0.08770  0.46850  0.62660  Biso   1.000  N
  C82      1.0000 0.05800  0.56800  0.61780  Biso   1.000  C
  H94      1.0000 0.99670  0.57590  0.62800  Biso   1.000  H
  H95      1.0000 0.10230  0.60750  0.64320  Biso   1.000  H
  H96      1.0000 0.05610  0.58530  0.57630  Biso   1.000  H
  C83      1.0000 0.02800  0.39600  0.62450  Biso   1.000  C
  C84      1.0000 0.18650  0.46200  0.65370  Biso   1.000  C
  H97      1.0000 0.20200  0.51000  0.68330  Biso   1.000  H
  H98      1.0000 0.19840  0.40140  0.67260  Biso   1.000  H
  H99      1.0000 0.22450  0.46850  0.62290  Biso   1.000  H
  Cd7      1.0000 0.25605  0.74887  0.74017  Biso   1.000  Cd
  Cd8      1.0000 0.18455  0.87591  0.86043  Biso   1.000  Cd
  O34      1.0000 0.09760  0.89670  0.76800  Biso   1.000  O
  O35      1.0000 0.31550  0.84750  0.81690  Biso   1.000  O
  O36      1.0000 0.25920  0.84620  0.95320  Biso   1.000  O
  O37      1.0000 0.61690  0.13940  0.74870  Biso   1.000  O
  O38      1.0000 0.84760  0.14210  0.73790  Biso   1.000  O
  O39      1.0000 0.69390  0.17860  0.83910  Biso   1.000  O
  O40      1.0000 0.37550  0.88180  0.73630  Biso   1.000  O
  O41      1.0000 0.82150  0.21680  0.65050  Biso   1.000  O
  N16      1.0000 0.52350  0.02900  0.98800  Biso   1.000  N
  N17      1.0000 0.97210  0.02650  0.50970  Biso   1.000  N
  C85      1.0000 0.62970  0.13400  0.80550  Biso   1.000  C
  C86      1.0000 0.03220  0.95740  0.67270  Biso   1.000  C
  C87      1.0000 0.43940  0.96020  0.82750  Biso   1.000  C
  C88      1.0000 0.51200  0.02050  0.92360  Biso   1.000  C
  C89      1.0000 0.49910  0.01590  0.79970  Biso   1.000  C
  H100     1.0000 0.49420  0.01460  0.75800  Biso   1.000  H
  C90      1.0000 0.57230  0.07490  0.89670  Biso   1.000  C
  H101     1.0000 0.61710  0.11270  0.92020  Biso   1.000  H
  C91      1.0000 0.44490  0.96330  0.88950  Biso   1.000  C
  H102     1.0000 0.40420  0.92760  0.90810  Biso   1.000  H
  C92      1.0000 0.97570  0.02050  0.57350  Biso   1.000  C
  C93      1.0000 0.91930  0.08300  0.59750  Biso   1.000  C
  H103     1.0000 0.88180  0.12520  0.57250  Biso   1.000  H
  C94      1.0000 0.56550  0.07270  0.83390  Biso   1.000  C
  C95      1.0000 0.97480  0.02000  0.69660  Biso   1.000  C
  H104     1.0000 0.97400  0.01980  0.73780  Biso   1.000  H
  C96      1.0000 0.03220  0.95720  0.61110  Biso   1.000  C
  H105     1.0000 0.07000  0.91490  0.59480  Biso   1.000  H
  C97      1.0000 0.09760  0.89130  0.71270  Biso   1.000  C
  C98      1.0000 0.91860  0.08280  0.65930  Biso   1.000  C
  C99      1.0000 0.37270  0.89470  0.78980  Biso   1.000  C
  C100     1.0000 0.85820  0.15320  0.68420  Biso   1.000  C
  N18      1.0000 0.25490  0.73060  0.01860  Biso   1.000  N
  C101     1.0000 0.38470  0.73390  0.96040  Biso   1.000  C
  H106     1.0000 0.43370  0.77990  0.97020  Biso   1.000  H
  H107     1.0000 0.40310  0.67720  0.98230  Biso   1.000  H
  H108     1.0000 0.37460  0.72130  0.91790  Biso   1.000  H
  C102     1.0000 0.29060  0.77250  0.97830  Biso   1.000  C
  O42      1.0000 0.21850  0.03120  0.86360  Biso   1.000  O
  C103     1.0000 0.17050  0.76660  0.03280  Biso   1.000  C
  H109     1.0000 0.15280  0.82210  0.00940  Biso   1.000  H
  H110     1.0000 0.12160  0.72040  0.02370  Biso   1.000  H
  H111     1.0000 0.17970  0.78180  0.07500  Biso   1.000  H
  O43      1.0000 0.14620  0.83770  0.68760  Biso   1.000  O
  C104     1.0000 0.29830  0.64870  0.05370  Biso   1.000  C
  H112     1.0000 0.35890  0.66610  0.07590  Biso   1.000  H
  H113     1.0000 0.25840  0.62870  0.08120  Biso   1.000  H
  H114     1.0000 0.30560  0.59830  0.02660  Biso   1.000  H
  C105     1.0000 0.21490  0.09810  0.89080  Biso   1.000  C
  C106     1.0000 0.25700  0.08900  0.95670  Biso   1.000  C
  H115     1.0000 0.28370  0.02700  0.96420  Biso   1.000  H
  H116     1.0000 0.30590  0.13470  0.96730  Biso   1.000  H
  H117     1.0000 0.20920  0.09800  0.98070  Biso   1.000  H
  N19      1.0000 0.17010  0.17560  0.87240  Biso   1.000  N
  C107     1.0000 0.15500  0.26300  0.90830  Biso   1.000  C
  H118     1.0000 0.19840  0.26240  0.94610  Biso   1.000  H
  H119     1.0000 0.16690  0.31790  0.88580  Biso   1.000  H
  H120     1.0000 0.09190  0.26450  0.91570  Biso   1.000  H
  C108     1.0000 0.12300  0.18000  0.80800  Biso   1.000  C
  H121     1.0000 0.16060  0.14880  0.78320  Biso   1.000  H
  H122     1.0000 0.06210  0.15090  0.80360  Biso   1.000  H
  H123     1.0000 0.11500  0.24490  0.79580  Biso   1.000  H
  O44      1.0000 0.05440  0.90400  0.89680  Biso   1.000  O
  C109     1.0000 0.93900  0.81300  0.84360  Biso   1.000  C
  H124     1.0000 0.89020  0.78480  0.86200  Biso   1.000  H
  H125     1.0000 0.91360  0.82790  0.80240  Biso   1.000  H
  H126     1.0000 0.98980  0.76910  0.84500  Biso   1.000  H
  N20      1.0000 0.91230  0.96850  0.87340  Biso   1.000  N
  C110     1.0000 0.94200  0.06800  0.88220  Biso   1.000  C
  H127     1.0000 0.00330  0.07590  0.87200  Biso   1.000  H
  H128     1.0000 0.89770  0.10750  0.85680  Biso   1.000  H
  H129     1.0000 0.94390  0.08530  0.92370  Biso   1.000  H
  C111     1.0000 0.97200  0.89600  0.87550  Biso   1.000  C
  C112     1.0000 0.81350  0.96200  0.84630  Biso   1.000  C
  H130     1.0000 0.79800  0.01000  0.81670  Biso   1.000  H
  H131     1.0000 0.80160  0.90140  0.82740  Biso   1.000  H
  H132     1.0000 0.77550  0.96850  0.87710  Biso   1.000  H
