data_image0
_cell_length_a       11.7341
_cell_length_b       17.5189
_cell_length_c       20.1579
_cell_angle_alpha    99.51
_cell_angle_beta     90
_cell_angle_gamma    90

_symmetry_space_group_name_H-M    P 1
_symmetry_int_tables_number       1

loop_
  _symmetry_equiv_pos_as_xyz
  'x, y, z'

loop_
  _atom_site_label
  _atom_site_occupancy
  _atom_site_fract_x
  _atom_site_fract_y
  _atom_site_fract_z
  _atom_site_thermal_displace_type
  _atom_site_B_iso_or_equiv
  _atom_site_type_symbol
  K1       1.0000 0.31190  0.59228  0.45430  Biso   1.000  K
  K2       1.0000 0.45040  0.94020  0.53456  Biso   1.000  K
  K3       1.0000 0.26020  0.01320  0.97086  Biso   1.000  K
  K4       1.0000 0.81190  0.40772  0.54570  Biso   1.000  K
  K5       1.0000 0.95040  0.05980  0.46544  Biso   1.000  K
  K6       1.0000 0.76020  0.98680  0.02914  Biso   1.000  K
  U1       1.0000 0.44733  0.52283  0.24647  Biso   1.000  U
  U2       1.0000 0.36631  0.96676  0.75381  Biso   1.000  U
  U3       1.0000 0.94733  0.47717  0.75353  Biso   1.000  U
  U4       1.0000 0.86631  0.03324  0.24619  Biso   1.000  U
  H1       1.0000 0.22080  0.63450  0.29730  Biso   1.000  H
  H2       1.0000 0.06730  0.70820  0.26990  Biso   1.000  H
  H3       1.0000 0.04450  0.72240  0.15670  Biso   1.000  H
  H4       1.0000 0.16460  0.65100  0.07720  Biso   1.000  H
  H5       1.0000 0.30500  0.57770  0.11230  Biso   1.000  H
  H6       1.0000 0.20100  0.44510  0.30280  Biso   1.000  H
  H7       1.0000 0.03570  0.37560  0.27020  Biso   1.000  H
  H8       1.0000 0.00580  0.32780  0.15710  Biso   1.000  H
  H9       1.0000 0.14800  0.34480  0.08070  Biso   1.000  H
  H10      1.0000 0.31070  0.41020  0.11670  Biso   1.000  H
  H11      1.0000 0.48500  0.43170  0.37980  Biso   1.000  H
  H12      1.0000 0.49900  0.31640  0.42060  Biso   1.000  H
  H13      1.0000 0.51880  0.20050  0.34190  Biso   1.000  H
  H14      1.0000 0.52210  0.21000  0.22840  Biso   1.000  H
  H15      1.0000 0.50650  0.32680  0.19570  Biso   1.000  H
  H16      1.0000 0.71860  0.51330  0.18300  Biso   1.000  H
  H17      1.0000 0.90940  0.52030  0.20180  Biso   1.000  H
  H18      1.0000 0.97220  0.55220  0.31520  Biso   1.000  H
  H19      1.0000 0.83820  0.56470  0.40050  Biso   1.000  H
  H20      1.0000 0.64770  0.55110  0.37490  Biso   1.000  H
  H21      1.0000 0.53300  0.66180  0.14980  Biso   1.000  H
  H22      1.0000 0.55600  0.79380  0.15240  Biso   1.000  H
  H23      1.0000 0.54560  0.87810  0.25390  Biso   1.000  H
  H24      1.0000 0.51220  0.83030  0.35290  Biso   1.000  H
  H25      1.0000 0.48920  0.69830  0.35030  Biso   1.000  H
  H26      1.0000 0.09390  0.96150  0.81610  Biso   1.000  H
  H27      1.0000 0.90270  0.96700  0.79790  Biso   1.000  H
  H28      1.0000 0.83910  0.96270  0.68450  Biso   1.000  H
  H29      1.0000 0.97740  0.96990  0.60300  Biso   1.000  H
  H30      1.0000 0.16560  0.96870  0.62850  Biso   1.000  H
  H31      1.0000 0.29650  0.81540  0.83270  Biso   1.000  H
  H32      1.0000 0.27400  0.68060  0.82040  Biso   1.000  H
  H33      1.0000 0.27810  0.61010  0.71640  Biso   1.000  H
  H34      1.0000 0.29250  0.67040  0.62020  Biso   1.000  H
  H35      1.0000 0.31360  0.80520  0.63870  Biso   1.000  H
  H36      1.0000 0.57900  0.84810  0.67670  Biso   1.000  H
  H37      1.0000 0.74650  0.78360  0.69050  Biso   1.000  H
  H38      1.0000 0.80820  0.77740  0.80060  Biso   1.000  H
  H39      1.0000 0.69300  0.83700  0.89140  Biso   1.000  H
  H40      1.0000 0.53690  0.90210  0.86910  Biso   1.000  H
  H41      1.0000 0.59150  0.05170  0.68400  Biso   1.000  H
  H42      1.0000 0.75620  0.12140  0.70020  Biso   1.000  H
  H43      1.0000 0.81030  0.16700  0.81100  Biso   1.000  H
  H44      1.0000 0.70380  0.13370  0.89910  Biso   1.000  H
  H45      1.0000 0.54250  0.06490  0.87610  Biso   1.000  H
  H46      1.0000 0.31760  0.10690  0.66480  Biso   1.000  H
  H47      1.0000 0.30490  0.22760  0.64860  Biso   1.000  H
  H48      1.0000 0.31800  0.31500  0.75060  Biso   1.000  H
  H49      1.0000 0.31540  0.27570  0.85420  Biso   1.000  H
  H50      1.0000 0.31420  0.14160  0.85970  Biso   1.000  H
  H51      1.0000 0.72080  0.36550  0.70270  Biso   1.000  H
  H52      1.0000 0.56730  0.29180  0.73010  Biso   1.000  H
  H53      1.0000 0.54450  0.27760  0.84330  Biso   1.000  H
  H54      1.0000 0.66460  0.34900  0.92280  Biso   1.000  H
  H55      1.0000 0.80500  0.42230  0.88770  Biso   1.000  H
  H56      1.0000 0.70100  0.55490  0.69720  Biso   1.000  H
  H57      1.0000 0.53570  0.62440  0.72980  Biso   1.000  H
  H58      1.0000 0.50580  0.67220  0.84290  Biso   1.000  H
  H59      1.0000 0.64800  0.65520  0.91930  Biso   1.000  H
  H60      1.0000 0.81070  0.58980  0.88330  Biso   1.000  H
  H61      1.0000 0.98500  0.56830  0.62020  Biso   1.000  H
  H62      1.0000 0.99900  0.68360  0.57940  Biso   1.000  H
  H63      1.0000 0.01880  0.79950  0.65810  Biso   1.000  H
  H64      1.0000 0.02210  0.79000  0.77160  Biso   1.000  H
  H65      1.0000 0.00650  0.67320  0.80430  Biso   1.000  H
  H66      1.0000 0.21860  0.48670  0.81700  Biso   1.000  H
  H67      1.0000 0.40940  0.47970  0.79820  Biso   1.000  H
  H68      1.0000 0.47220  0.44780  0.68480  Biso   1.000  H
  H69      1.0000 0.33820  0.43530  0.59950  Biso   1.000  H
  H70      1.0000 0.14770  0.44890  0.62510  Biso   1.000  H
  H71      1.0000 0.03300  0.33820  0.85020  Biso   1.000  H
  H72      1.0000 0.05600  0.20620  0.84760  Biso   1.000  H
  H73      1.0000 0.04560  0.12190  0.74610  Biso   1.000  H
  H74      1.0000 0.01220  0.16970  0.64710  Biso   1.000  H
  H75      1.0000 0.98920  0.30170  0.64970  Biso   1.000  H
  H76      1.0000 0.59390  0.03850  0.18390  Biso   1.000  H
  H77      1.0000 0.40270  0.03300  0.20210  Biso   1.000  H
  H78      1.0000 0.33910  0.03730  0.31550  Biso   1.000  H
  H79      1.0000 0.47740  0.03010  0.39700  Biso   1.000  H
  H80      1.0000 0.66560  0.03130  0.37150  Biso   1.000  H
  H81      1.0000 0.79650  0.18460  0.16730  Biso   1.000  H
  H82      1.0000 0.77400  0.31940  0.17960  Biso   1.000  H
  H83      1.0000 0.77810  0.38990  0.28360  Biso   1.000  H
  H84      1.0000 0.79250  0.32960  0.37980  Biso   1.000  H
  H85      1.0000 0.81360  0.19480  0.36130  Biso   1.000  H
  H86      1.0000 0.07900  0.15190  0.32330  Biso   1.000  H
  H87      1.0000 0.24650  0.21640  0.30950  Biso   1.000  H
  H88      1.0000 0.30820  0.22260  0.19940  Biso   1.000  H
  H89      1.0000 0.19300  0.16300  0.10860  Biso   1.000  H
  H90      1.0000 0.03690  0.09790  0.13090  Biso   1.000  H
  H91      1.0000 0.09150  0.94830  0.31600  Biso   1.000  H
  H92      1.0000 0.25620  0.87860  0.29980  Biso   1.000  H
  H93      1.0000 0.31030  0.83300  0.18900  Biso   1.000  H
  H94      1.0000 0.20380  0.86630  0.10090  Biso   1.000  H
  H95      1.0000 0.04250  0.93510  0.12390  Biso   1.000  H
  H96      1.0000 0.81760  0.89310  0.33520  Biso   1.000  H
  H97      1.0000 0.80490  0.77240  0.35140  Biso   1.000  H
  H98      1.0000 0.81800  0.68500  0.24940  Biso   1.000  H
  H99      1.0000 0.81540  0.72430  0.14580  Biso   1.000  H
  H100     1.0000 0.81420  0.85840  0.14030  Biso   1.000  H
  C1       1.0000 0.20850  0.63800  0.25230  Biso   1.000  C
  C2       1.0000 0.11610  0.68380  0.23660  Biso   1.000  C
  C3       1.0000 0.10120  0.69080  0.16960  Biso   1.000  C
  C4       1.0000 0.17340  0.64930  0.12280  Biso   1.000  C
  C5       1.0000 0.25760  0.60580  0.14440  Biso   1.000  C
  C6       1.0000 0.19080  0.42370  0.25790  Biso   1.000  C
  C7       1.0000 0.09010  0.38290  0.23830  Biso   1.000  C
  C8       1.0000 0.07270  0.35380  0.17140  Biso   1.000  C
  C9       1.0000 0.15730  0.36430  0.12620  Biso   1.000  C
  C10      1.0000 0.25490  0.40350  0.14800  Biso   1.000  C
  C11      1.0000 0.49110  0.38570  0.34950  Biso   1.000  C
  C12      1.0000 0.50050  0.31710  0.37460  Biso   1.000  C
  C13      1.0000 0.51230  0.24830  0.32780  Biso   1.000  C
  C14      1.0000 0.51400  0.25420  0.26060  Biso   1.000  C
  C15      1.0000 0.50380  0.32450  0.24150  Biso   1.000  C
  C16      1.0000 0.74420  0.52360  0.22720  Biso   1.000  C
  C17      1.0000 0.85800  0.52830  0.23740  Biso   1.000  C
  C18      1.0000 0.89500  0.54610  0.30510  Biso   1.000  C
  C19      1.0000 0.81510  0.55410  0.35570  Biso   1.000  C
  C20      1.0000 0.70060  0.54650  0.34020  Biso   1.000  C
  C21      1.0000 0.52880  0.69560  0.19050  Biso   1.000  C
  C22      1.0000 0.54260  0.77470  0.19210  Biso   1.000  C
  C23      1.0000 0.53640  0.82510  0.25290  Biso   1.000  C
  C24      1.0000 0.51630  0.79650  0.31220  Biso   1.000  C
  C25      1.0000 0.50260  0.71750  0.31060  Biso   1.000  C
  C26      1.0000 0.06920  0.96420  0.77270  Biso   1.000  C
  C27      1.0000 0.95400  0.96570  0.76250  Biso   1.000  C
  C28      1.0000 0.91620  0.96500  0.69540  Biso   1.000  C
  C29      1.0000 0.99920  0.96790  0.64700  Biso   1.000  C
  C30      1.0000 0.11230  0.96770  0.66250  Biso   1.000  C
  C31      1.0000 0.29630  0.78560  0.79000  Biso   1.000  C
  C32      1.0000 0.28320  0.70460  0.78290  Biso   1.000  C
  C33      1.0000 0.28420  0.66370  0.72150  Biso   1.000  C
  C34      1.0000 0.29410  0.69890  0.66340  Biso   1.000  C
  C35      1.0000 0.30650  0.77920  0.67520  Biso   1.000  C
  C36      1.0000 0.60370  0.84650  0.72020  Biso   1.000  C
  C37      1.0000 0.70490  0.80670  0.72770  Biso   1.000  C
  C38      1.0000 0.74120  0.80300  0.79290  Biso   1.000  C
  C39      1.0000 0.67300  0.83930  0.84710  Biso   1.000  C
  C40      1.0000 0.57950  0.87700  0.83310  Biso   1.000  C
  C41      1.0000 0.61530  0.06920  0.72790  Biso   1.000  C
  C42      1.0000 0.71330  0.11090  0.73650  Biso   1.000  C
  C43      1.0000 0.74520  0.13670  0.80200  Biso   1.000  C
  C44      1.0000 0.68110  0.11790  0.85470  Biso   1.000  C
  C45      1.0000 0.58580  0.07650  0.84040  Biso   1.000  C
  C46      1.0000 0.31510  0.14420  0.70340  Biso   1.000  C
  C47      1.0000 0.31040  0.21320  0.69090  Biso   1.000  C
  C48      1.0000 0.31490  0.26220  0.75160  Biso   1.000  C
  C49      1.0000 0.31530  0.23900  0.81510  Biso   1.000  C
  C50      1.0000 0.31560  0.15960  0.81880  Biso   1.000  C
  C51      1.0000 0.61000  0.61160  0.54430  Biso   1.000  C
  C52      1.0000 0.11850  0.81800  0.46160  Biso   1.000  C
  C53      1.0000 0.74200  0.82050  0.52100  Biso   1.000  C
  C54      1.0000 0.95600  0.18180  0.99740  Biso   1.000  C
  C55      1.0000 0.55420  0.17600  0.05400  Biso   1.000  C
  C56      1.0000 0.70850  0.36200  0.74770  Biso   1.000  C
  C57      1.0000 0.61610  0.31620  0.76340  Biso   1.000  C
  C58      1.0000 0.60120  0.30920  0.83040  Biso   1.000  C
  C59      1.0000 0.67340  0.35070  0.87720  Biso   1.000  C
  C60      1.0000 0.75760  0.39420  0.85560  Biso   1.000  C
  C61      1.0000 0.69080  0.57630  0.74210  Biso   1.000  C
  C62      1.0000 0.59010  0.61710  0.76170  Biso   1.000  C
  C63      1.0000 0.57270  0.64620  0.82860  Biso   1.000  C
  C64      1.0000 0.65730  0.63570  0.87380  Biso   1.000  C
  C65      1.0000 0.75490  0.59650  0.85200  Biso   1.000  C
  C66      1.0000 0.99110  0.61430  0.65050  Biso   1.000  C
  C67      1.0000 0.00050  0.68290  0.62540  Biso   1.000  C
  C68      1.0000 0.01230  0.75170  0.67220  Biso   1.000  C
  C69      1.0000 0.01400  0.74580  0.73940  Biso   1.000  C
  C70      1.0000 0.00380  0.67550  0.75850  Biso   1.000  C
  C71      1.0000 0.24420  0.47640  0.77280  Biso   1.000  C
  C72      1.0000 0.35800  0.47170  0.76260  Biso   1.000  C
  C73      1.0000 0.39500  0.45390  0.69490  Biso   1.000  C
  C74      1.0000 0.31510  0.44590  0.64430  Biso   1.000  C
  C75      1.0000 0.20060  0.45350  0.65980  Biso   1.000  C
  C76      1.0000 0.02880  0.30440  0.80950  Biso   1.000  C
  C77      1.0000 0.04260  0.22530  0.80790  Biso   1.000  C
  C78      1.0000 0.03640  0.17490  0.74710  Biso   1.000  C
  C79      1.0000 0.01630  0.20350  0.68780  Biso   1.000  C
  C80      1.0000 0.00260  0.28250  0.68940  Biso   1.000  C
  C81      1.0000 0.56920  0.03580  0.22730  Biso   1.000  C
  C82      1.0000 0.45400  0.03430  0.23750  Biso   1.000  C
  C83      1.0000 0.41620  0.03500  0.30460  Biso   1.000  C
  C84      1.0000 0.49920  0.03210  0.35300  Biso   1.000  C
  C85      1.0000 0.61230  0.03230  0.33750  Biso   1.000  C
  C86      1.0000 0.79630  0.21440  0.21000  Biso   1.000  C
  C87      1.0000 0.78320  0.29540  0.21710  Biso   1.000  C
  C88      1.0000 0.78420  0.33630  0.27850  Biso   1.000  C
  C89      1.0000 0.79410  0.30110  0.33660  Biso   1.000  C
  C90      1.0000 0.80650  0.22080  0.32480  Biso   1.000  C
  C91      1.0000 0.10370  0.15350  0.27980  Biso   1.000  C
  C92      1.0000 0.20490  0.19330  0.27230  Biso   1.000  C
  C93      1.0000 0.24120  0.19700  0.20710  Biso   1.000  C
  C94      1.0000 0.17300  0.16070  0.15290  Biso   1.000  C
  C95      1.0000 0.07950  0.12300  0.16690  Biso   1.000  C
  C96      1.0000 0.11530  0.93080  0.27210  Biso   1.000  C
  C97      1.0000 0.21330  0.88910  0.26350  Biso   1.000  C
  C98      1.0000 0.24520  0.86330  0.19800  Biso   1.000  C
  C99      1.0000 0.18110  0.88210  0.14530  Biso   1.000  C
  C100     1.0000 0.08580  0.92350  0.15960  Biso   1.000  C
  C101     1.0000 0.81510  0.85580  0.29660  Biso   1.000  C
  C102     1.0000 0.81040  0.78680  0.30910  Biso   1.000  C
  C103     1.0000 0.81490  0.73780  0.24840  Biso   1.000  C
  C104     1.0000 0.81530  0.76100  0.18490  Biso   1.000  C
  C105     1.0000 0.81560  0.84040  0.18120  Biso   1.000  C
  C106     1.0000 0.11000  0.38840  0.45570  Biso   1.000  C
  C107     1.0000 0.61850  0.18200  0.53840  Biso   1.000  C
  C108     1.0000 0.24200  0.17950  0.47900  Biso   1.000  C
  C109     1.0000 0.45600  0.81820  0.00260  Biso   1.000  C
  C110     1.0000 0.05420  0.82400  0.94600  Biso   1.000  C
  S1       1.0000 0.57620  0.50710  0.53067  Biso   1.000  S
  S2       1.0000 0.26380  0.78730  0.45710  Biso   1.000  S
  S3       1.0000 0.72590  0.92035  0.51168  Biso   1.000  S
  S4       1.0000 0.99120  0.09550  0.96260  Biso   1.000  S
  S5       1.0000 0.45100  0.21850  0.01620  Biso   1.000  S
  S6       1.0000 0.07620  0.49290  0.46933  Biso   1.000  S
  S7       1.0000 0.76380  0.21270  0.54290  Biso   1.000  S
  S8       1.0000 0.22590  0.07965  0.48832  Biso   1.000  S
  S9       1.0000 0.49120  0.90450  0.03740  Biso   1.000  S
  S10      1.0000 0.95100  0.78150  0.98380  Biso   1.000  S
  N1       1.0000 0.27620  0.60110  0.20880  Biso   1.000  N
  N2       1.0000 0.27260  0.43250  0.21340  Biso   1.000  N
  N3       1.0000 0.49030  0.38900  0.28330  Biso   1.000  N
  N4       1.0000 0.66400  0.53280  0.27710  Biso   1.000  N
  N5       1.0000 0.14940  0.96630  0.72600  Biso   1.000  N
  N6       1.0000 0.30830  0.81940  0.73670  Biso   1.000  N
  N7       1.0000 0.54140  0.88140  0.76940  Biso   1.000  N
  N8       1.0000 0.54930  0.05100  0.77840  Biso   1.000  N
  N9       1.0000 0.31790  0.11190  0.76030  Biso   1.000  N
  N10      1.0000 0.50880  0.66700  0.24980  Biso   1.000  N
  N11      1.0000 0.77620  0.39890  0.79120  Biso   1.000  N
  N12      1.0000 0.77260  0.56750  0.78660  Biso   1.000  N
  N13      1.0000 0.99030  0.61100  0.71670  Biso   1.000  N
  N14      1.0000 0.16400  0.46720  0.72290  Biso   1.000  N
  N15      1.0000 0.64940  0.03370  0.27400  Biso   1.000  N
  N16      1.0000 0.80830  0.18060  0.26330  Biso   1.000  N
  N17      1.0000 0.04140  0.11860  0.23060  Biso   1.000  N
  N18      1.0000 0.04930  0.94900  0.22160  Biso   1.000  N
  N19      1.0000 0.81790  0.88810  0.23970  Biso   1.000  N
  N20      1.0000 0.00880  0.33300  0.75020  Biso   1.000  N
  O1       1.0000 0.40150  0.55160  0.33510  Biso   1.000  O
  O2       1.0000 0.49280  0.49530  0.15970  Biso   1.000  O
  O3       1.0000 0.39620  0.95730  0.66410  Biso   1.000  O
  O4       1.0000 0.33300  0.97510  0.84410  Biso   1.000  O
  O5       1.0000 0.45670  0.50720  0.51480  Biso   1.000  O
  O6       1.0000 0.64550  0.47320  0.47510  Biso   1.000  O
  O7       1.0000 0.60860  0.48370  0.59410  Biso   1.000  O
  O8       1.0000 0.27010  0.72710  0.40040  Biso   1.000  O
  O9       1.0000 0.31700  0.78700  0.51980  Biso   1.000  O
  O10      1.0000 0.32180  0.85280  0.43280  Biso   1.000  O
  O11      1.0000 0.64340  0.92000  0.45890  Biso   1.000  O
  O12      1.0000 0.68690  0.95400  0.57600  Biso   1.000  O
  O13      1.0000 0.84150  0.94030  0.49600  Biso   1.000  O
  O14      1.0000 0.03990  0.05600  0.01530  Biso   1.000  O
  O15      1.0000 0.05560  0.09280  0.90490  Biso   1.000  O
  O16      1.0000 0.88510  0.05630  0.94780  Biso   1.000  O
  O17      1.0000 0.39770  0.14470  0.98820  Biso   1.000  O
  O18      1.0000 0.51550  0.25350  0.96710  Biso   1.000  O
  O19      1.0000 0.39960  0.26900  0.06470  Biso   1.000  O
  O20      1.0000 0.90150  0.44840  0.66490  Biso   1.000  O
  O21      1.0000 0.99280  0.50470  0.84030  Biso   1.000  O
  O22      1.0000 0.89620  0.04270  0.33590  Biso   1.000  O
  O23      1.0000 0.83300  0.02490  0.15590  Biso   1.000  O
  O24      1.0000 0.95670  0.49280  0.48520  Biso   1.000  O
  O25      1.0000 0.14550  0.52680  0.52490  Biso   1.000  O
  O26      1.0000 0.10860  0.51630  0.40590  Biso   1.000  O
  O27      1.0000 0.77010  0.27290  0.59960  Biso   1.000  O
  O28      1.0000 0.81700  0.21300  0.48020  Biso   1.000  O
  O29      1.0000 0.82180  0.14720  0.56720  Biso   1.000  O
  O30      1.0000 0.14340  0.08000  0.54110  Biso   1.000  O
  O31      1.0000 0.18690  0.04600  0.42400  Biso   1.000  O
  O32      1.0000 0.34150  0.05970  0.50400  Biso   1.000  O
  O33      1.0000 0.53990  0.94400  0.98470  Biso   1.000  O
  O34      1.0000 0.55560  0.90720  0.09510  Biso   1.000  O
  O35      1.0000 0.38510  0.94370  0.05220  Biso   1.000  O
  O36      1.0000 0.89770  0.85530  0.01180  Biso   1.000  O
  O37      1.0000 0.01550  0.74650  0.03290  Biso   1.000  O
  O38      1.0000 0.89960  0.73100  0.93530  Biso   1.000  O
  F1       1.0000 0.57650  0.63940  0.48990  Biso   1.000  F
  F2       1.0000 0.55550  0.64860  0.59630  Biso   1.000  F
  F3       1.0000 0.72020  0.62230  0.55360  Biso   1.000  F
  F4       1.0000 0.06480  0.77380  0.48580  Biso   1.000  F
  F5       1.0000 0.08180  0.84300  0.41140  Biso   1.000  F
  F6       1.0000 0.12100  0.88530  0.51040  Biso   1.000  F
  F7       1.0000 0.81770  0.81100  0.56760  Biso   1.000  F
  F8       1.0000 0.78200  0.77680  0.46620  Biso   1.000  F
  F9       1.0000 0.64100  0.79380  0.54040  Biso   1.000  F
  F10      1.0000 0.89390  0.18490  0.05160  Biso   1.000  F
  F11      1.0000 0.03760  0.22620  0.01790  Biso   1.000  F
  F12      1.0000 0.89160  0.22470  0.95220  Biso   1.000  F
  F13      1.0000 0.62520  0.23430  0.08390  Biso   1.000  F
  F14      1.0000 0.51590  0.14060  0.10600  Biso   1.000  F
  F15      1.0000 0.62070  0.12140  0.01600  Biso   1.000  F
  F16      1.0000 0.07650  0.36060  0.51010  Biso   1.000  F
  F17      1.0000 0.05550  0.35140  0.40370  Biso   1.000  F
  F18      1.0000 0.22020  0.37770  0.44640  Biso   1.000  F
  F19      1.0000 0.56480  0.22620  0.51420  Biso   1.000  F
  F20      1.0000 0.58180  0.15700  0.58860  Biso   1.000  F
  F21      1.0000 0.62100  0.11470  0.48960  Biso   1.000  F
  F22      1.0000 0.31770  0.18900  0.43240  Biso   1.000  F
  F23      1.0000 0.28200  0.22320  0.53380  Biso   1.000  F
  F24      1.0000 0.14100  0.20620  0.45960  Biso   1.000  F
  F25      1.0000 0.39390  0.81510  0.94840  Biso   1.000  F
  F26      1.0000 0.53760  0.77380  0.98210  Biso   1.000  F
  F27      1.0000 0.39160  0.77530  0.04780  Biso   1.000  F
  F28      1.0000 0.12520  0.76570  0.91610  Biso   1.000  F
  F29      1.0000 0.01590  0.85940  0.89400  Biso   1.000  F
  F30      1.0000 0.12070  0.87860  0.98400  Biso   1.000  F
