data_image0
_cell_length_a       15.199
_cell_length_b       15.199
_cell_length_c       15.589
_cell_angle_alpha    90
_cell_angle_beta     90
_cell_angle_gamma    120

_symmetry_space_group_name_H-M    P 1
_symmetry_int_tables_number       1

loop_
  _symmetry_equiv_pos_as_xyz
  'x, y, z'

loop_
  _atom_site_label
  _atom_site_occupancy
  _atom_site_fract_x
  _atom_site_fract_y
  _atom_site_fract_z
  _atom_site_thermal_displace_type
  _atom_site_B_iso_or_equiv
  _atom_site_type_symbol
  Tb1      1.0000 0.66667  0.33334  0.75000  Biso   1.000  Tb
  Tb2      1.0000 0.33333  0.66666  0.75000  Biso   1.000  Tb
  Tb3      1.0000 0.33333  0.66666  0.25000  Biso   1.000  Tb
  Tb4      1.0000 0.66667  0.33334  0.25000  Biso   1.000  Tb
  Fe1      1.0000 0.50000  0.00000  0.00000  Biso   1.000  Fe
  Fe2      1.0000 0.50000  0.50000  0.00000  Biso   1.000  Fe
  Fe3      1.0000 0.00000  0.50000  0.00000  Biso   1.000  Fe
  Fe4      1.0000 0.50000  0.00000  0.50000  Biso   1.000  Fe
  Fe5      1.0000 0.00000  0.50000  0.50000  Biso   1.000  Fe
  Fe6      1.0000 0.50000  0.50000  0.50000  Biso   1.000  Fe
  H1       1.0000 0.28790  0.05550  0.84470  Biso   1.000  H
  H2       1.0000 0.76760  0.71210  0.84470  Biso   1.000  H
  H3       1.0000 0.94450  0.23240  0.84470  Biso   1.000  H
  H4       1.0000 0.71210  0.94450  0.84470  Biso   1.000  H
  H5       1.0000 0.23240  0.28790  0.84470  Biso   1.000  H
  H6       1.0000 0.05550  0.76760  0.84470  Biso   1.000  H
  H7       1.0000 0.23240  0.94450  0.65530  Biso   1.000  H
  H8       1.0000 0.05550  0.28790  0.65530  Biso   1.000  H
  H9       1.0000 0.71210  0.76760  0.65530  Biso   1.000  H
  H10      1.0000 0.76760  0.05550  0.65530  Biso   1.000  H
  H11      1.0000 0.94450  0.71210  0.65530  Biso   1.000  H
  H12      1.0000 0.28790  0.23240  0.65530  Biso   1.000  H
  H13      1.0000 0.71210  0.94450  0.15530  Biso   1.000  H
  H14      1.0000 0.23240  0.28790  0.15530  Biso   1.000  H
  H15      1.0000 0.05550  0.76760  0.15530  Biso   1.000  H
  H16      1.0000 0.28790  0.05550  0.15530  Biso   1.000  H
  H17      1.0000 0.76760  0.71210  0.15530  Biso   1.000  H
  H18      1.0000 0.94450  0.23240  0.15530  Biso   1.000  H
  H19      1.0000 0.76760  0.05550  0.34470  Biso   1.000  H
  H20      1.0000 0.94450  0.71210  0.34470  Biso   1.000  H
  H21      1.0000 0.28790  0.23240  0.34470  Biso   1.000  H
  H22      1.0000 0.23240  0.94450  0.34470  Biso   1.000  H
  H23      1.0000 0.05550  0.28790  0.34470  Biso   1.000  H
  H24      1.0000 0.71210  0.76760  0.34470  Biso   1.000  H
  H25      1.0000 0.19870  0.09935  0.75000  Biso   1.000  H
  H26      1.0000 0.90065  0.80130  0.75000  Biso   1.000  H
  H27      1.0000 0.90065  0.09935  0.75000  Biso   1.000  H
  H28      1.0000 0.80130  0.90065  0.75000  Biso   1.000  H
  H29      1.0000 0.09935  0.19870  0.75000  Biso   1.000  H
  H30      1.0000 0.09935  0.90065  0.75000  Biso   1.000  H
  H31      1.0000 0.80130  0.90065  0.25000  Biso   1.000  H
  H32      1.0000 0.09935  0.19870  0.25000  Biso   1.000  H
  H33      1.0000 0.09935  0.90065  0.25000  Biso   1.000  H
  H34      1.0000 0.19870  0.09935  0.25000  Biso   1.000  H
  H35      1.0000 0.90065  0.80130  0.25000  Biso   1.000  H
  H36      1.0000 0.90065  0.09935  0.25000  Biso   1.000  H
  C1       1.0000 0.32220  0.10850  0.80600  Biso   1.000  C
  C2       1.0000 0.42640  0.16170  0.80390  Biso   1.000  C
  C3       1.0000 0.49180  0.13890  0.86120  Biso   1.000  C
  C4       1.0000 0.78630  0.67780  0.80600  Biso   1.000  C
  C5       1.0000 0.73530  0.57360  0.80390  Biso   1.000  C
  C6       1.0000 0.64710  0.50820  0.86120  Biso   1.000  C
  C7       1.0000 0.89150  0.21370  0.80600  Biso   1.000  C
  C8       1.0000 0.83830  0.26470  0.80390  Biso   1.000  C
  C9       1.0000 0.86110  0.35290  0.86120  Biso   1.000  C
  C10      1.0000 0.67780  0.89150  0.80600  Biso   1.000  C
  C11      1.0000 0.57360  0.83830  0.80390  Biso   1.000  C
  C12      1.0000 0.50820  0.86110  0.86120  Biso   1.000  C
  C13      1.0000 0.21370  0.32220  0.80600  Biso   1.000  C
  C14      1.0000 0.26470  0.42640  0.80390  Biso   1.000  C
  C15      1.0000 0.35290  0.49180  0.86120  Biso   1.000  C
  C16      1.0000 0.10850  0.78630  0.80600  Biso   1.000  C
  C17      1.0000 0.16170  0.73530  0.80390  Biso   1.000  C
  C18      1.0000 0.13890  0.64710  0.86120  Biso   1.000  C
  C19      1.0000 0.21370  0.89150  0.69400  Biso   1.000  C
  C20      1.0000 0.26470  0.83830  0.69610  Biso   1.000  C
  C21      1.0000 0.35290  0.86110  0.63880  Biso   1.000  C
  C22      1.0000 0.10850  0.32220  0.69400  Biso   1.000  C
  C23      1.0000 0.16170  0.42640  0.69610  Biso   1.000  C
  C24      1.0000 0.13890  0.49180  0.63880  Biso   1.000  C
  C25      1.0000 0.67780  0.78630  0.69400  Biso   1.000  C
  C26      1.0000 0.57360  0.73530  0.69610  Biso   1.000  C
  C27      1.0000 0.50820  0.64710  0.63880  Biso   1.000  C
  C28      1.0000 0.78630  0.10850  0.69400  Biso   1.000  C
  C29      1.0000 0.73530  0.16170  0.69610  Biso   1.000  C
  C30      1.0000 0.64710  0.13890  0.63880  Biso   1.000  C
  C31      1.0000 0.89150  0.67780  0.69400  Biso   1.000  C
  C32      1.0000 0.83830  0.57360  0.69610  Biso   1.000  C
  C33      1.0000 0.86110  0.50820  0.63880  Biso   1.000  C
  C34      1.0000 0.32220  0.21370  0.69400  Biso   1.000  C
  C35      1.0000 0.42640  0.26470  0.69610  Biso   1.000  C
  C36      1.0000 0.49180  0.35290  0.63880  Biso   1.000  C
  C37      1.0000 0.67780  0.89150  0.19400  Biso   1.000  C
  C38      1.0000 0.57360  0.83830  0.19610  Biso   1.000  C
  C39      1.0000 0.50820  0.86110  0.13880  Biso   1.000  C
  C40      1.0000 0.21370  0.32220  0.19400  Biso   1.000  C
  C41      1.0000 0.26470  0.42640  0.19610  Biso   1.000  C
  C42      1.0000 0.35290  0.49180  0.13880  Biso   1.000  C
  C43      1.0000 0.10850  0.78630  0.19400  Biso   1.000  C
  C44      1.0000 0.16170  0.73530  0.19610  Biso   1.000  C
  C45      1.0000 0.13890  0.64710  0.13880  Biso   1.000  C
  C46      1.0000 0.32220  0.10850  0.19400  Biso   1.000  C
  C47      1.0000 0.42640  0.16170  0.19610  Biso   1.000  C
  C48      1.0000 0.49180  0.13890  0.13880  Biso   1.000  C
  C49      1.0000 0.78630  0.67780  0.19400  Biso   1.000  C
  C50      1.0000 0.73530  0.57360  0.19610  Biso   1.000  C
  C51      1.0000 0.64710  0.50820  0.13880  Biso   1.000  C
  C52      1.0000 0.89150  0.21370  0.19400  Biso   1.000  C
  C53      1.0000 0.83830  0.26470  0.19610  Biso   1.000  C
  C54      1.0000 0.86110  0.35290  0.13880  Biso   1.000  C
  C55      1.0000 0.78630  0.10850  0.30600  Biso   1.000  C
  C56      1.0000 0.73530  0.16170  0.30390  Biso   1.000  C
  C57      1.0000 0.64710  0.13890  0.36120  Biso   1.000  C
  C58      1.0000 0.89150  0.67780  0.30600  Biso   1.000  C
  C59      1.0000 0.83830  0.57360  0.30390  Biso   1.000  C
  C60      1.0000 0.86110  0.50820  0.36120  Biso   1.000  C
  C61      1.0000 0.32220  0.21370  0.30600  Biso   1.000  C
  C62      1.0000 0.42640  0.26470  0.30390  Biso   1.000  C
  C63      1.0000 0.49180  0.35290  0.36120  Biso   1.000  C
  C64      1.0000 0.21370  0.89150  0.30600  Biso   1.000  C
  C65      1.0000 0.26470  0.83830  0.30390  Biso   1.000  C
  C66      1.0000 0.35290  0.86110  0.36120  Biso   1.000  C
  C67      1.0000 0.10850  0.32220  0.30600  Biso   1.000  C
  C68      1.0000 0.16170  0.42640  0.30390  Biso   1.000  C
  C69      1.0000 0.13890  0.49180  0.36120  Biso   1.000  C
  C70      1.0000 0.67780  0.78630  0.30600  Biso   1.000  C
  C71      1.0000 0.57360  0.73530  0.30390  Biso   1.000  C
  C72      1.0000 0.50820  0.64710  0.36120  Biso   1.000  C
  C73      1.0000 0.26940  0.13470  0.75000  Biso   1.000  C
  C74      1.0000 0.86530  0.73060  0.75000  Biso   1.000  C
  C75      1.0000 0.86530  0.13470  0.75000  Biso   1.000  C
  C76      1.0000 0.73060  0.86530  0.75000  Biso   1.000  C
  C77      1.0000 0.13470  0.26940  0.75000  Biso   1.000  C
  C78      1.0000 0.13470  0.86530  0.75000  Biso   1.000  C
  C79      1.0000 0.73060  0.86530  0.25000  Biso   1.000  C
  C80      1.0000 0.13470  0.26940  0.25000  Biso   1.000  C
  C81      1.0000 0.13470  0.86530  0.25000  Biso   1.000  C
  C82      1.0000 0.26940  0.13470  0.25000  Biso   1.000  C
  C83      1.0000 0.86530  0.73060  0.25000  Biso   1.000  C
  C84      1.0000 0.86530  0.13470  0.25000  Biso   1.000  C
  N1       1.0000 0.47780  0.23890  0.75000  Biso   1.000  N
  N2       1.0000 0.76110  0.52220  0.75000  Biso   1.000  N
  N3       1.0000 0.76110  0.23890  0.75000  Biso   1.000  N
  N4       1.0000 0.52220  0.76110  0.75000  Biso   1.000  N
  N5       1.0000 0.23890  0.47780  0.75000  Biso   1.000  N
  N6       1.0000 0.23890  0.76110  0.75000  Biso   1.000  N
  N7       1.0000 0.52220  0.76110  0.25000  Biso   1.000  N
  N8       1.0000 0.23890  0.47780  0.25000  Biso   1.000  N
  N9       1.0000 0.23890  0.76110  0.25000  Biso   1.000  N
  N10      1.0000 0.47780  0.23890  0.25000  Biso   1.000  N
  N11      1.0000 0.76110  0.52220  0.25000  Biso   1.000  N
  N12      1.0000 0.76110  0.23890  0.25000  Biso   1.000  N
  O1       1.0000 0.58640  0.19890  0.85652  Biso   1.000  O
  O2       1.0000 0.44790  0.06310  0.90800  Biso   1.000  O
  O3       1.0000 0.61250  0.41360  0.85652  Biso   1.000  O
  O4       1.0000 0.61520  0.55210  0.90800  Biso   1.000  O
  O5       1.0000 0.80110  0.38750  0.85652  Biso   1.000  O
  O6       1.0000 0.93690  0.38480  0.90800  Biso   1.000  O
  O7       1.0000 0.41360  0.80110  0.85652  Biso   1.000  O
  O8       1.0000 0.55210  0.93690  0.90800  Biso   1.000  O
  O9       1.0000 0.38750  0.58640  0.85652  Biso   1.000  O
  O10      1.0000 0.38480  0.44790  0.90800  Biso   1.000  O
  O11      1.0000 0.19890  0.61250  0.85652  Biso   1.000  O
  O12      1.0000 0.06310  0.61520  0.90800  Biso   1.000  O
  O13      1.0000 0.38750  0.80110  0.64348  Biso   1.000  O
  O14      1.0000 0.38480  0.93690  0.59200  Biso   1.000  O
  O15      1.0000 0.19890  0.58640  0.64348  Biso   1.000  O
  O16      1.0000 0.06310  0.44790  0.59200  Biso   1.000  O
  O17      1.0000 0.41360  0.61250  0.64348  Biso   1.000  O
  O18      1.0000 0.55210  0.61520  0.59200  Biso   1.000  O
  O19      1.0000 0.61250  0.19890  0.64348  Biso   1.000  O
  O20      1.0000 0.61520  0.06310  0.59200  Biso   1.000  O
  O21      1.0000 0.80110  0.41360  0.64348  Biso   1.000  O
  O22      1.0000 0.93690  0.55210  0.59200  Biso   1.000  O
  O23      1.0000 0.58640  0.38750  0.64348  Biso   1.000  O
  O24      1.0000 0.44790  0.38480  0.59200  Biso   1.000  O
  O25      1.0000 0.41360  0.80110  0.14348  Biso   1.000  O
  O26      1.0000 0.55210  0.93690  0.09200  Biso   1.000  O
  O27      1.0000 0.38750  0.58640  0.14348  Biso   1.000  O
  O28      1.0000 0.38480  0.44790  0.09200  Biso   1.000  O
  O29      1.0000 0.19890  0.61250  0.14348  Biso   1.000  O
  O30      1.0000 0.06310  0.61520  0.09200  Biso   1.000  O
  O31      1.0000 0.58640  0.19890  0.14348  Biso   1.000  O
  O32      1.0000 0.44790  0.06310  0.09200  Biso   1.000  O
  O33      1.0000 0.61250  0.41360  0.14348  Biso   1.000  O
  O34      1.0000 0.61520  0.55210  0.09200  Biso   1.000  O
  O35      1.0000 0.80110  0.38750  0.14348  Biso   1.000  O
  O36      1.0000 0.93690  0.38480  0.09200  Biso   1.000  O
  O37      1.0000 0.61250  0.19890  0.35652  Biso   1.000  O
  O38      1.0000 0.61520  0.06310  0.40800  Biso   1.000  O
  O39      1.0000 0.80110  0.41360  0.35652  Biso   1.000  O
  O40      1.0000 0.93690  0.55210  0.40800  Biso   1.000  O
  O41      1.0000 0.58640  0.38750  0.35652  Biso   1.000  O
  O42      1.0000 0.44790  0.38480  0.40800  Biso   1.000  O
  O43      1.0000 0.38750  0.80110  0.35652  Biso   1.000  O
  O44      1.0000 0.38480  0.93690  0.40800  Biso   1.000  O
  O45      1.0000 0.19890  0.58640  0.35652  Biso   1.000  O
  O46      1.0000 0.06310  0.44790  0.40800  Biso   1.000  O
  O47      1.0000 0.41360  0.61250  0.35652  Biso   1.000  O
  O48      1.0000 0.55210  0.61520  0.40800  Biso   1.000  O
  O49      1.0000 0.34950  0.86220  0.00000  Biso   1.000  O
  O50      1.0000 0.51270  0.65050  0.00000  Biso   1.000  O
  O51      1.0000 0.13780  0.48730  0.00000  Biso   1.000  O
  O52      1.0000 0.65050  0.13780  0.00000  Biso   1.000  O
  O53      1.0000 0.48730  0.34950  0.00000  Biso   1.000  O
  O54      1.0000 0.86220  0.51270  0.00000  Biso   1.000  O
  O55      1.0000 0.48730  0.13780  0.50000  Biso   1.000  O
  O56      1.0000 0.86220  0.34950  0.50000  Biso   1.000  O
  O57      1.0000 0.65050  0.51270  0.50000  Biso   1.000  O
  O58      1.0000 0.51270  0.86220  0.50000  Biso   1.000  O
  O59      1.0000 0.13780  0.65050  0.50000  Biso   1.000  O
  O60      1.0000 0.34950  0.48730  0.50000  Biso   1.000  O
