data_image0
_cell_length_a       11.926
_cell_length_b       14.419
_cell_length_c       24.311
_cell_angle_alpha    90
_cell_angle_beta     103.424
_cell_angle_gamma    90

_symmetry_space_group_name_H-M    "P 1"
_symmetry_int_tables_number       1

loop_
  _symmetry_equiv_pos_as_xyz
  'x, y, z'

loop_
  _atom_site_label
  _atom_site_occupancy
  _atom_site_fract_x
  _atom_site_fract_y
  _atom_site_fract_z
  _atom_site_thermal_displace_type
  _atom_site_B_iso_or_equiv
  _atom_site_type_symbol
  C1       1.0000 0.46490  0.92480  0.46280  Biso   1.000  C
  H1       1.0000 0.46480  0.98780  0.47110  Biso   1.000  H
  C2       1.0000 0.89600  0.17030  0.34470  Biso   1.000  C
  H2       1.0000 0.87590  0.10810  0.33940  Biso   1.000  H
  C3       1.0000 0.12230  0.54400  0.44070  Biso   1.000  C
  H3       1.0000 0.07580  0.59440  0.44430  Biso   1.000  H
  C4       1.0000 0.18050  0.40890  0.43220  Biso   1.000  C
  H4       1.0000 0.18590  0.34510  0.42790  Biso   1.000  H
  C5       1.0000 0.96900  0.30640  0.33620  Biso   1.000  C
  H5       1.0000 0.01020  0.35520  0.32550  Biso   1.000  H
  C6       1.0000 0.24000  0.67760  0.55290  Biso   1.000  C
  H6       1.0000 0.26480  0.61690  0.56080  Biso   1.000  H
  C7       1.0000 0.18200  0.81330  0.56010  Biso   1.000  C
  H7       1.0000 0.15780  0.86720  0.57500  Biso   1.000  H
  C8       1.0000 0.66600  0.05060  0.56900  Biso   1.000  C
  H8       1.0000 0.63060  0.00180  0.58320  Biso   1.000  H
  C9       1.0000 0.39500  0.67100  0.33500  Biso   1.000  C
  H9       1.0000 0.37260  0.73260  0.32830  Biso   1.000  H
  C10      1.0000 0.47300  0.52900  0.33280  Biso   1.000  C
  H10      1.0000 0.50900  0.47730  0.32210  Biso   1.000  H
  C11      1.0000 0.68300  0.43310  0.43600  Biso   1.000  C
  H11      1.0000 0.69000  0.49710  0.43290  Biso   1.000  H
  C12      1.0000 0.03000  0.05180  0.46060  Biso   1.000  C
  H12      1.0000 0.08020  0.10140  0.46230  Biso   1.000  H
  C13      1.0000 0.96500  0.91200  0.45840  Biso   1.000  C
  H13      1.0000 0.96020  0.84770  0.45600  Biso   1.000  H
  C14      1.0000 0.74300  0.18210  0.56400  Biso   1.000  C
  H14      1.0000 0.77360  0.24060  0.57450  Biso   1.000  H
  C15      1.0000 0.52200  0.79130  0.45120  Biso   1.000  C
  H15      1.0000 0.56950  0.74090  0.44890  Biso   1.000  H
  C16      1.0000 0.60300  0.13670  0.33960  Biso   1.000  C
  H16      1.0000 0.60620  0.19670  0.32610  Biso   1.000  H
  C17      1.0000 0.28400  0.11600  0.41930  Biso   1.000  C
  H17      1.0000 0.32450  0.13290  0.45530  Biso   1.000  H
  C18      1.0000 0.19200  0.03000  0.35670  Biso   1.000  C
  H18      1.0000 0.14920  0.98260  0.33550  Biso   1.000  H
  C19      1.0000 0.55700  0.99400  0.34730  Biso   1.000  C
  H19      1.0000 0.52500  0.93490  0.34050  Biso   1.000  H
  C20      1.0000 0.62150  0.29970  0.44710  Biso   1.000  C
  H20      1.0000 0.57400  0.25070  0.45200  Biso   1.000  H
  N1       1.0000 0.37430  0.87670  0.45450  Biso   1.000  N
  N2       1.0000 0.41510  0.78460  0.44730  Biso   1.000  N
  N3       1.0000 0.56080  0.88020  0.45910  Biso   1.000  N
  N4       1.0000 0.63920  0.01870  0.39200  Biso   1.000  N
  N5       1.0000 0.67000  0.10510  0.38670  Biso   1.000  N
  N6       1.0000 0.70860  0.04540  0.52200  Biso   1.000  N
  N7       1.0000 0.75520  0.13430  0.51730  Biso   1.000  N
  N8       1.0000 0.89470  0.21370  0.38760  Biso   1.000  N
  N9       1.0000 0.93540  0.30170  0.38220  Biso   1.000  N
  N10      1.0000 0.08350  0.45210  0.43690  Biso   1.000  N
  N11      1.0000 0.26650  0.46560  0.43440  Biso   1.000  N
  N12      1.0000 0.58570  0.39000  0.43740  Biso   1.000  N
  N13      1.0000 0.24390  0.72260  0.50650  Biso   1.000  N
  N14      1.0000 0.20670  0.80630  0.51120  Biso   1.000  N
  N15      1.0000 0.19700  0.72950  0.58640  Biso   1.000  N
  N16      1.0000 0.38610  0.62160  0.37800  Biso   1.000  N
  N17      1.0000 0.68200  0.13310  0.59170  Biso   1.000  N
  N18      1.0000 0.91620  0.06160  0.45680  Biso   1.000  N
  N19      1.0000 0.93300  0.22530  0.30410  Biso   1.000  N
  N20      1.0000 0.44600  0.61470  0.30000  Biso   1.000  N
  N21      1.0000 0.43940  0.53870  0.37860  Biso   1.000  N
  N22      1.0000 0.23270  0.02640  0.40780  Biso   1.000  N
  N23      1.0000 0.52600  0.07020  0.31260  Biso   1.000  N
  N24      1.0000 0.87510  0.96790  0.45890  Biso   1.000  N
  N25      1.0000 0.06330  0.96010  0.46190  Biso   1.000  N
  N26      1.0000 0.21700  0.11300  0.33520  Biso   1.000  N
  N27      1.0000 0.27100  0.16900  0.38020  Biso   1.000  N
  N28      1.0000 0.73060  0.29200  0.44850  Biso   1.000  N
  N29      1.0000 0.76860  0.37390  0.43930  Biso   1.000  N
  N30      1.0000 0.22250  0.55130  0.43870  Biso   1.000  N
  O1       1.0000 0.19210  0.28490  0.66950  Biso   1.000  O
  O2       1.0000 0.34990  0.15040  0.68380  Biso   1.000  O
  O3       1.0000 0.40460  0.32370  0.66360  Biso   1.000  O
  O4       1.0000 0.93100  0.50160  0.50140  Biso   1.000  O
  O5       1.0000 0.35860  0.27800  0.76210  Biso   1.000  O
  O6       1.0000 0.19860  0.43290  0.75160  Biso   1.000  O
  O7       1.0000 0.04940  0.39120  0.59780  Biso   1.000  O
  O8       1.0000 0.99190  0.21310  0.61590  Biso   1.000  O
  O9       1.0000 0.27740  0.33280  0.84300  Biso   1.000  O
  O10      1.0000 0.43170  0.20210  0.85780  Biso   1.000  O
  O11      1.0000 0.40630  0.47250  0.74410  Biso   1.000  O
  O12      1.0000 0.56470  0.45070  0.68740  Biso   1.000  O
  O13      1.0000 0.49140  0.37080  0.83800  Biso   1.000  O
  O14      1.0000 0.59310  0.18500  0.68520  Biso   1.000  O
  O15      1.0000 0.54310  0.14240  0.77940  Biso   1.000  O
  O16      1.0000 0.29240  0.09640  0.78720  Biso   1.000  O
  O17      1.0000 0.42110  0.99830  0.73560  Biso   1.000  O
  O18      1.0000 0.17230  0.15160  0.57220  Biso   1.000  O
  O19      1.0000 0.38900  0.18850  0.56870  Biso   1.000  O
  O20      1.0000 0.22920  0.32750  0.55570  Biso   1.000  O
  O21      1.0000 0.02460  0.52270  0.67540  Biso   1.000  O
  O22      1.0000 0.42160  0.60650  0.66590  Biso   1.000  O
  O23      1.0000 0.65220  0.00990  0.72900  Biso   1.000  O
  O24      1.0000 0.75020  0.33610  0.69390  Biso   1.000  O
  O25      1.0000 0.59730  0.31520  0.76510  Biso   1.000  O
  O26      1.0000 0.29950  0.00600  0.53420  Biso   1.000  O
  O27      1.0000 0.66440  0.24130  0.87560  Biso   1.000  O
  O28      1.0000 0.56340  0.32130  0.60760  Biso   1.000  O
  O29      1.0000 0.46940  0.04400  0.63700  Biso   1.000  O
  O30      1.0000 0.24710  0.99790  0.64140  Biso   1.000  O
  O31      1.0000 0.00630  0.34110  0.69960  Biso   1.000  O
  O32      1.0000 0.12060  0.09860  0.69640  Biso   1.000  O
  O33      1.0000 0.90440  0.16640  0.70560  Biso   1.000  O
  O34      1.0000 0.39570  0.45790  0.58920  Biso   1.000  O
  O35      1.0000 0.20630  0.92230  0.73860  Biso   1.000  O
  O36      1.0000 0.99710  0.27350  0.50560  Biso   1.000  O
  O37      1.0000 0.42030  0.34390  0.49720  Biso   1.000  O
  O38      1.0000 0.12950  0.22550  0.77140  Biso   1.000  O
  O39      1.0000 0.22220  0.17070  0.88610  Biso   1.000  O
  O40      1.0000 0.33930  0.51730  0.84620  Biso   1.000  O
  O41      1.0000 0.24410  0.47900  0.65690  Biso   1.000  O
  O42      1.0000 0.79200  0.82680  0.52940  Biso   1.000  O
  Si1      1.0000 0.32370  0.25980  0.69490  Biso   1.000  Si
  Cu1      1.0000 0.21930  0.91698  0.46140  Biso   1.000  Cu
  Cu2      1.0000 0.31700  0.67079  0.44329  Biso   1.000  Cu
  Cu3      1.0000 0.71460  0.93181  0.45901  Biso   1.000  Cu
  Cu4      1.0000 0.82190  0.17289  0.45284  Biso   1.000  Cu
  Cu5      1.0000 0.93210  0.40457  0.43908  Biso   1.000  Cu
  Cu6      1.0000 0.43070  0.43535  0.43685  Biso   1.000  Cu
  W1       1.0000 0.60738  0.32242  0.68719  Biso   1.000  W
  W2       1.0000 0.54212  0.25209  0.82299  Biso   1.000  W
  W3       1.0000 0.34341  0.42417  0.80361  Biso   1.000  W
  W4       1.0000 0.52975  0.07703  0.71054  Biso   1.000  W
  W5       1.0000 0.26555  0.20593  0.82618  Biso   1.000  W
  W6       1.0000 0.10730  0.43043  0.67619  Biso   1.000  W
  W7       1.0000 0.09669  0.26821  0.57042  Biso   1.000  W
  W8       1.0000 0.40394  0.48883  0.66585  Biso   1.000  W
  W9       1.0000 0.39482  0.31909  0.56546  Biso   1.000  W
  W10      1.0000 0.30991  0.08292  0.59102  Biso   1.000  W
  W11      1.0000 0.03419  0.20791  0.69510  Biso   1.000  W
  W12      1.0000 0.25917  0.02416  0.71845  Biso   1.000  W
  C21      1.0000 0.96490  0.07520  0.96280  Biso   1.000  C
  H21      1.0000 0.96480  0.01220  0.97110  Biso   1.000  H
  C22      1.0000 0.39600  0.82970  0.84470  Biso   1.000  C
  H22      1.0000 0.37590  0.89190  0.83940  Biso   1.000  H
  C23      1.0000 0.62230  0.45600  0.94070  Biso   1.000  C
  H23      1.0000 0.57580  0.40560  0.94430  Biso   1.000  H
  C24      1.0000 0.68050  0.59110  0.93220  Biso   1.000  C
  H24      1.0000 0.68590  0.65490  0.92790  Biso   1.000  H
  C25      1.0000 0.46900  0.69360  0.83620  Biso   1.000  C
  H25      1.0000 0.51020  0.64480  0.82550  Biso   1.000  H
  C26      1.0000 0.74000  0.32240  0.05290  Biso   1.000  C
  H26      1.0000 0.76480  0.38310  0.06080  Biso   1.000  H
  C27      1.0000 0.68200  0.18670  0.06010  Biso   1.000  C
  H27      1.0000 0.65780  0.13280  0.07500  Biso   1.000  H
  C28      1.0000 0.16600  0.94940  0.06900  Biso   1.000  C
  H28      1.0000 0.13060  0.99820  0.08320  Biso   1.000  H
  C29      1.0000 0.89500  0.32900  0.83500  Biso   1.000  C
  H29      1.0000 0.87260  0.26740  0.82830  Biso   1.000  H
  C30      1.0000 0.97300  0.47100  0.83280  Biso   1.000  C
  H30      1.0000 0.00900  0.52270  0.82210  Biso   1.000  H
  C31      1.0000 0.18300  0.56690  0.93600  Biso   1.000  C
  H31      1.0000 0.19000  0.50290  0.93290  Biso   1.000  H
  C32      1.0000 0.53000  0.94820  0.96060  Biso   1.000  C
  H32      1.0000 0.58020  0.89860  0.96230  Biso   1.000  H
  C33      1.0000 0.46500  0.08800  0.95840  Biso   1.000  C
  H33      1.0000 0.46020  0.15230  0.95600  Biso   1.000  H
  C34      1.0000 0.24300  0.81790  0.06400  Biso   1.000  C
  H34      1.0000 0.27360  0.75940  0.07450  Biso   1.000  H
  C35      1.0000 0.02200  0.20870  0.95120  Biso   1.000  C
  H35      1.0000 0.06950  0.25910  0.94890  Biso   1.000  H
  C36      1.0000 0.10300  0.86330  0.83960  Biso   1.000  C
  H36      1.0000 0.10620  0.80330  0.82610  Biso   1.000  H
  C37      1.0000 0.78400  0.88400  0.91930  Biso   1.000  C
  H37      1.0000 0.82450  0.86710  0.95530  Biso   1.000  H
  C38      1.0000 0.69200  0.97000  0.85670  Biso   1.000  C
  H38      1.0000 0.64920  0.01740  0.83550  Biso   1.000  H
  C39      1.0000 0.05700  0.00600  0.84730  Biso   1.000  C
  H39      1.0000 0.02500  0.06510  0.84050  Biso   1.000  H
  C40      1.0000 0.12150  0.70030  0.94710  Biso   1.000  C
  H40      1.0000 0.07400  0.74930  0.95200  Biso   1.000  H
  N31      1.0000 0.87430  0.12330  0.95450  Biso   1.000  N
  N32      1.0000 0.91510  0.21540  0.94730  Biso   1.000  N
  N33      1.0000 0.06080  0.11980  0.95910  Biso   1.000  N
  N34      1.0000 0.13920  0.98130  0.89200  Biso   1.000  N
  N35      1.0000 0.17000  0.89490  0.88670  Biso   1.000  N
  N36      1.0000 0.20860  0.95460  0.02200  Biso   1.000  N
  N37      1.0000 0.25520  0.86570  0.01730  Biso   1.000  N
  N38      1.0000 0.39470  0.78630  0.88760  Biso   1.000  N
  N39      1.0000 0.43540  0.69830  0.88220  Biso   1.000  N
  N40      1.0000 0.58350  0.54790  0.93690  Biso   1.000  N
  N41      1.0000 0.76650  0.53440  0.93440  Biso   1.000  N
  N42      1.0000 0.08570  0.61000  0.93740  Biso   1.000  N
  N43      1.0000 0.74390  0.27740  0.00650  Biso   1.000  N
  N44      1.0000 0.70670  0.19370  0.01120  Biso   1.000  N
  N45      1.0000 0.69700  0.27050  0.08640  Biso   1.000  N
  N46      1.0000 0.88610  0.37840  0.87800  Biso   1.000  N
  N47      1.0000 0.18200  0.86690  0.09170  Biso   1.000  N
  N48      1.0000 0.41620  0.93840  0.95680  Biso   1.000  N
  N49      1.0000 0.43300  0.77470  0.80410  Biso   1.000  N
  N50      1.0000 0.94600  0.38530  0.80000  Biso   1.000  N
  N51      1.0000 0.93940  0.46130  0.87860  Biso   1.000  N
  N52      1.0000 0.73270  0.97360  0.90780  Biso   1.000  N
  N53      1.0000 0.02600  0.92980  0.81260  Biso   1.000  N
  N54      1.0000 0.37510  0.03210  0.95890  Biso   1.000  N
  N55      1.0000 0.56330  0.03990  0.96190  Biso   1.000  N
  N56      1.0000 0.71700  0.88700  0.83520  Biso   1.000  N
  N57      1.0000 0.77100  0.83100  0.88020  Biso   1.000  N
  N58      1.0000 0.23060  0.70800  0.94850  Biso   1.000  N
  N59      1.0000 0.26860  0.62610  0.93930  Biso   1.000  N
  N60      1.0000 0.72250  0.44870  0.93870  Biso   1.000  N
  O43      1.0000 0.69210  0.71510  0.16950  Biso   1.000  O
  O44      1.0000 0.84990  0.84960  0.18380  Biso   1.000  O
  O45      1.0000 0.90460  0.67630  0.16360  Biso   1.000  O
  O46      1.0000 0.43100  0.49840  0.00140  Biso   1.000  O
  O47      1.0000 0.85860  0.72200  0.26210  Biso   1.000  O
  O48      1.0000 0.69860  0.56710  0.25160  Biso   1.000  O
  O49      1.0000 0.54940  0.60880  0.09780  Biso   1.000  O
  O50      1.0000 0.49190  0.78690  0.11590  Biso   1.000  O
  O51      1.0000 0.77740  0.66720  0.34300  Biso   1.000  O
  O52      1.0000 0.93170  0.79790  0.35780  Biso   1.000  O
  O53      1.0000 0.90630  0.52750  0.24410  Biso   1.000  O
  O54      1.0000 0.06470  0.54930  0.18740  Biso   1.000  O
  O55      1.0000 0.99140  0.62920  0.33800  Biso   1.000  O
  O56      1.0000 0.09310  0.81500  0.18520  Biso   1.000  O
  O57      1.0000 0.04310  0.85760  0.27940  Biso   1.000  O
  O58      1.0000 0.79240  0.90360  0.28720  Biso   1.000  O
  O59      1.0000 0.92110  0.00170  0.23560  Biso   1.000  O
  O60      1.0000 0.67230  0.84840  0.07220  Biso   1.000  O
  O61      1.0000 0.88900  0.81150  0.06870  Biso   1.000  O
  O62      1.0000 0.72920  0.67250  0.05570  Biso   1.000  O
  O63      1.0000 0.52460  0.47730  0.17540  Biso   1.000  O
  O64      1.0000 0.92160  0.39350  0.16590  Biso   1.000  O
  O65      1.0000 0.15220  0.99010  0.22900  Biso   1.000  O
  O66      1.0000 0.25020  0.66390  0.19390  Biso   1.000  O
  O67      1.0000 0.09730  0.68480  0.26510  Biso   1.000  O
  O68      1.0000 0.79950  0.99400  0.03420  Biso   1.000  O
  O69      1.0000 0.16440  0.75870  0.37560  Biso   1.000  O
  O70      1.0000 0.06340  0.67870  0.10760  Biso   1.000  O
  O71      1.0000 0.96940  0.95600  0.13700  Biso   1.000  O
  O72      1.0000 0.74710  0.00210  0.14140  Biso   1.000  O
  O73      1.0000 0.50630  0.65890  0.19960  Biso   1.000  O
  O74      1.0000 0.62060  0.90140  0.19640  Biso   1.000  O
  O75      1.0000 0.40440  0.83360  0.20560  Biso   1.000  O
  O76      1.0000 0.89570  0.54210  0.08920  Biso   1.000  O
  O77      1.0000 0.70630  0.07770  0.23860  Biso   1.000  O
  O78      1.0000 0.49710  0.72650  0.00560  Biso   1.000  O
  O79      1.0000 0.92030  0.65610  0.99720  Biso   1.000  O
  O80      1.0000 0.62950  0.77450  0.27140  Biso   1.000  O
  O81      1.0000 0.72220  0.82930  0.38610  Biso   1.000  O
  O82      1.0000 0.83930  0.48270  0.34620  Biso   1.000  O
  O83      1.0000 0.74410  0.52100  0.15690  Biso   1.000  O
  O84      1.0000 0.29200  0.17320  0.02940  Biso   1.000  O
  Si2      1.0000 0.82370  0.74020  0.19490  Biso   1.000  Si
  Cu7      1.0000 0.71930  0.08302  0.96140  Biso   1.000  Cu
  Cu8      1.0000 0.81700  0.32921  0.94329  Biso   1.000  Cu
  Cu9      1.0000 0.21460  0.06819  0.95901  Biso   1.000  Cu
  Cu10     1.0000 0.32190  0.82711  0.95284  Biso   1.000  Cu
  Cu11     1.0000 0.43210  0.59543  0.93908  Biso   1.000  Cu
  Cu12     1.0000 0.93070  0.56465  0.93685  Biso   1.000  Cu
  W13      1.0000 0.10738  0.67758  0.18719  Biso   1.000  W
  W14      1.0000 0.04212  0.74791  0.32299  Biso   1.000  W
  W15      1.0000 0.84341  0.57583  0.30361  Biso   1.000  W
  W16      1.0000 0.02975  0.92297  0.21054  Biso   1.000  W
  W17      1.0000 0.76555  0.79407  0.32618  Biso   1.000  W
  W18      1.0000 0.60730  0.56957  0.17619  Biso   1.000  W
  W19      1.0000 0.59669  0.73179  0.07042  Biso   1.000  W
  W20      1.0000 0.90394  0.51117  0.16585  Biso   1.000  W
  W21      1.0000 0.89482  0.68091  0.06546  Biso   1.000  W
  W22      1.0000 0.80991  0.91708  0.09102  Biso   1.000  W
  W23      1.0000 0.53419  0.79209  0.19510  Biso   1.000  W
  W24      1.0000 0.75917  0.97584  0.21845  Biso   1.000  W
