data_image0
_cell_length_a       15.2159
_cell_length_b       9.0611
_cell_length_c       7.7533
_cell_angle_alpha    90
_cell_angle_beta     90
_cell_angle_gamma    90

_symmetry_space_group_name_H-M    "P 1"
_symmetry_int_tables_number       1

loop_
  _symmetry_equiv_pos_as_xyz
  'x, y, z'

loop_
  _atom_site_label
  _atom_site_occupancy
  _atom_site_fract_x
  _atom_site_fract_y
  _atom_site_fract_z
  _atom_site_thermal_displace_type
  _atom_site_B_iso_or_equiv
  _atom_site_type_symbol
  C1       1.0000 0.54317  0.53995  0.48051  Biso   1.000  C
  C2       1.0000 0.61804  0.47073  0.41723  Biso   1.000  C
  H1       1.0000 0.61453  0.37281  0.37398  Biso   1.000  H
  C3       1.0000 0.69805  0.54477  0.41723  Biso   1.000  C
  H2       1.0000 0.74922  0.49746  0.37398  Biso   1.000  H
  C4       1.0000 0.70318  0.68804  0.48051  Biso   1.000  C
  C5       1.0000 0.62831  0.75726  0.54380  Biso   1.000  C
  H3       1.0000 0.63182  0.85518  0.58705  Biso   1.000  H
  C6       1.0000 0.54830  0.68322  0.54380  Biso   1.000  C
  H4       1.0000 0.49713  0.73053  0.58705  Biso   1.000  H
  C7       1.0000 0.78915  0.76760  0.48051  Biso   1.000  C
  C8       1.0000 0.81961  0.85756  0.60757  Biso   1.000  C
  C9       1.0000 0.77286  0.89422  0.77201  Biso   1.000  C
  H5       1.0000 0.81474  0.91471  0.85967  Biso   1.000  H
  H6       1.0000 0.73665  0.97835  0.75477  Biso   1.000  H
  H7       1.0000 0.73748  0.81290  0.80606  Biso   1.000  H
  N1       1.0000 0.90000  0.90836  0.55904  Biso   1.000  N
  N2       1.0000 0.91922  0.84981  0.40199  Biso   1.000  N
  C10      1.0000 0.85071  0.76282  0.35346  Biso   1.000  C
  C11      1.0000 0.84420  0.67686  0.18902  Biso   1.000  C
  H8       1.0000 0.78131  0.61704  0.18569  Biso   1.000  H
  H9       1.0000 0.84774  0.75285  0.07860  Biso   1.000  H
  H10      1.0000 0.89875  0.59744  0.18179  Biso   1.000  H
  C12      1.0000 0.45683  0.46005  0.48051  Biso   1.000  C
  C13      1.0000 0.38196  0.52927  0.41723  Biso   1.000  C
  H11      1.0000 0.38547  0.62719  0.37398  Biso   1.000  H
  C14      1.0000 0.30195  0.45523  0.41723  Biso   1.000  C
  H12      1.0000 0.25078  0.50254  0.37398  Biso   1.000  H
  C15      1.0000 0.29682  0.31196  0.48051  Biso   1.000  C
  C16      1.0000 0.37169  0.24274  0.54380  Biso   1.000  C
  H13      1.0000 0.36818  0.14482  0.58705  Biso   1.000  H
  C17      1.0000 0.45170  0.31678  0.54380  Biso   1.000  C
  H14      1.0000 0.50287  0.26947  0.58705  Biso   1.000  H
  C18      1.0000 0.21085  0.23240  0.48051  Biso   1.000  C
  C19      1.0000 0.18039  0.14244  0.60757  Biso   1.000  C
  C20      1.0000 0.22714  0.10578  0.77201  Biso   1.000  C
  H15      1.0000 0.18526  0.08529  0.85967  Biso   1.000  H
  H16      1.0000 0.26335  0.02165  0.75477  Biso   1.000  H
  H17      1.0000 0.26252  0.18710  0.80606  Biso   1.000  H
  N3       1.0000 0.10000  0.09164  0.55904  Biso   1.000  N
  N4       1.0000 0.08078  0.15019  0.40199  Biso   1.000  N
  C21      1.0000 0.14929  0.23718  0.35346  Biso   1.000  C
  C22      1.0000 0.15580  0.32314  0.18902  Biso   1.000  C
  H18      1.0000 0.21869  0.38296  0.18569  Biso   1.000  H
  H19      1.0000 0.15226  0.24715  0.07860  Biso   1.000  H
  H20      1.0000 0.10125  0.40256  0.18179  Biso   1.000  H
  C23      1.0000 0.54317  0.46005  0.98051  Biso   1.000  C
  C24      1.0000 0.61804  0.52927  0.91723  Biso   1.000  C
  H21      1.0000 0.61453  0.62719  0.87398  Biso   1.000  H
  C25      1.0000 0.69805  0.45523  0.91723  Biso   1.000  C
  H22      1.0000 0.74922  0.50254  0.87398  Biso   1.000  H
  C26      1.0000 0.70318  0.31196  0.98051  Biso   1.000  C
  C27      1.0000 0.62831  0.24274  0.04380  Biso   1.000  C
  H23      1.0000 0.63182  0.14482  0.08705  Biso   1.000  H
  C28      1.0000 0.54830  0.31678  0.04380  Biso   1.000  C
  H24      1.0000 0.49713  0.26947  0.08705  Biso   1.000  H
  C29      1.0000 0.78915  0.23240  0.98051  Biso   1.000  C
  C30      1.0000 0.81961  0.14244  0.10757  Biso   1.000  C
  C31      1.0000 0.77286  0.10578  0.27201  Biso   1.000  C
  H25      1.0000 0.81474  0.08529  0.35967  Biso   1.000  H
  H26      1.0000 0.73665  0.02165  0.25477  Biso   1.000  H
  H27      1.0000 0.73748  0.18710  0.30606  Biso   1.000  H
  N5       1.0000 0.90000  0.09164  0.05904  Biso   1.000  N
  N6       1.0000 0.91922  0.15019  0.90199  Biso   1.000  N
  C32      1.0000 0.85071  0.23718  0.85346  Biso   1.000  C
  C33      1.0000 0.84420  0.32314  0.68902  Biso   1.000  C
  H28      1.0000 0.78131  0.38296  0.68569  Biso   1.000  H
  H29      1.0000 0.84774  0.24715  0.57860  Biso   1.000  H
  H30      1.0000 0.89875  0.40256  0.68179  Biso   1.000  H
  C34      1.0000 0.45683  0.53995  0.98051  Biso   1.000  C
  C35      1.0000 0.38196  0.47073  0.91723  Biso   1.000  C
  H31      1.0000 0.38547  0.37281  0.87398  Biso   1.000  H
  C36      1.0000 0.30195  0.54477  0.91723  Biso   1.000  C
  H32      1.0000 0.25078  0.49746  0.87398  Biso   1.000  H
  C37      1.0000 0.29682  0.68804  0.98051  Biso   1.000  C
  C38      1.0000 0.37169  0.75726  0.04380  Biso   1.000  C
  H33      1.0000 0.36818  0.85518  0.08705  Biso   1.000  H
  C39      1.0000 0.45170  0.68322  0.04380  Biso   1.000  C
  H34      1.0000 0.50287  0.73053  0.08705  Biso   1.000  H
  C40      1.0000 0.21085  0.76760  0.98051  Biso   1.000  C
  C41      1.0000 0.18039  0.85756  0.10757  Biso   1.000  C
  C42      1.0000 0.22714  0.89422  0.27201  Biso   1.000  C
  H35      1.0000 0.18526  0.91471  0.35967  Biso   1.000  H
  H36      1.0000 0.26335  0.97835  0.25477  Biso   1.000  H
  H37      1.0000 0.26252  0.81290  0.30606  Biso   1.000  H
  N7       1.0000 0.10000  0.90836  0.05904  Biso   1.000  N
  N8       1.0000 0.08078  0.84981  0.90199  Biso   1.000  N
  C43      1.0000 0.14929  0.76282  0.85346  Biso   1.000  C
  C44      1.0000 0.15580  0.67686  0.68902  Biso   1.000  C
  H38      1.0000 0.21869  0.61704  0.68569  Biso   1.000  H
  H39      1.0000 0.15226  0.75285  0.57860  Biso   1.000  H
  H40      1.0000 0.10125  0.59744  0.68179  Biso   1.000  H
  Cd1      1.0000 0.00000  0.00000  0.25000  Biso   1.000  Cd
  Cd2      1.0000 0.00000  0.00000  0.75000  Biso   1.000  Cd
