data_image0
_cell_length_a       10.1414
_cell_length_b       17.3983
_cell_length_c       11.3646
_cell_angle_alpha    90
_cell_angle_beta     110.085
_cell_angle_gamma    90

_symmetry_space_group_name_H-M    "P 1"
_symmetry_int_tables_number       1

loop_
  _symmetry_equiv_pos_as_xyz
  'x, y, z'

loop_
  _atom_site_label
  _atom_site_occupancy
  _atom_site_fract_x
  _atom_site_fract_y
  _atom_site_fract_z
  _atom_site_thermal_displace_type
  _atom_site_B_iso_or_equiv
  _atom_site_type_symbol
  Dy1      1.0000 0.50947  0.50704  0.68128  Biso   1.000  Dy
  O1       1.0000 0.72830  0.48579  0.65570  Biso   1.000  O
  O2       1.0000 0.70280  0.53865  0.87940  Biso   1.000  O
  O3       1.0000 0.70870  0.45292  0.45870  Biso   1.000  O
  O4       1.0000 0.35670  0.41743  0.72510  Biso   1.000  O
  O5       1.0000 0.41190  0.56798  0.81690  Biso   1.000  O
  N1       1.0000 0.73100  0.46960  0.90790  Biso   1.000  N
  O6       1.0000 0.56040  0.86074  0.15740  Biso   1.000  O
  O7       1.0000 0.52610  0.91584  0.97480  Biso   1.000  O
  O8       1.0000 0.64640  0.41826  0.84410  Biso   1.000  O
  N2       1.0000 0.44680  0.63686  0.86960  Biso   1.000  N
  N3       1.0000 0.21800  0.42520  0.69020  Biso   1.000  N
  C1       1.0000 0.13530  0.39940  0.57730  Biso   1.000  C
  H1       1.0000 0.17510  0.37450  0.52520  Biso   1.000  H
  C2       1.0000 0.53730  0.85670  0.04280  Biso   1.000  C
  C3       1.0000 0.55110  0.71210  0.05060  Biso   1.000  C
  H2       1.0000 0.59860  0.71520  0.13650  Biso   1.000  H
  C4       1.0000 0.02000  0.46840  0.73510  Biso   1.000  C
  H3       1.0000 0.98220  0.49020  0.79120  Biso   1.000  H
  C5       1.0000 0.43760  0.77210  0.85260  Biso   1.000  C
  H4       1.0000 0.41000  0.81600  0.80350  Biso   1.000  H
  O9       1.0000 0.83700  0.45180  0.99580  Biso   1.000  O
  C6       1.0000 0.99250  0.40960  0.53870  Biso   1.000  C
  H5       1.0000 0.93610  0.39250  0.45990  Biso   1.000  H
  C7       1.0000 0.77640  0.46240  0.57410  Biso   1.000  C
  C8       1.0000 0.93180  0.44550  0.61710  Biso   1.000  C
  C9       1.0000 0.40510  0.70100  0.79860  Biso   1.000  C
  H6       1.0000 0.35440  0.69670  0.71350  Biso   1.000  H
  C10      1.0000 0.51140  0.77910  0.97960  Biso   1.000  C
  C11      1.0000 0.16180  0.45920  0.76880  Biso   1.000  C
  H7       1.0000 0.22030  0.47640  0.84660  Biso   1.000  H
  C12      1.0000 0.51970  0.64190  0.99310  Biso   1.000  C
  H8       1.0000 0.54910  0.59730  0.03990  Biso   1.000  H
  Dy2      1.0000 0.49053  0.00704  0.81872  Biso   1.000  Dy
  O10      1.0000 0.27170  0.98579  0.84430  Biso   1.000  O
  O11      1.0000 0.29720  0.03865  0.62060  Biso   1.000  O
  O12      1.0000 0.29130  0.95292  0.04130  Biso   1.000  O
  O13      1.0000 0.64330  0.91743  0.77490  Biso   1.000  O
  O14      1.0000 0.58810  0.06798  0.68310  Biso   1.000  O
  N4       1.0000 0.26900  0.96960  0.59210  Biso   1.000  N
  O15      1.0000 0.43960  0.36074  0.34260  Biso   1.000  O
  O16      1.0000 0.47390  0.41584  0.52520  Biso   1.000  O
  O17      1.0000 0.35360  0.91826  0.65590  Biso   1.000  O
  N5       1.0000 0.55320  0.13686  0.63040  Biso   1.000  N
  N6       1.0000 0.78200  0.92520  0.80980  Biso   1.000  N
  C13      1.0000 0.86470  0.89940  0.92270  Biso   1.000  C
  H9       1.0000 0.82490  0.87450  0.97480  Biso   1.000  H
  C14      1.0000 0.46270  0.35670  0.45720  Biso   1.000  C
  C15      1.0000 0.44890  0.21210  0.44940  Biso   1.000  C
  H10      1.0000 0.40140  0.21520  0.36350  Biso   1.000  H
  C16      1.0000 0.98000  0.96840  0.76490  Biso   1.000  C
  H11      1.0000 0.01780  0.99020  0.70880  Biso   1.000  H
  C17      1.0000 0.56240  0.27210  0.64740  Biso   1.000  C
  H12      1.0000 0.59000  0.31600  0.69650  Biso   1.000  H
  O18      1.0000 0.16300  0.95180  0.50420  Biso   1.000  O
  C18      1.0000 0.00750  0.90960  0.96130  Biso   1.000  C
  H13      1.0000 0.06390  0.89250  0.04010  Biso   1.000  H
  C19      1.0000 0.22360  0.96240  0.92590  Biso   1.000  C
  C20      1.0000 0.06820  0.94550  0.88290  Biso   1.000  C
  C21      1.0000 0.59490  0.20100  0.70140  Biso   1.000  C
  H14      1.0000 0.64560  0.19670  0.78650  Biso   1.000  H
  C22      1.0000 0.48860  0.27910  0.52040  Biso   1.000  C
  C23      1.0000 0.83820  0.95920  0.73120  Biso   1.000  C
  H15      1.0000 0.77970  0.97640  0.65340  Biso   1.000  H
  C24      1.0000 0.48030  0.14190  0.50690  Biso   1.000  C
  H16      1.0000 0.45090  0.09730  0.46010  Biso   1.000  H
  Dy3      1.0000 0.49053  0.49296  0.31872  Biso   1.000  Dy
  O19      1.0000 0.27170  0.51421  0.34430  Biso   1.000  O
  O20      1.0000 0.29720  0.46135  0.12060  Biso   1.000  O
  O21      1.0000 0.29130  0.54708  0.54130  Biso   1.000  O
  O22      1.0000 0.64330  0.58257  0.27490  Biso   1.000  O
  O23      1.0000 0.58810  0.43202  0.18310  Biso   1.000  O
  N7       1.0000 0.26900  0.53040  0.09210  Biso   1.000  N
  O24      1.0000 0.43960  0.13926  0.84260  Biso   1.000  O
  O25      1.0000 0.47390  0.08416  0.02520  Biso   1.000  O
  O26      1.0000 0.35360  0.58174  0.15590  Biso   1.000  O
  N8       1.0000 0.55320  0.36314  0.13040  Biso   1.000  N
  N9       1.0000 0.78200  0.57480  0.30980  Biso   1.000  N
  C25      1.0000 0.86470  0.60060  0.42270  Biso   1.000  C
  H17      1.0000 0.82490  0.62550  0.47480  Biso   1.000  H
  C26      1.0000 0.46270  0.14330  0.95720  Biso   1.000  C
  C27      1.0000 0.44890  0.28790  0.94940  Biso   1.000  C
  H18      1.0000 0.40140  0.28480  0.86350  Biso   1.000  H
  C28      1.0000 0.98000  0.53160  0.26490  Biso   1.000  C
  H19      1.0000 0.01780  0.50980  0.20880  Biso   1.000  H
  C29      1.0000 0.56240  0.22790  0.14740  Biso   1.000  C
  H20      1.0000 0.59000  0.18400  0.19650  Biso   1.000  H
  O27      1.0000 0.16300  0.54820  0.00420  Biso   1.000  O
  C30      1.0000 0.00750  0.59040  0.46130  Biso   1.000  C
  H21      1.0000 0.06390  0.60750  0.54010  Biso   1.000  H
  C31      1.0000 0.22360  0.53760  0.42590  Biso   1.000  C
  C32      1.0000 0.06820  0.55450  0.38290  Biso   1.000  C
  C33      1.0000 0.59490  0.29900  0.20140  Biso   1.000  C
  H22      1.0000 0.64560  0.30330  0.28650  Biso   1.000  H
  C34      1.0000 0.48860  0.22090  0.02040  Biso   1.000  C
  C35      1.0000 0.83820  0.54080  0.23120  Biso   1.000  C
  H23      1.0000 0.77970  0.52360  0.15340  Biso   1.000  H
  C36      1.0000 0.48030  0.35810  0.00690  Biso   1.000  C
  H24      1.0000 0.45090  0.40270  0.96010  Biso   1.000  H
  Dy4      1.0000 0.50947  0.99296  0.18128  Biso   1.000  Dy
  O28      1.0000 0.72830  0.01421  0.15570  Biso   1.000  O
  O29      1.0000 0.70280  0.96135  0.37940  Biso   1.000  O
  O30      1.0000 0.70870  0.04708  0.95870  Biso   1.000  O
  O31      1.0000 0.35670  0.08257  0.22510  Biso   1.000  O
  O32      1.0000 0.41190  0.93202  0.31690  Biso   1.000  O
  N10      1.0000 0.73100  0.03040  0.40790  Biso   1.000  N
  O33      1.0000 0.56040  0.63926  0.65740  Biso   1.000  O
  O34      1.0000 0.52610  0.58416  0.47480  Biso   1.000  O
  O35      1.0000 0.64640  0.08174  0.34410  Biso   1.000  O
  N11      1.0000 0.44680  0.86314  0.36960  Biso   1.000  N
  N12      1.0000 0.21800  0.07480  0.19020  Biso   1.000  N
  C37      1.0000 0.13530  0.10060  0.07730  Biso   1.000  C
  H25      1.0000 0.17510  0.12550  0.02520  Biso   1.000  H
  C38      1.0000 0.53730  0.64330  0.54280  Biso   1.000  C
  C39      1.0000 0.55110  0.78790  0.55060  Biso   1.000  C
  H26      1.0000 0.59860  0.78480  0.63650  Biso   1.000  H
  C40      1.0000 0.02000  0.03160  0.23510  Biso   1.000  C
  H27      1.0000 0.98220  0.00980  0.29120  Biso   1.000  H
  C41      1.0000 0.43760  0.72790  0.35260  Biso   1.000  C
  H28      1.0000 0.41000  0.68400  0.30350  Biso   1.000  H
  O36      1.0000 0.83700  0.04820  0.49580  Biso   1.000  O
  C42      1.0000 0.99250  0.09040  0.03870  Biso   1.000  C
  H29      1.0000 0.93610  0.10750  0.95990  Biso   1.000  H
  C43      1.0000 0.77640  0.03760  0.07410  Biso   1.000  C
  C44      1.0000 0.93180  0.05450  0.11710  Biso   1.000  C
  C45      1.0000 0.40510  0.79900  0.29860  Biso   1.000  C
  H30      1.0000 0.35440  0.80330  0.21350  Biso   1.000  H
  C46      1.0000 0.51140  0.72090  0.47960  Biso   1.000  C
  C47      1.0000 0.16180  0.04080  0.26880  Biso   1.000  C
  H31      1.0000 0.22030  0.02360  0.34660  Biso   1.000  H
  C48      1.0000 0.51970  0.85810  0.49310  Biso   1.000  C
  H32      1.0000 0.54910  0.90270  0.53990  Biso   1.000  H
