data_image0
_cell_length_a       11.3504
_cell_length_b       12.1923
_cell_length_c       16.1827
_cell_angle_alpha    90
_cell_angle_beta     130.491
_cell_angle_gamma    90

_symmetry_space_group_name_H-M    "P 1"
_symmetry_int_tables_number       1

loop_
  _symmetry_equiv_pos_as_xyz
  'x, y, z'

loop_
  _atom_site_label
  _atom_site_occupancy
  _atom_site_fract_x
  _atom_site_fract_y
  _atom_site_fract_z
  _atom_site_thermal_displace_type
  _atom_site_B_iso_or_equiv
  _atom_site_type_symbol
  Zn1      1.0000 0.82070  0.02369  0.48117  Biso   1.000  Zn
  S1       1.0000 0.97655  0.95931  0.71643  Biso   1.000  S
  O1       1.0000 0.92500  0.92376  0.61078  Biso   1.000  O
  O2       1.0000 0.13290  0.92590  0.80350  Biso   1.000  O
  O3       1.0000 0.94510  0.07277  0.71610  Biso   1.000  O
  O4       1.0000 0.39570  0.98010  0.55870  Biso   1.000  O
  O5       1.0000 0.36240  0.85461  0.63410  Biso   1.000  O
  O6       1.0000 0.78290  0.57828  0.87185  Biso   1.000  O
  O7       1.0000 0.02376  0.63850  0.96179  Biso   1.000  O
  C1       1.0000 0.85730  0.88480  0.73192  Biso   1.000  C
  C2       1.0000 0.70490  0.91830  0.67216  Biso   1.000  C
  H1       1.0000 0.66700  0.97740  0.62460  Biso   1.000  H
  C3       1.0000 0.60950  0.86350  0.68357  Biso   1.000  C
  C4       1.0000 0.44590  0.90040  0.62210  Biso   1.000  C
  C5       1.0000 0.66620  0.77448  0.75327  Biso   1.000  C
  H2       1.0000 0.60180  0.73710  0.76050  Biso   1.000  H
  C6       1.0000 0.81880  0.74080  0.81243  Biso   1.000  C
  C7       1.0000 0.91510  0.79688  0.80191  Biso   1.000  C
  H3       1.0000 0.01760  0.77520  0.84180  Biso   1.000  H
  C8       1.0000 0.88060  0.64504  0.88781  Biso   1.000  C
  Zn2      1.0000 0.17930  0.52369  0.01883  Biso   1.000  Zn
  S2       1.0000 0.02345  0.45931  0.78357  Biso   1.000  S
  O8       1.0000 0.07500  0.42376  0.88922  Biso   1.000  O
  O9       1.0000 0.86710  0.42590  0.69650  Biso   1.000  O
  O10      1.0000 0.05490  0.57277  0.78390  Biso   1.000  O
  O11      1.0000 0.60430  0.48010  0.94130  Biso   1.000  O
  O12      1.0000 0.63760  0.35461  0.86590  Biso   1.000  O
  O13      1.0000 0.21710  0.07828  0.62815  Biso   1.000  O
  O14      1.0000 0.97624  0.13850  0.53821  Biso   1.000  O
  C9       1.0000 0.14270  0.38480  0.76808  Biso   1.000  C
  C10      1.0000 0.29510  0.41830  0.82784  Biso   1.000  C
  H4       1.0000 0.33300  0.47740  0.87540  Biso   1.000  H
  C11      1.0000 0.39050  0.36350  0.81643  Biso   1.000  C
  C12      1.0000 0.55410  0.40040  0.87790  Biso   1.000  C
  C13      1.0000 0.33380  0.27448  0.74673  Biso   1.000  C
  H5       1.0000 0.39820  0.23710  0.73950  Biso   1.000  H
  C14      1.0000 0.18120  0.24080  0.68757  Biso   1.000  C
  C15      1.0000 0.08490  0.29688  0.69809  Biso   1.000  C
  H6       1.0000 0.98240  0.27520  0.65820  Biso   1.000  H
  C16      1.0000 0.11940  0.14504  0.61219  Biso   1.000  C
  Zn3      1.0000 0.17930  0.97631  0.51883  Biso   1.000  Zn
  S3       1.0000 0.02345  0.04069  0.28357  Biso   1.000  S
  O15      1.0000 0.07500  0.07624  0.38922  Biso   1.000  O
  O16      1.0000 0.86710  0.07410  0.19650  Biso   1.000  O
  O17      1.0000 0.05490  0.92723  0.28390  Biso   1.000  O
  O18      1.0000 0.60430  0.01990  0.44130  Biso   1.000  O
  O19      1.0000 0.63760  0.14539  0.36590  Biso   1.000  O
  O20      1.0000 0.21710  0.42172  0.12815  Biso   1.000  O
  O21      1.0000 0.97624  0.36150  0.03821  Biso   1.000  O
  C17      1.0000 0.14270  0.11520  0.26808  Biso   1.000  C
  C18      1.0000 0.29510  0.08170  0.32784  Biso   1.000  C
  H7       1.0000 0.33300  0.02260  0.37540  Biso   1.000  H
  C19      1.0000 0.39050  0.13650  0.31643  Biso   1.000  C
  C20      1.0000 0.55410  0.09960  0.37790  Biso   1.000  C
  C21      1.0000 0.33380  0.22552  0.24673  Biso   1.000  C
  H8       1.0000 0.39820  0.26290  0.23950  Biso   1.000  H
  C22      1.0000 0.18120  0.25920  0.18757  Biso   1.000  C
  C23      1.0000 0.08490  0.20312  0.19809  Biso   1.000  C
  H9       1.0000 0.98240  0.22480  0.15820  Biso   1.000  H
  C24      1.0000 0.11940  0.35496  0.11219  Biso   1.000  C
  Zn4      1.0000 0.82070  0.47631  0.98117  Biso   1.000  Zn
  S4       1.0000 0.97655  0.54069  0.21643  Biso   1.000  S
  O22      1.0000 0.92500  0.57624  0.11078  Biso   1.000  O
  O23      1.0000 0.13290  0.57410  0.30350  Biso   1.000  O
  O24      1.0000 0.94510  0.42723  0.21610  Biso   1.000  O
  O25      1.0000 0.39570  0.51990  0.05870  Biso   1.000  O
  O26      1.0000 0.36240  0.64539  0.13410  Biso   1.000  O
  O27      1.0000 0.78290  0.92172  0.37185  Biso   1.000  O
  O28      1.0000 0.02376  0.86150  0.46179  Biso   1.000  O
  C25      1.0000 0.85730  0.61520  0.23192  Biso   1.000  C
  C26      1.0000 0.70490  0.58170  0.17216  Biso   1.000  C
  H10      1.0000 0.66700  0.52260  0.12460  Biso   1.000  H
  C27      1.0000 0.60950  0.63650  0.18357  Biso   1.000  C
  C28      1.0000 0.44590  0.59960  0.12210  Biso   1.000  C
  C29      1.0000 0.66620  0.72552  0.25327  Biso   1.000  C
  H11      1.0000 0.60180  0.76290  0.26050  Biso   1.000  H
  C30      1.0000 0.81880  0.75920  0.31243  Biso   1.000  C
  C31      1.0000 0.91510  0.70312  0.30191  Biso   1.000  C
  H12      1.0000 0.01760  0.72480  0.34180  Biso   1.000  H
  C32      1.0000 0.88060  0.85496  0.38781  Biso   1.000  C
