data_image0
_cell_length_a       11.2574
_cell_length_b       12.0034
_cell_length_c       16.143
_cell_angle_alpha    90
_cell_angle_beta     129.603
_cell_angle_gamma    90

_symmetry_space_group_name_H-M    "P 1"
_symmetry_int_tables_number       1

loop_
  _symmetry_equiv_pos_as_xyz
  'x, y, z'

loop_
  _atom_site_label
  _atom_site_occupancy
  _atom_site_fract_x
  _atom_site_fract_y
  _atom_site_fract_z
  _atom_site_thermal_displace_type
  _atom_site_B_iso_or_equiv
  _atom_site_type_symbol
  Zn1      1.0000 0.17802  0.02579  0.01875  Biso   1.000  Zn
  O1       1.0000 0.07007  0.92702  0.88853  Biso   1.000  O
  O2       1.0000 0.39360  0.01943  0.05616  Biso   1.000  O
  O3       1.0000 0.36059  0.14677  0.13466  Biso   1.000  O
  O4       1.0000 0.21474  0.92135  0.12666  Biso   1.000  O
  O5       1.0000 0.02462  0.14410  0.96402  Biso   1.000  O
  S1       1.0000 0.02264  0.96556  0.78470  Biso   1.000  S
  C1       1.0000 0.14200  0.89041  0.76816  Biso   1.000  C
  O6       1.0000 0.05760  0.08097  0.78813  Biso   1.000  O
  O7       1.0000 0.86668  0.93370  0.69765  Biso   1.000  O
  C2       1.0000 0.29550  0.92231  0.82860  Biso   1.000  C
  C3       1.0000 0.08380  0.80260  0.69689  Biso   1.000  C
  C4       1.0000 0.39120  0.86603  0.81660  Biso   1.000  C
  H1       1.0000 0.33380  0.98120  0.87690  Biso   1.000  H
  C5       1.0000 0.18000  0.74518  0.68588  Biso   1.000  C
  H2       1.0000 0.98090  0.78200  0.65650  Biso   1.000  H
  C6       1.0000 0.33350  0.77748  0.74547  Biso   1.000  C
  C7       1.0000 0.55560  0.90125  0.87888  Biso   1.000  C
  C8       1.0000 0.11810  0.64849  0.61027  Biso   1.000  C
  H3       1.0000 0.39750  0.73940  0.73740  Biso   1.000  H
  Zn2      1.0000 0.82198  0.52579  0.48125  Biso   1.000  Zn
  O8       1.0000 0.92993  0.42702  0.61147  Biso   1.000  O
  O9       1.0000 0.60640  0.51943  0.44384  Biso   1.000  O
  O10      1.0000 0.63941  0.64677  0.36534  Biso   1.000  O
  O11      1.0000 0.78526  0.42135  0.37334  Biso   1.000  O
  O12      1.0000 0.97538  0.64410  0.53598  Biso   1.000  O
  S2       1.0000 0.97736  0.46556  0.71530  Biso   1.000  S
  C9       1.0000 0.85800  0.39041  0.73184  Biso   1.000  C
  O13      1.0000 0.94240  0.58097  0.71187  Biso   1.000  O
  O14      1.0000 0.13332  0.43370  0.80235  Biso   1.000  O
  C10      1.0000 0.70450  0.42231  0.67140  Biso   1.000  C
  C11      1.0000 0.91620  0.30260  0.80311  Biso   1.000  C
  C12      1.0000 0.60880  0.36603  0.68340  Biso   1.000  C
  H4       1.0000 0.66620  0.48120  0.62310  Biso   1.000  H
  C13      1.0000 0.82000  0.24518  0.81412  Biso   1.000  C
  H5       1.0000 0.01910  0.28200  0.84350  Biso   1.000  H
  C14      1.0000 0.66650  0.27748  0.75453  Biso   1.000  C
  C15      1.0000 0.44440  0.40125  0.62112  Biso   1.000  C
  C16      1.0000 0.88190  0.14849  0.88973  Biso   1.000  C
  H6       1.0000 0.60250  0.23940  0.76260  Biso   1.000  H
  Zn3      1.0000 0.82198  0.97421  0.98125  Biso   1.000  Zn
  O15      1.0000 0.92993  0.07298  0.11147  Biso   1.000  O
  O16      1.0000 0.60640  0.98057  0.94384  Biso   1.000  O
  O17      1.0000 0.63941  0.85323  0.86534  Biso   1.000  O
  O18      1.0000 0.78526  0.07865  0.87334  Biso   1.000  O
  O19      1.0000 0.97538  0.85590  0.03598  Biso   1.000  O
  S3       1.0000 0.97736  0.03444  0.21530  Biso   1.000  S
  C17      1.0000 0.85800  0.10959  0.23184  Biso   1.000  C
  O20      1.0000 0.94240  0.91903  0.21187  Biso   1.000  O
  O21      1.0000 0.13332  0.06630  0.30235  Biso   1.000  O
  C18      1.0000 0.70450  0.07769  0.17140  Biso   1.000  C
  C19      1.0000 0.91620  0.19740  0.30311  Biso   1.000  C
  C20      1.0000 0.60880  0.13397  0.18340  Biso   1.000  C
  H7       1.0000 0.66620  0.01880  0.12310  Biso   1.000  H
  C21      1.0000 0.82000  0.25482  0.31412  Biso   1.000  C
  H8       1.0000 0.01910  0.21800  0.34350  Biso   1.000  H
  C22      1.0000 0.66650  0.22252  0.25453  Biso   1.000  C
  C23      1.0000 0.44440  0.09875  0.12112  Biso   1.000  C
  C24      1.0000 0.88190  0.35151  0.38973  Biso   1.000  C
  H9       1.0000 0.60250  0.26060  0.26260  Biso   1.000  H
  Zn4      1.0000 0.17802  0.47421  0.51875  Biso   1.000  Zn
  O22      1.0000 0.07007  0.57298  0.38853  Biso   1.000  O
  O23      1.0000 0.39360  0.48057  0.55616  Biso   1.000  O
  O24      1.0000 0.36059  0.35323  0.63466  Biso   1.000  O
  O25      1.0000 0.21474  0.57865  0.62666  Biso   1.000  O
  O26      1.0000 0.02462  0.35590  0.46402  Biso   1.000  O
  S4       1.0000 0.02264  0.53444  0.28470  Biso   1.000  S
  C25      1.0000 0.14200  0.60959  0.26816  Biso   1.000  C
  O27      1.0000 0.05760  0.41903  0.28813  Biso   1.000  O
  O28      1.0000 0.86668  0.56630  0.19765  Biso   1.000  O
  C26      1.0000 0.29550  0.57769  0.32860  Biso   1.000  C
  C27      1.0000 0.08380  0.69740  0.19689  Biso   1.000  C
  C28      1.0000 0.39120  0.63397  0.31660  Biso   1.000  C
  H10      1.0000 0.33380  0.51880  0.37690  Biso   1.000  H
  C29      1.0000 0.18000  0.75482  0.18588  Biso   1.000  C
  H11      1.0000 0.98090  0.71800  0.15650  Biso   1.000  H
  C30      1.0000 0.33350  0.72252  0.24547  Biso   1.000  C
  C31      1.0000 0.55560  0.59875  0.37888  Biso   1.000  C
  C32      1.0000 0.11810  0.85151  0.11027  Biso   1.000  C
  H12      1.0000 0.39750  0.76060  0.23740  Biso   1.000  H
