data_image0
_cell_length_a       11.2896
_cell_length_b       12.1049
_cell_length_c       16.1579
_cell_angle_alpha    90
_cell_angle_beta     129.914
_cell_angle_gamma    90

_symmetry_space_group_name_H-M    "P 1"
_symmetry_int_tables_number       1

loop_
  _symmetry_equiv_pos_as_xyz
  'x, y, z'

loop_
  _atom_site_label
  _atom_site_occupancy
  _atom_site_fract_x
  _atom_site_fract_y
  _atom_site_fract_z
  _atom_site_thermal_displace_type
  _atom_site_B_iso_or_equiv
  _atom_site_type_symbol
  Zn1      1.0000 0.82132  0.02471  0.48098  Biso   1.000  Zn
  S1       1.0000 0.97715  0.96244  0.71584  Biso   1.000  S
  O1       1.0000 0.92720  0.92544  0.61072  Biso   1.000  O
  O2       1.0000 0.13310  0.92960  0.80265  Biso   1.000  O
  O3       1.0000 0.94460  0.07620  0.71460  Biso   1.000  O
  O4       1.0000 0.39460  0.98006  0.55763  Biso   1.000  O
  O5       1.0000 0.36210  0.85415  0.63532  Biso   1.000  O
  O6       1.0000 0.78410  0.57851  0.87254  Biso   1.000  O
  O7       1.0000 0.02394  0.64134  0.96261  Biso   1.000  O
  C1       1.0000 0.85760  0.88758  0.73180  Biso   1.000  C
  C2       1.0000 0.70490  0.92009  0.67184  Biso   1.000  C
  H1       1.0000 0.66680  0.97890  0.62390  Biso   1.000  H
  C3       1.0000 0.60930  0.86461  0.68369  Biso   1.000  C
  C4       1.0000 0.44530  0.90080  0.62190  Biso   1.000  C
  C5       1.0000 0.66690  0.77597  0.75412  Biso   1.000  C
  H2       1.0000 0.60270  0.73830  0.76180  Biso   1.000  H
  C6       1.0000 0.81930  0.74286  0.81331  Biso   1.000  C
  C7       1.0000 0.91620  0.79983  0.80278  Biso   1.000  C
  H3       1.0000 0.01900  0.77910  0.84300  Biso   1.000  H
  C8       1.0000 0.88120  0.64705  0.88854  Biso   1.000  C
  Zn2      1.0000 0.17868  0.52471  0.01902  Biso   1.000  Zn
  S2       1.0000 0.02285  0.46244  0.78416  Biso   1.000  S
  O8       1.0000 0.07280  0.42544  0.88928  Biso   1.000  O
  O9       1.0000 0.86690  0.42960  0.69735  Biso   1.000  O
  O10      1.0000 0.05540  0.57620  0.78540  Biso   1.000  O
  O11      1.0000 0.60540  0.48006  0.94237  Biso   1.000  O
  O12      1.0000 0.63790  0.35415  0.86468  Biso   1.000  O
  O13      1.0000 0.21590  0.07851  0.62746  Biso   1.000  O
  O14      1.0000 0.97606  0.14134  0.53739  Biso   1.000  O
  C9       1.0000 0.14240  0.38758  0.76820  Biso   1.000  C
  C10      1.0000 0.29510  0.42009  0.82816  Biso   1.000  C
  H4       1.0000 0.33320  0.47890  0.87610  Biso   1.000  H
  C11      1.0000 0.39070  0.36461  0.81631  Biso   1.000  C
  C12      1.0000 0.55470  0.40080  0.87810  Biso   1.000  C
  C13      1.0000 0.33310  0.27597  0.74588  Biso   1.000  C
  H5       1.0000 0.39730  0.23830  0.73820  Biso   1.000  H
  C14      1.0000 0.18070  0.24286  0.68669  Biso   1.000  C
  C15      1.0000 0.08380  0.29983  0.69722  Biso   1.000  C
  H6       1.0000 0.98100  0.27910  0.65700  Biso   1.000  H
  C16      1.0000 0.11880  0.14705  0.61146  Biso   1.000  C
  Zn3      1.0000 0.17868  0.97529  0.51902  Biso   1.000  Zn
  S3       1.0000 0.02285  0.03756  0.28416  Biso   1.000  S
  O15      1.0000 0.07280  0.07456  0.38928  Biso   1.000  O
  O16      1.0000 0.86690  0.07040  0.19735  Biso   1.000  O
  O17      1.0000 0.05540  0.92380  0.28540  Biso   1.000  O
  O18      1.0000 0.60540  0.01994  0.44237  Biso   1.000  O
  O19      1.0000 0.63790  0.14585  0.36468  Biso   1.000  O
  O20      1.0000 0.21590  0.42149  0.12746  Biso   1.000  O
  O21      1.0000 0.97606  0.35866  0.03739  Biso   1.000  O
  C17      1.0000 0.14240  0.11242  0.26820  Biso   1.000  C
  C18      1.0000 0.29510  0.07991  0.32816  Biso   1.000  C
  H7       1.0000 0.33320  0.02110  0.37610  Biso   1.000  H
  C19      1.0000 0.39070  0.13539  0.31631  Biso   1.000  C
  C20      1.0000 0.55470  0.09920  0.37810  Biso   1.000  C
  C21      1.0000 0.33310  0.22403  0.24588  Biso   1.000  C
  H8       1.0000 0.39730  0.26170  0.23820  Biso   1.000  H
  C22      1.0000 0.18070  0.25714  0.18669  Biso   1.000  C
  C23      1.0000 0.08380  0.20017  0.19722  Biso   1.000  C
  H9       1.0000 0.98100  0.22090  0.15700  Biso   1.000  H
  C24      1.0000 0.11880  0.35295  0.11146  Biso   1.000  C
  Zn4      1.0000 0.82132  0.47529  0.98098  Biso   1.000  Zn
  S4       1.0000 0.97715  0.53756  0.21584  Biso   1.000  S
  O22      1.0000 0.92720  0.57456  0.11072  Biso   1.000  O
  O23      1.0000 0.13310  0.57040  0.30265  Biso   1.000  O
  O24      1.0000 0.94460  0.42380  0.21460  Biso   1.000  O
  O25      1.0000 0.39460  0.51994  0.05763  Biso   1.000  O
  O26      1.0000 0.36210  0.64585  0.13532  Biso   1.000  O
  O27      1.0000 0.78410  0.92149  0.37254  Biso   1.000  O
  O28      1.0000 0.02394  0.85866  0.46261  Biso   1.000  O
  C25      1.0000 0.85760  0.61242  0.23180  Biso   1.000  C
  C26      1.0000 0.70490  0.57991  0.17184  Biso   1.000  C
  H10      1.0000 0.66680  0.52110  0.12390  Biso   1.000  H
  C27      1.0000 0.60930  0.63539  0.18369  Biso   1.000  C
  C28      1.0000 0.44530  0.59920  0.12190  Biso   1.000  C
  C29      1.0000 0.66690  0.72403  0.25412  Biso   1.000  C
  H11      1.0000 0.60270  0.76170  0.26180  Biso   1.000  H
  C30      1.0000 0.81930  0.75714  0.31331  Biso   1.000  C
  C31      1.0000 0.91620  0.70017  0.30278  Biso   1.000  C
  H12      1.0000 0.01900  0.72090  0.34300  Biso   1.000  H
  C32      1.0000 0.88120  0.85295  0.38854  Biso   1.000  C
