data_image0
_cell_length_a       11.3504
_cell_length_b       12.1923
_cell_length_c       16.1827
_cell_angle_alpha    90
_cell_angle_beta     130.491
_cell_angle_gamma    90

_symmetry_space_group_name_H-M    "P 1"
_symmetry_int_tables_number       1

loop_
  _symmetry_equiv_pos_as_xyz
  'x, y, z'

loop_
  _atom_site_label
  _atom_site_occupancy
  _atom_site_fract_x
  _atom_site_fract_y
  _atom_site_fract_z
  _atom_site_thermal_displace_type
  _atom_site_B_iso_or_equiv
  _atom_site_type_symbol
  C1       1.0000 0.14270  0.88482  0.76806  Biso   1.000  C
  C2       1.0000 0.08520  0.79696  0.69817  Biso   1.000  C
  H1       1.0000 0.98260  0.77540  0.65830  Biso   1.000  H
  C3       1.0000 0.18120  0.74074  0.68764  Biso   1.000  C
  C4       1.0000 0.11960  0.64502  0.61218  Biso   1.000  C
  C5       1.0000 0.33390  0.77456  0.74681  Biso   1.000  C
  H2       1.0000 0.39830  0.73730  0.73960  Biso   1.000  H
  C6       1.0000 0.39040  0.86353  0.81638  Biso   1.000  C
  C7       1.0000 0.29510  0.91824  0.82787  Biso   1.000  C
  H3       1.0000 0.33310  0.97720  0.87550  Biso   1.000  H
  C8       1.0000 0.55420  0.90060  0.87800  Biso   1.000  C
  O1       1.0000 0.07500  0.92386  0.88926  Biso   1.000  O
  O2       1.0000 0.86740  0.92600  0.69668  Biso   1.000  O
  O3       1.0000 0.05510  0.07284  0.78410  Biso   1.000  O
  O4       1.0000 0.21706  0.57836  0.62812  Biso   1.000  O
  O5       1.0000 0.97630  0.63849  0.53821  Biso   1.000  O
  O6       1.0000 0.63770  0.85459  0.86589  Biso   1.000  O
  O7       1.0000 0.60420  0.98007  0.94123  Biso   1.000  O
  S1       1.0000 0.02350  0.95935  0.78361  Biso   1.000  S
  Zn1      1.0000 0.17931  0.02369  0.01883  Biso   1.000  Zn
  C9       1.0000 0.85730  0.38482  0.73194  Biso   1.000  C
  C10      1.0000 0.91480  0.29696  0.80183  Biso   1.000  C
  H4       1.0000 0.01740  0.27540  0.84170  Biso   1.000  H
  C11      1.0000 0.81880  0.24074  0.81236  Biso   1.000  C
  C12      1.0000 0.88040  0.14502  0.88782  Biso   1.000  C
  C13      1.0000 0.66610  0.27456  0.75319  Biso   1.000  C
  H5       1.0000 0.60170  0.23730  0.76040  Biso   1.000  H
  C14      1.0000 0.60960  0.36353  0.68362  Biso   1.000  C
  C15      1.0000 0.70490  0.41824  0.67213  Biso   1.000  C
  H6       1.0000 0.66690  0.47720  0.62450  Biso   1.000  H
  C16      1.0000 0.44580  0.40060  0.62200  Biso   1.000  C
  O8       1.0000 0.92500  0.42386  0.61074  Biso   1.000  O
  O9       1.0000 0.13260  0.42600  0.80332  Biso   1.000  O
  O10      1.0000 0.94490  0.57284  0.71590  Biso   1.000  O
  O11      1.0000 0.78294  0.07836  0.87188  Biso   1.000  O
  O12      1.0000 0.02370  0.13849  0.96179  Biso   1.000  O
  O13      1.0000 0.36230  0.35459  0.63411  Biso   1.000  O
  O14      1.0000 0.39580  0.48007  0.55877  Biso   1.000  O
  S2       1.0000 0.97650  0.45935  0.71639  Biso   1.000  S
  Zn2      1.0000 0.82069  0.52369  0.48117  Biso   1.000  Zn
  C17      1.0000 0.85730  0.11518  0.23194  Biso   1.000  C
  C18      1.0000 0.91480  0.20304  0.30183  Biso   1.000  C
  H7       1.0000 0.01740  0.22460  0.34170  Biso   1.000  H
  C19      1.0000 0.81880  0.25926  0.31236  Biso   1.000  C
  C20      1.0000 0.88040  0.35498  0.38782  Biso   1.000  C
  C21      1.0000 0.66610  0.22544  0.25319  Biso   1.000  C
  H8       1.0000 0.60170  0.26270  0.26040  Biso   1.000  H
  C22      1.0000 0.60960  0.13647  0.18362  Biso   1.000  C
  C23      1.0000 0.70490  0.08176  0.17213  Biso   1.000  C
  H9       1.0000 0.66690  0.02280  0.12450  Biso   1.000  H
  C24      1.0000 0.44580  0.09940  0.12200  Biso   1.000  C
  O15      1.0000 0.92500  0.07614  0.11074  Biso   1.000  O
  O16      1.0000 0.13260  0.07400  0.30332  Biso   1.000  O
  O17      1.0000 0.94490  0.92716  0.21590  Biso   1.000  O
  O18      1.0000 0.78294  0.42164  0.37188  Biso   1.000  O
  O19      1.0000 0.02370  0.36151  0.46179  Biso   1.000  O
  O20      1.0000 0.36230  0.14541  0.13411  Biso   1.000  O
  O21      1.0000 0.39580  0.01993  0.05877  Biso   1.000  O
  S3       1.0000 0.97650  0.04065  0.21639  Biso   1.000  S
  Zn3      1.0000 0.82069  0.97631  0.98117  Biso   1.000  Zn
  C25      1.0000 0.14270  0.61518  0.26806  Biso   1.000  C
  C26      1.0000 0.08520  0.70304  0.19817  Biso   1.000  C
  H10      1.0000 0.98260  0.72460  0.15830  Biso   1.000  H
  C27      1.0000 0.18120  0.75926  0.18764  Biso   1.000  C
  C28      1.0000 0.11960  0.85498  0.11218  Biso   1.000  C
  C29      1.0000 0.33390  0.72544  0.24681  Biso   1.000  C
  H11      1.0000 0.39830  0.76270  0.23960  Biso   1.000  H
  C30      1.0000 0.39040  0.63647  0.31638  Biso   1.000  C
  C31      1.0000 0.29510  0.58176  0.32787  Biso   1.000  C
  H12      1.0000 0.33310  0.52280  0.37550  Biso   1.000  H
  C32      1.0000 0.55420  0.59940  0.37800  Biso   1.000  C
  O22      1.0000 0.07500  0.57614  0.38926  Biso   1.000  O
  O23      1.0000 0.86740  0.57400  0.19668  Biso   1.000  O
  O24      1.0000 0.05510  0.42716  0.28410  Biso   1.000  O
  O25      1.0000 0.21706  0.92164  0.12812  Biso   1.000  O
  O26      1.0000 0.97630  0.86151  0.03821  Biso   1.000  O
  O27      1.0000 0.63770  0.64541  0.36589  Biso   1.000  O
  O28      1.0000 0.60420  0.51993  0.44123  Biso   1.000  O
  S4       1.0000 0.02350  0.54065  0.28361  Biso   1.000  S
  Zn4      1.0000 0.17931  0.47631  0.51883  Biso   1.000  Zn
