data_image0
_cell_length_a       18.56
_cell_length_b       20.499
_cell_length_c       20.761
_cell_angle_alpha    90
_cell_angle_beta     90
_cell_angle_gamma    90

_symmetry_space_group_name_H-M    "P 1"
_symmetry_int_tables_number       1

loop_
  _symmetry_equiv_pos_as_xyz
  'x, y, z'

loop_
  _atom_site_label
  _atom_site_occupancy
  _atom_site_fract_x
  _atom_site_fract_y
  _atom_site_fract_z
  _atom_site_thermal_displace_type
  _atom_site_B_iso_or_equiv
  _atom_site_type_symbol
  Cd1      1.0000 0.61952  0.02988  0.75006  Biso   1.000  Cd
  O1       1.0000 0.72243  0.09773  0.75424  Biso   1.000  O
  O2       1.0000 0.61723  0.14710  0.74819  Biso   1.000  O
  O3       1.0000 0.89760  0.40035  0.73740  Biso   1.000  O
  O4       1.0000 0.79620  0.44921  0.76030  Biso   1.000  O
  O5       1.0000 0.62390  0.03090  0.86632  Biso   1.000  O
  O6       1.0000 0.52070  0.00860  0.82206  Biso   1.000  O
  O7       1.0000 0.53356  0.02455  0.67139  Biso   1.000  O
  O8       1.0000 0.64020  0.02680  0.62649  Biso   1.000  O
  C1       1.0000 0.68530  0.14810  0.75180  Biso   1.000  C
  C2       1.0000 0.72220  0.21350  0.75090  Biso   1.000  C
  C3       1.0000 0.72390  0.25050  0.69400  Biso   1.000  C
  C4       1.0000 0.69380  0.22630  0.63490  Biso   1.000  C
  H1       1.0000 0.67420  0.18460  0.63330  Biso   1.000  H
  C5       1.0000 0.69390  0.26450  0.58120  Biso   1.000  C
  H2       1.0000 0.67480  0.24820  0.54300  Biso   1.000  H
  C6       1.0000 0.72290  0.32880  0.58260  Biso   1.000  C
  H3       1.0000 0.71990  0.35510  0.54630  Biso   1.000  H
  C7       1.0000 0.75450  0.35150  0.63670  Biso   1.000  C
  H4       1.0000 0.77400  0.39330  0.63680  Biso   1.000  H
  C8       1.0000 0.75860  0.31260  0.69380  Biso   1.000  C
  C9       1.0000 0.79350  0.33470  0.75000  Biso   1.000  C
  C10      1.0000 0.79060  0.29800  0.80710  Biso   1.000  C
  C11      1.0000 0.82270  0.32150  0.86570  Biso   1.000  C
  H5       1.0000 0.84690  0.36130  0.86590  Biso   1.000  H
  C12      1.0000 0.81800  0.28610  0.92050  Biso   1.000  C
  H6       1.0000 0.83790  0.30200  0.95850  Biso   1.000  H
  C13      1.0000 0.78260  0.22470  0.92020  Biso   1.000  C
  H7       1.0000 0.78090  0.20020  0.95780  Biso   1.000  H
  C14      1.0000 0.75160  0.20120  0.86650  Biso   1.000  C
  H8       1.0000 0.72800  0.16110  0.86780  Biso   1.000  H
  C15      1.0000 0.75420  0.23660  0.80810  Biso   1.000  C
  C16      1.0000 0.83260  0.39930  0.74890  Biso   1.000  C
  C17      1.0000 0.55880  0.01680  0.87010  Biso   1.000  C
  C18      1.0000 0.52660  0.00800  0.93690  Biso   1.000  C
  C19      1.0000 0.50110  0.94660  0.95620  Biso   1.000  C
  C20      1.0000 0.50110  0.89120  0.91460  Biso   1.000  C
  H9       1.0000 0.51790  0.89590  0.87270  Biso   1.000  H
  C21      1.0000 0.47760  0.83240  0.93390  Biso   1.000  C
  H10      1.0000 0.47670  0.79760  0.90520  Biso   1.000  H
  C22      1.0000 0.45420  0.82360  0.99840  Biso   1.000  C
  H11      1.0000 0.44000  0.78240  0.01220  Biso   1.000  H
  C23      1.0000 0.45210  0.87460  0.04050  Biso   1.000  C
  H12      1.0000 0.43590  0.86800  0.08240  Biso   1.000  H
  C24      1.0000 0.52540  0.06210  0.97910  Biso   1.000  C
  C25      1.0000 0.57390  0.02200  0.62320  Biso   1.000  C
  C26      1.0000 0.53680  0.01110  0.55880  Biso   1.000  C
  C27      1.0000 0.54090  0.94940  0.52890  Biso   1.000  C
  C28      1.0000 0.58010  0.89670  0.55690  Biso   1.000  C
  H13      1.0000 0.60410  0.90300  0.59580  Biso   1.000  H
  C29      1.0000 0.58280  0.83760  0.52750  Biso   1.000  C
  H14      1.0000 0.60800  0.80360  0.54680  Biso   1.000  H
  C30      1.0000 0.54760  0.82700  0.46780  Biso   1.000  C
  H15      1.0000 0.55140  0.78660  0.44770  Biso   1.000  H
  C31      1.0000 0.50870  0.87500  0.43990  Biso   1.000  C
  H16      1.0000 0.48480  0.86690  0.40130  Biso   1.000  H
  C32      1.0000 0.49650  0.06170  0.53110  Biso   1.000  C
  Cd2      1.0000 0.11952  0.47012  0.24994  Biso   1.000  Cd
  O9       1.0000 0.22243  0.40227  0.24576  Biso   1.000  O
  O10      1.0000 0.11723  0.35290  0.25181  Biso   1.000  O
  O11      1.0000 0.39760  0.09965  0.26260  Biso   1.000  O
  O12      1.0000 0.29620  0.05079  0.23970  Biso   1.000  O
  O13      1.0000 0.12390  0.46910  0.13368  Biso   1.000  O
  O14      1.0000 0.02070  0.49140  0.17794  Biso   1.000  O
  O15      1.0000 0.03356  0.47545  0.32861  Biso   1.000  O
  O16      1.0000 0.14020  0.47320  0.37351  Biso   1.000  O
  C33      1.0000 0.18530  0.35190  0.24820  Biso   1.000  C
  C34      1.0000 0.22220  0.28650  0.24910  Biso   1.000  C
  C35      1.0000 0.22390  0.24950  0.30600  Biso   1.000  C
  C36      1.0000 0.19380  0.27370  0.36510  Biso   1.000  C
  H17      1.0000 0.17420  0.31540  0.36670  Biso   1.000  H
  C37      1.0000 0.19390  0.23550  0.41880  Biso   1.000  C
  H18      1.0000 0.17480  0.25180  0.45700  Biso   1.000  H
  C38      1.0000 0.22290  0.17120  0.41740  Biso   1.000  C
  H19      1.0000 0.21990  0.14490  0.45370  Biso   1.000  H
  C39      1.0000 0.25450  0.14850  0.36330  Biso   1.000  C
  H20      1.0000 0.27400  0.10670  0.36320  Biso   1.000  H
  C40      1.0000 0.25860  0.18740  0.30620  Biso   1.000  C
  C41      1.0000 0.29350  0.16530  0.25000  Biso   1.000  C
  C42      1.0000 0.29060  0.20200  0.19290  Biso   1.000  C
  C43      1.0000 0.32270  0.17850  0.13430  Biso   1.000  C
  H21      1.0000 0.34690  0.13870  0.13410  Biso   1.000  H
  C44      1.0000 0.31800  0.21390  0.07950  Biso   1.000  C
  H22      1.0000 0.33790  0.19800  0.04150  Biso   1.000  H
  C45      1.0000 0.28260  0.27530  0.07980  Biso   1.000  C
  H23      1.0000 0.28090  0.29980  0.04220  Biso   1.000  H
  C46      1.0000 0.25160  0.29880  0.13350  Biso   1.000  C
  H24      1.0000 0.22800  0.33890  0.13220  Biso   1.000  H
  C47      1.0000 0.25420  0.26340  0.19190  Biso   1.000  C
  C48      1.0000 0.33260  0.10070  0.25110  Biso   1.000  C
  C49      1.0000 0.05880  0.48320  0.12990  Biso   1.000  C
  C50      1.0000 0.02660  0.49200  0.06310  Biso   1.000  C
  C51      1.0000 0.00110  0.55340  0.04380  Biso   1.000  C
  C52      1.0000 0.00110  0.60880  0.08540  Biso   1.000  C
  H25      1.0000 0.01790  0.60410  0.12730  Biso   1.000  H
  C53      1.0000 0.97760  0.66760  0.06610  Biso   1.000  C
  H26      1.0000 0.97670  0.70240  0.09480  Biso   1.000  H
  C54      1.0000 0.95420  0.67640  0.00160  Biso   1.000  C
  H27      1.0000 0.94000  0.71760  0.98780  Biso   1.000  H
  C55      1.0000 0.95210  0.62540  0.95950  Biso   1.000  C
  H28      1.0000 0.93590  0.63200  0.91760  Biso   1.000  H
  C56      1.0000 0.02540  0.43790  0.02090  Biso   1.000  C
  C57      1.0000 0.07390  0.47800  0.37680  Biso   1.000  C
  C58      1.0000 0.03680  0.48890  0.44120  Biso   1.000  C
  C59      1.0000 0.04090  0.55060  0.47110  Biso   1.000  C
  C60      1.0000 0.08010  0.60330  0.44310  Biso   1.000  C
  H29      1.0000 0.10410  0.59700  0.40420  Biso   1.000  H
  C61      1.0000 0.08280  0.66240  0.47250  Biso   1.000  C
  H30      1.0000 0.10800  0.69640  0.45320  Biso   1.000  H
  C62      1.0000 0.04760  0.67300  0.53220  Biso   1.000  C
  H31      1.0000 0.05140  0.71340  0.55230  Biso   1.000  H
  C63      1.0000 0.00870  0.62500  0.56010  Biso   1.000  C
  H32      1.0000 0.98480  0.63310  0.59870  Biso   1.000  H
  C64      1.0000 0.99650  0.43830  0.46890  Biso   1.000  C
  Cd3      1.0000 0.38048  0.97012  0.24994  Biso   1.000  Cd
  O17      1.0000 0.27757  0.90227  0.24576  Biso   1.000  O
  O18      1.0000 0.38277  0.85290  0.25181  Biso   1.000  O
  O19      1.0000 0.10240  0.59965  0.26260  Biso   1.000  O
  O20      1.0000 0.20380  0.55079  0.23970  Biso   1.000  O
  O21      1.0000 0.37610  0.96910  0.13368  Biso   1.000  O
  O22      1.0000 0.47930  0.99140  0.17794  Biso   1.000  O
  O23      1.0000 0.46644  0.97545  0.32861  Biso   1.000  O
  O24      1.0000 0.35980  0.97320  0.37351  Biso   1.000  O
  C65      1.0000 0.31470  0.85190  0.24820  Biso   1.000  C
  C66      1.0000 0.27780  0.78650  0.24910  Biso   1.000  C
  C67      1.0000 0.27610  0.74950  0.30600  Biso   1.000  C
  C68      1.0000 0.30620  0.77370  0.36510  Biso   1.000  C
  H33      1.0000 0.32580  0.81540  0.36670  Biso   1.000  H
  C69      1.0000 0.30610  0.73550  0.41880  Biso   1.000  C
  H34      1.0000 0.32520  0.75180  0.45700  Biso   1.000  H
  C70      1.0000 0.27710  0.67120  0.41740  Biso   1.000  C
  H35      1.0000 0.28010  0.64490  0.45370  Biso   1.000  H
  C71      1.0000 0.24550  0.64850  0.36330  Biso   1.000  C
  H36      1.0000 0.22600  0.60670  0.36320  Biso   1.000  H
  C72      1.0000 0.24140  0.68740  0.30620  Biso   1.000  C
  C73      1.0000 0.20650  0.66530  0.25000  Biso   1.000  C
  C74      1.0000 0.20940  0.70200  0.19290  Biso   1.000  C
  C75      1.0000 0.17730  0.67850  0.13430  Biso   1.000  C
  H37      1.0000 0.15310  0.63870  0.13410  Biso   1.000  H
  C76      1.0000 0.18200  0.71390  0.07950  Biso   1.000  C
  H38      1.0000 0.16210  0.69800  0.04150  Biso   1.000  H
  C77      1.0000 0.21740  0.77530  0.07980  Biso   1.000  C
  H39      1.0000 0.21910  0.79980  0.04220  Biso   1.000  H
  C78      1.0000 0.24840  0.79880  0.13350  Biso   1.000  C
  H40      1.0000 0.27200  0.83890  0.13220  Biso   1.000  H
  C79      1.0000 0.24580  0.76340  0.19190  Biso   1.000  C
  C80      1.0000 0.16740  0.60070  0.25110  Biso   1.000  C
  C81      1.0000 0.44120  0.98320  0.12990  Biso   1.000  C
  C82      1.0000 0.47340  0.99200  0.06310  Biso   1.000  C
  C83      1.0000 0.49890  0.05340  0.04380  Biso   1.000  C
  C84      1.0000 0.49890  0.10880  0.08540  Biso   1.000  C
  H41      1.0000 0.48210  0.10410  0.12730  Biso   1.000  H
  C85      1.0000 0.52240  0.16760  0.06610  Biso   1.000  C
  H42      1.0000 0.52330  0.20240  0.09480  Biso   1.000  H
  C86      1.0000 0.54580  0.17640  0.00160  Biso   1.000  C
  H43      1.0000 0.56000  0.21760  0.98780  Biso   1.000  H
  C87      1.0000 0.54790  0.12540  0.95950  Biso   1.000  C
  H44      1.0000 0.56410  0.13200  0.91760  Biso   1.000  H
  C88      1.0000 0.47460  0.93790  0.02090  Biso   1.000  C
  C89      1.0000 0.42610  0.97800  0.37680  Biso   1.000  C
  C90      1.0000 0.46320  0.98890  0.44120  Biso   1.000  C
  C91      1.0000 0.45910  0.05060  0.47110  Biso   1.000  C
  C92      1.0000 0.41990  0.10330  0.44310  Biso   1.000  C
  H45      1.0000 0.39590  0.09700  0.40420  Biso   1.000  H
  C93      1.0000 0.41720  0.16240  0.47250  Biso   1.000  C
  H46      1.0000 0.39200  0.19640  0.45320  Biso   1.000  H
  C94      1.0000 0.45240  0.17300  0.53220  Biso   1.000  C
  H47      1.0000 0.44860  0.21340  0.55230  Biso   1.000  H
  C95      1.0000 0.49130  0.12500  0.56010  Biso   1.000  C
  H48      1.0000 0.51520  0.13310  0.59870  Biso   1.000  H
  C96      1.0000 0.50350  0.93830  0.46890  Biso   1.000  C
  Cd4      1.0000 0.88048  0.52988  0.75006  Biso   1.000  Cd
  O25      1.0000 0.77757  0.59773  0.75424  Biso   1.000  O
  O26      1.0000 0.88277  0.64710  0.74819  Biso   1.000  O
  O27      1.0000 0.60240  0.90035  0.73740  Biso   1.000  O
  O28      1.0000 0.70380  0.94921  0.76030  Biso   1.000  O
  O29      1.0000 0.87610  0.53090  0.86632  Biso   1.000  O
  O30      1.0000 0.97930  0.50860  0.82206  Biso   1.000  O
  O31      1.0000 0.96644  0.52455  0.67139  Biso   1.000  O
  O32      1.0000 0.85980  0.52680  0.62649  Biso   1.000  O
  C97      1.0000 0.81470  0.64810  0.75180  Biso   1.000  C
  C98      1.0000 0.77780  0.71350  0.75090  Biso   1.000  C
  C99      1.0000 0.77610  0.75050  0.69400  Biso   1.000  C
  C100     1.0000 0.80620  0.72630  0.63490  Biso   1.000  C
  H49      1.0000 0.82580  0.68460  0.63330  Biso   1.000  H
  C101     1.0000 0.80610  0.76450  0.58120  Biso   1.000  C
  H50      1.0000 0.82520  0.74820  0.54300  Biso   1.000  H
  C102     1.0000 0.77710  0.82880  0.58260  Biso   1.000  C
  H51      1.0000 0.78010  0.85510  0.54630  Biso   1.000  H
  C103     1.0000 0.74550  0.85150  0.63670  Biso   1.000  C
  H52      1.0000 0.72600  0.89330  0.63680  Biso   1.000  H
  C104     1.0000 0.74140  0.81260  0.69380  Biso   1.000  C
  C105     1.0000 0.70650  0.83470  0.75000  Biso   1.000  C
  C106     1.0000 0.70940  0.79800  0.80710  Biso   1.000  C
  C107     1.0000 0.67730  0.82150  0.86570  Biso   1.000  C
  H53      1.0000 0.65310  0.86130  0.86590  Biso   1.000  H
  C108     1.0000 0.68200  0.78610  0.92050  Biso   1.000  C
  H54      1.0000 0.66210  0.80200  0.95850  Biso   1.000  H
  C109     1.0000 0.71740  0.72470  0.92020  Biso   1.000  C
  H55      1.0000 0.71910  0.70020  0.95780  Biso   1.000  H
  C110     1.0000 0.74840  0.70120  0.86650  Biso   1.000  C
  H56      1.0000 0.77200  0.66110  0.86780  Biso   1.000  H
  C111     1.0000 0.74580  0.73660  0.80810  Biso   1.000  C
  C112     1.0000 0.66740  0.89930  0.74890  Biso   1.000  C
  C113     1.0000 0.94120  0.51680  0.87010  Biso   1.000  C
  C114     1.0000 0.97340  0.50800  0.93690  Biso   1.000  C
  C115     1.0000 0.99890  0.44660  0.95620  Biso   1.000  C
  C116     1.0000 0.99890  0.39120  0.91460  Biso   1.000  C
  H57      1.0000 0.98210  0.39590  0.87270  Biso   1.000  H
  C117     1.0000 0.02240  0.33240  0.93390  Biso   1.000  C
  H58      1.0000 0.02330  0.29760  0.90520  Biso   1.000  H
  C118     1.0000 0.04580  0.32360  0.99840  Biso   1.000  C
  H59      1.0000 0.06000  0.28240  0.01220  Biso   1.000  H
  C119     1.0000 0.04790  0.37460  0.04050  Biso   1.000  C
  H60      1.0000 0.06410  0.36800  0.08240  Biso   1.000  H
  C120     1.0000 0.97460  0.56210  0.97910  Biso   1.000  C
  C121     1.0000 0.92610  0.52200  0.62320  Biso   1.000  C
  C122     1.0000 0.96320  0.51110  0.55880  Biso   1.000  C
  C123     1.0000 0.95910  0.44940  0.52890  Biso   1.000  C
  C124     1.0000 0.91990  0.39670  0.55690  Biso   1.000  C
  H61      1.0000 0.89590  0.40300  0.59580  Biso   1.000  H
  C125     1.0000 0.91720  0.33760  0.52750  Biso   1.000  C
  H62      1.0000 0.89200  0.30360  0.54680  Biso   1.000  H
  C126     1.0000 0.95240  0.32700  0.46780  Biso   1.000  C
  H63      1.0000 0.94860  0.28660  0.44770  Biso   1.000  H
  C127     1.0000 0.99130  0.37500  0.43990  Biso   1.000  C
  H64      1.0000 0.01520  0.36690  0.40130  Biso   1.000  H
  C128     1.0000 0.00350  0.56170  0.53110  Biso   1.000  C
  Cd5      1.0000 0.88048  0.97012  0.25006  Biso   1.000  Cd
  O33      1.0000 0.77757  0.90227  0.25424  Biso   1.000  O
  O34      1.0000 0.88277  0.85290  0.24819  Biso   1.000  O
  O35      1.0000 0.60240  0.59965  0.23740  Biso   1.000  O
  O36      1.0000 0.70380  0.55079  0.26030  Biso   1.000  O
  O37      1.0000 0.87610  0.96910  0.36632  Biso   1.000  O
  O38      1.0000 0.97930  0.99140  0.32206  Biso   1.000  O
  O39      1.0000 0.96644  0.97545  0.17139  Biso   1.000  O
  O40      1.0000 0.85980  0.97320  0.12649  Biso   1.000  O
  C129     1.0000 0.81470  0.85190  0.25180  Biso   1.000  C
  C130     1.0000 0.77780  0.78650  0.25090  Biso   1.000  C
  C131     1.0000 0.77610  0.74950  0.19400  Biso   1.000  C
  C132     1.0000 0.80620  0.77370  0.13490  Biso   1.000  C
  H65      1.0000 0.82580  0.81540  0.13330  Biso   1.000  H
  C133     1.0000 0.80610  0.73550  0.08120  Biso   1.000  C
  H66      1.0000 0.82520  0.75180  0.04300  Biso   1.000  H
  C134     1.0000 0.77710  0.67120  0.08260  Biso   1.000  C
  H67      1.0000 0.78010  0.64490  0.04630  Biso   1.000  H
  C135     1.0000 0.74550  0.64850  0.13670  Biso   1.000  C
  H68      1.0000 0.72600  0.60670  0.13680  Biso   1.000  H
  C136     1.0000 0.74140  0.68740  0.19380  Biso   1.000  C
  C137     1.0000 0.70650  0.66530  0.25000  Biso   1.000  C
  C138     1.0000 0.70940  0.70200  0.30710  Biso   1.000  C
  C139     1.0000 0.67730  0.67850  0.36570  Biso   1.000  C
  H69      1.0000 0.65310  0.63870  0.36590  Biso   1.000  H
  C140     1.0000 0.68200  0.71390  0.42050  Biso   1.000  C
  H70      1.0000 0.66210  0.69800  0.45850  Biso   1.000  H
  C141     1.0000 0.71740  0.77530  0.42020  Biso   1.000  C
  H71      1.0000 0.71910  0.79980  0.45780  Biso   1.000  H
  C142     1.0000 0.74840  0.79880  0.36650  Biso   1.000  C
  H72      1.0000 0.77200  0.83890  0.36780  Biso   1.000  H
  C143     1.0000 0.74580  0.76340  0.30810  Biso   1.000  C
  C144     1.0000 0.66740  0.60070  0.24890  Biso   1.000  C
  C145     1.0000 0.94120  0.98320  0.37010  Biso   1.000  C
  C146     1.0000 0.97340  0.99200  0.43690  Biso   1.000  C
  C147     1.0000 0.99890  0.05340  0.45620  Biso   1.000  C
  C148     1.0000 0.99890  0.10880  0.41460  Biso   1.000  C
  H73      1.0000 0.98210  0.10410  0.37270  Biso   1.000  H
  C149     1.0000 0.02240  0.16760  0.43390  Biso   1.000  C
  H74      1.0000 0.02330  0.20240  0.40520  Biso   1.000  H
  C150     1.0000 0.04580  0.17640  0.49840  Biso   1.000  C
  H75      1.0000 0.06000  0.21760  0.51220  Biso   1.000  H
  C151     1.0000 0.04790  0.12540  0.54050  Biso   1.000  C
  H76      1.0000 0.06410  0.13200  0.58240  Biso   1.000  H
  C152     1.0000 0.97460  0.93790  0.47910  Biso   1.000  C
  C153     1.0000 0.92610  0.97800  0.12320  Biso   1.000  C
  C154     1.0000 0.96320  0.98890  0.05880  Biso   1.000  C
  C155     1.0000 0.95910  0.05060  0.02890  Biso   1.000  C
  C156     1.0000 0.91990  0.10330  0.05690  Biso   1.000  C
  H77      1.0000 0.89590  0.09700  0.09580  Biso   1.000  H
  C157     1.0000 0.91720  0.16240  0.02750  Biso   1.000  C
  H78      1.0000 0.89200  0.19640  0.04680  Biso   1.000  H
  C158     1.0000 0.95240  0.17300  0.96780  Biso   1.000  C
  H79      1.0000 0.94860  0.21340  0.94770  Biso   1.000  H
  C159     1.0000 0.99130  0.12500  0.93990  Biso   1.000  C
  H80      1.0000 0.01520  0.13310  0.90130  Biso   1.000  H
  C160     1.0000 0.00350  0.93830  0.03110  Biso   1.000  C
  Cd6      1.0000 0.38048  0.52988  0.74994  Biso   1.000  Cd
  O41      1.0000 0.27757  0.59773  0.74576  Biso   1.000  O
  O42      1.0000 0.38277  0.64710  0.75181  Biso   1.000  O
  O43      1.0000 0.10240  0.90035  0.76260  Biso   1.000  O
  O44      1.0000 0.20380  0.94921  0.73970  Biso   1.000  O
  O45      1.0000 0.37610  0.53090  0.63368  Biso   1.000  O
  O46      1.0000 0.47930  0.50860  0.67794  Biso   1.000  O
  O47      1.0000 0.46644  0.52455  0.82861  Biso   1.000  O
  O48      1.0000 0.35980  0.52680  0.87351  Biso   1.000  O
  C161     1.0000 0.31470  0.64810  0.74820  Biso   1.000  C
  C162     1.0000 0.27780  0.71350  0.74910  Biso   1.000  C
  C163     1.0000 0.27610  0.75050  0.80600  Biso   1.000  C
  C164     1.0000 0.30620  0.72630  0.86510  Biso   1.000  C
  H81      1.0000 0.32580  0.68460  0.86670  Biso   1.000  H
  C165     1.0000 0.30610  0.76450  0.91880  Biso   1.000  C
  H82      1.0000 0.32520  0.74820  0.95700  Biso   1.000  H
  C166     1.0000 0.27710  0.82880  0.91740  Biso   1.000  C
  H83      1.0000 0.28010  0.85510  0.95370  Biso   1.000  H
  C167     1.0000 0.24550  0.85150  0.86330  Biso   1.000  C
  H84      1.0000 0.22600  0.89330  0.86320  Biso   1.000  H
  C168     1.0000 0.24140  0.81260  0.80620  Biso   1.000  C
  C169     1.0000 0.20650  0.83470  0.75000  Biso   1.000  C
  C170     1.0000 0.20940  0.79800  0.69290  Biso   1.000  C
  C171     1.0000 0.17730  0.82150  0.63430  Biso   1.000  C
  H85      1.0000 0.15310  0.86130  0.63410  Biso   1.000  H
  C172     1.0000 0.18200  0.78610  0.57950  Biso   1.000  C
  H86      1.0000 0.16210  0.80200  0.54150  Biso   1.000  H
  C173     1.0000 0.21740  0.72470  0.57980  Biso   1.000  C
  H87      1.0000 0.21910  0.70020  0.54220  Biso   1.000  H
  C174     1.0000 0.24840  0.70120  0.63350  Biso   1.000  C
  H88      1.0000 0.27200  0.66110  0.63220  Biso   1.000  H
  C175     1.0000 0.24580  0.73660  0.69190  Biso   1.000  C
  C176     1.0000 0.16740  0.89930  0.75110  Biso   1.000  C
  C177     1.0000 0.44120  0.51680  0.62990  Biso   1.000  C
  C178     1.0000 0.47340  0.50800  0.56310  Biso   1.000  C
  C179     1.0000 0.49890  0.44660  0.54380  Biso   1.000  C
  C180     1.0000 0.49890  0.39120  0.58540  Biso   1.000  C
  H89      1.0000 0.48210  0.39590  0.62730  Biso   1.000  H
  C181     1.0000 0.52240  0.33240  0.56610  Biso   1.000  C
  H90      1.0000 0.52330  0.29760  0.59480  Biso   1.000  H
  C182     1.0000 0.54580  0.32360  0.50160  Biso   1.000  C
  H91      1.0000 0.56000  0.28240  0.48780  Biso   1.000  H
  C183     1.0000 0.54790  0.37460  0.45950  Biso   1.000  C
  H92      1.0000 0.56410  0.36800  0.41760  Biso   1.000  H
  C184     1.0000 0.47460  0.56210  0.52090  Biso   1.000  C
  C185     1.0000 0.42610  0.52200  0.87680  Biso   1.000  C
  C186     1.0000 0.46320  0.51110  0.94120  Biso   1.000  C
  C187     1.0000 0.45910  0.44940  0.97110  Biso   1.000  C
  C188     1.0000 0.41990  0.39670  0.94310  Biso   1.000  C
  H93      1.0000 0.39590  0.40300  0.90420  Biso   1.000  H
  C189     1.0000 0.41720  0.33760  0.97250  Biso   1.000  C
  H94      1.0000 0.39200  0.30360  0.95320  Biso   1.000  H
  C190     1.0000 0.45240  0.32700  0.03220  Biso   1.000  C
  H95      1.0000 0.44860  0.28660  0.05230  Biso   1.000  H
  C191     1.0000 0.49130  0.37500  0.06010  Biso   1.000  C
  H96      1.0000 0.51520  0.36690  0.09870  Biso   1.000  H
  C192     1.0000 0.50350  0.56170  0.96890  Biso   1.000  C
  Cd7      1.0000 0.11952  0.02988  0.74994  Biso   1.000  Cd
  O49      1.0000 0.22243  0.09773  0.74576  Biso   1.000  O
  O50      1.0000 0.11723  0.14710  0.75181  Biso   1.000  O
  O51      1.0000 0.39760  0.40035  0.76260  Biso   1.000  O
  O52      1.0000 0.29620  0.44921  0.73970  Biso   1.000  O
  O53      1.0000 0.12390  0.03090  0.63368  Biso   1.000  O
  O54      1.0000 0.02070  0.00860  0.67794  Biso   1.000  O
  O55      1.0000 0.03356  0.02455  0.82861  Biso   1.000  O
  O56      1.0000 0.14020  0.02680  0.87351  Biso   1.000  O
  C193     1.0000 0.18530  0.14810  0.74820  Biso   1.000  C
  C194     1.0000 0.22220  0.21350  0.74910  Biso   1.000  C
  C195     1.0000 0.22390  0.25050  0.80600  Biso   1.000  C
  C196     1.0000 0.19380  0.22630  0.86510  Biso   1.000  C
  H97      1.0000 0.17420  0.18460  0.86670  Biso   1.000  H
  C197     1.0000 0.19390  0.26450  0.91880  Biso   1.000  C
  H98      1.0000 0.17480  0.24820  0.95700  Biso   1.000  H
  C198     1.0000 0.22290  0.32880  0.91740  Biso   1.000  C
  H99      1.0000 0.21990  0.35510  0.95370  Biso   1.000  H
  C199     1.0000 0.25450  0.35150  0.86330  Biso   1.000  C
  H100     1.0000 0.27400  0.39330  0.86320  Biso   1.000  H
  C200     1.0000 0.25860  0.31260  0.80620  Biso   1.000  C
  C201     1.0000 0.29350  0.33470  0.75000  Biso   1.000  C
  C202     1.0000 0.29060  0.29800  0.69290  Biso   1.000  C
  C203     1.0000 0.32270  0.32150  0.63430  Biso   1.000  C
  H101     1.0000 0.34690  0.36130  0.63410  Biso   1.000  H
  C204     1.0000 0.31800  0.28610  0.57950  Biso   1.000  C
  H102     1.0000 0.33790  0.30200  0.54150  Biso   1.000  H
  C205     1.0000 0.28260  0.22470  0.57980  Biso   1.000  C
  H103     1.0000 0.28090  0.20020  0.54220  Biso   1.000  H
  C206     1.0000 0.25160  0.20120  0.63350  Biso   1.000  C
  H104     1.0000 0.22800  0.16110  0.63220  Biso   1.000  H
  C207     1.0000 0.25420  0.23660  0.69190  Biso   1.000  C
  C208     1.0000 0.33260  0.39930  0.75110  Biso   1.000  C
  C209     1.0000 0.05880  0.01680  0.62990  Biso   1.000  C
  C210     1.0000 0.02660  0.00800  0.56310  Biso   1.000  C
  C211     1.0000 0.00110  0.94660  0.54380  Biso   1.000  C
  C212     1.0000 0.00110  0.89120  0.58540  Biso   1.000  C
  H105     1.0000 0.01790  0.89590  0.62730  Biso   1.000  H
  C213     1.0000 0.97760  0.83240  0.56610  Biso   1.000  C
  H106     1.0000 0.97670  0.79760  0.59480  Biso   1.000  H
  C214     1.0000 0.95420  0.82360  0.50160  Biso   1.000  C
  H107     1.0000 0.94000  0.78240  0.48780  Biso   1.000  H
  C215     1.0000 0.95210  0.87460  0.45950  Biso   1.000  C
  H108     1.0000 0.93590  0.86800  0.41760  Biso   1.000  H
  C216     1.0000 0.02540  0.06210  0.52090  Biso   1.000  C
  C217     1.0000 0.07390  0.02200  0.87680  Biso   1.000  C
  C218     1.0000 0.03680  0.01110  0.94120  Biso   1.000  C
  C219     1.0000 0.04090  0.94940  0.97110  Biso   1.000  C
  C220     1.0000 0.08010  0.89670  0.94310  Biso   1.000  C
  H109     1.0000 0.10410  0.90300  0.90420  Biso   1.000  H
  C221     1.0000 0.08280  0.83760  0.97250  Biso   1.000  C
  H110     1.0000 0.10800  0.80360  0.95320  Biso   1.000  H
  C222     1.0000 0.04760  0.82700  0.03220  Biso   1.000  C
  H111     1.0000 0.05140  0.78660  0.05230  Biso   1.000  H
  C223     1.0000 0.00870  0.87500  0.06010  Biso   1.000  C
  H112     1.0000 0.98480  0.86690  0.09870  Biso   1.000  H
  C224     1.0000 0.99650  0.06170  0.96890  Biso   1.000  C
  Cd8      1.0000 0.61952  0.47012  0.25006  Biso   1.000  Cd
  O57      1.0000 0.72243  0.40227  0.25424  Biso   1.000  O
  O58      1.0000 0.61723  0.35290  0.24819  Biso   1.000  O
  O59      1.0000 0.89760  0.09965  0.23740  Biso   1.000  O
  O60      1.0000 0.79620  0.05079  0.26030  Biso   1.000  O
  O61      1.0000 0.62390  0.46910  0.36632  Biso   1.000  O
  O62      1.0000 0.52070  0.49140  0.32206  Biso   1.000  O
  O63      1.0000 0.53356  0.47545  0.17139  Biso   1.000  O
  O64      1.0000 0.64020  0.47320  0.12649  Biso   1.000  O
  C225     1.0000 0.68530  0.35190  0.25180  Biso   1.000  C
  C226     1.0000 0.72220  0.28650  0.25090  Biso   1.000  C
  C227     1.0000 0.72390  0.24950  0.19400  Biso   1.000  C
  C228     1.0000 0.69380  0.27370  0.13490  Biso   1.000  C
  H113     1.0000 0.67420  0.31540  0.13330  Biso   1.000  H
  C229     1.0000 0.69390  0.23550  0.08120  Biso   1.000  C
  H114     1.0000 0.67480  0.25180  0.04300  Biso   1.000  H
  C230     1.0000 0.72290  0.17120  0.08260  Biso   1.000  C
  H115     1.0000 0.71990  0.14490  0.04630  Biso   1.000  H
  C231     1.0000 0.75450  0.14850  0.13670  Biso   1.000  C
  H116     1.0000 0.77400  0.10670  0.13680  Biso   1.000  H
  C232     1.0000 0.75860  0.18740  0.19380  Biso   1.000  C
  C233     1.0000 0.79350  0.16530  0.25000  Biso   1.000  C
  C234     1.0000 0.79060  0.20200  0.30710  Biso   1.000  C
  C235     1.0000 0.82270  0.17850  0.36570  Biso   1.000  C
  H117     1.0000 0.84690  0.13870  0.36590  Biso   1.000  H
  C236     1.0000 0.81800  0.21390  0.42050  Biso   1.000  C
  H118     1.0000 0.83790  0.19800  0.45850  Biso   1.000  H
  C237     1.0000 0.78260  0.27530  0.42020  Biso   1.000  C
  H119     1.0000 0.78090  0.29980  0.45780  Biso   1.000  H
  C238     1.0000 0.75160  0.29880  0.36650  Biso   1.000  C
  H120     1.0000 0.72800  0.33890  0.36780  Biso   1.000  H
  C239     1.0000 0.75420  0.26340  0.30810  Biso   1.000  C
  C240     1.0000 0.83260  0.10070  0.24890  Biso   1.000  C
  C241     1.0000 0.55880  0.48320  0.37010  Biso   1.000  C
  C242     1.0000 0.52660  0.49200  0.43690  Biso   1.000  C
  C243     1.0000 0.50110  0.55340  0.45620  Biso   1.000  C
  C244     1.0000 0.50110  0.60880  0.41460  Biso   1.000  C
  H121     1.0000 0.51790  0.60410  0.37270  Biso   1.000  H
  C245     1.0000 0.47760  0.66760  0.43390  Biso   1.000  C
  H122     1.0000 0.47670  0.70240  0.40520  Biso   1.000  H
  C246     1.0000 0.45420  0.67640  0.49840  Biso   1.000  C
  H123     1.0000 0.44000  0.71760  0.51220  Biso   1.000  H
  C247     1.0000 0.45210  0.62540  0.54050  Biso   1.000  C
  H124     1.0000 0.43590  0.63200  0.58240  Biso   1.000  H
  C248     1.0000 0.52540  0.43790  0.47910  Biso   1.000  C
  C249     1.0000 0.57390  0.47800  0.12320  Biso   1.000  C
  C250     1.0000 0.53680  0.48890  0.05880  Biso   1.000  C
  C251     1.0000 0.54090  0.55060  0.02890  Biso   1.000  C
  C252     1.0000 0.58010  0.60330  0.05690  Biso   1.000  C
  H125     1.0000 0.60410  0.59700  0.09580  Biso   1.000  H
  C253     1.0000 0.58280  0.66240  0.02750  Biso   1.000  C
  H126     1.0000 0.60800  0.69640  0.04680  Biso   1.000  H
  C254     1.0000 0.54760  0.67300  0.96780  Biso   1.000  C
  H127     1.0000 0.55140  0.71340  0.94770  Biso   1.000  H
  C255     1.0000 0.50870  0.62500  0.93990  Biso   1.000  C
  H128     1.0000 0.48480  0.63310  0.90130  Biso   1.000  H
  C256     1.0000 0.49650  0.43830  0.03110  Biso   1.000  C
