data_image0
_cell_length_a       20.658
_cell_length_b       20.658
_cell_length_c       13.775
_cell_angle_alpha    90
_cell_angle_beta     90
_cell_angle_gamma    120

_symmetry_space_group_name_H-M    "P 1"
_symmetry_int_tables_number       1

loop_
  _symmetry_equiv_pos_as_xyz
  'x, y, z'

loop_
  _atom_site_label
  _atom_site_occupancy
  _atom_site_fract_x
  _atom_site_fract_y
  _atom_site_fract_z
  _atom_site_thermal_displace_type
  _atom_site_B_iso_or_equiv
  _atom_site_type_symbol
  H1       1.0000 0.32010  0.56400  0.11990  Biso   1.000  H
  H2       1.0000 0.32080  0.56580  0.27990  Biso   1.000  H
  H3       1.0000 0.98677  0.89733  0.45323  Biso   1.000  H
  H4       1.0000 0.98747  0.89913  0.61323  Biso   1.000  H
  H5       1.0000 0.65343  0.23067  0.78657  Biso   1.000  H
  H6       1.0000 0.65413  0.23247  0.94657  Biso   1.000  H
  H7       1.0000 0.43600  0.75610  0.11990  Biso   1.000  H
  H8       1.0000 0.43420  0.75500  0.27990  Biso   1.000  H
  H9       1.0000 0.10267  0.08943  0.45323  Biso   1.000  H
  H10      1.0000 0.10087  0.08833  0.61323  Biso   1.000  H
  H11      1.0000 0.76933  0.42277  0.78657  Biso   1.000  H
  H12      1.0000 0.76753  0.42167  0.94657  Biso   1.000  H
  H13      1.0000 0.24390  0.67990  0.11990  Biso   1.000  H
  H14      1.0000 0.24500  0.67920  0.27990  Biso   1.000  H
  H15      1.0000 0.91057  0.01323  0.45323  Biso   1.000  H
  H16      1.0000 0.91167  0.01253  0.61323  Biso   1.000  H
  H17      1.0000 0.57723  0.34657  0.78657  Biso   1.000  H
  H18      1.0000 0.57833  0.34587  0.94657  Biso   1.000  H
  H19      1.0000 0.43600  0.67990  0.11990  Biso   1.000  H
  H20      1.0000 0.43420  0.67920  0.27990  Biso   1.000  H
  H21      1.0000 0.10267  0.01323  0.45323  Biso   1.000  H
  H22      1.0000 0.10087  0.01253  0.61323  Biso   1.000  H
  H23      1.0000 0.76933  0.34657  0.78657  Biso   1.000  H
  H24      1.0000 0.76753  0.34587  0.94657  Biso   1.000  H
  H25      1.0000 0.24390  0.56400  0.11990  Biso   1.000  H
  H26      1.0000 0.24500  0.56580  0.27990  Biso   1.000  H
  H27      1.0000 0.91057  0.89733  0.45323  Biso   1.000  H
  H28      1.0000 0.91167  0.89913  0.61323  Biso   1.000  H
  H29      1.0000 0.57723  0.23067  0.78657  Biso   1.000  H
  H30      1.0000 0.57833  0.23247  0.94657  Biso   1.000  H
  H31      1.0000 0.32010  0.75610  0.11990  Biso   1.000  H
  H32      1.0000 0.32080  0.75500  0.27990  Biso   1.000  H
  H33      1.0000 0.98677  0.08943  0.45323  Biso   1.000  H
  H34      1.0000 0.98747  0.08833  0.61323  Biso   1.000  H
  H35      1.0000 0.65343  0.42277  0.78657  Biso   1.000  H
  H36      1.0000 0.65413  0.42167  0.94657  Biso   1.000  H
  F1       1.0000 0.45360  0.90720  0.71090  Biso   1.000  F
  N1       1.0000 0.61790  0.23580  0.45260  Biso   1.000  N
  N2       1.0000 0.62245  0.24490  0.55170  Biso   1.000  N
  N3       1.0000 0.58795  0.17590  0.59160  Biso   1.000  N
  N4       1.0000 0.58240  0.16480  0.42850  Biso   1.000  N
  C1       1.0000 0.56300  0.12600  0.51410  Biso   1.000  C
  C2       1.0000 0.52235  0.04470  0.52430  Biso   1.000  C
  C3       1.0000 0.50470  0.00940  0.61330  Biso   1.000  C
  H37      1.0000 0.51880  0.03760  0.67000  Biso   1.000  H
  C4       1.0000 0.46645  0.93290  0.61850  Biso   1.000  C
  C5       1.0000 0.44160  0.88320  0.53930  Biso   1.000  C
  C6       1.0000 0.46125  0.92250  0.45130  Biso   1.000  C
  H38      1.0000 0.44740  0.89480  0.39410  Biso   1.000  H
  C7       1.0000 0.50015  0.00030  0.44350  Biso   1.000  C
  H39      1.0000 0.51115  0.02230  0.38240  Biso   1.000  H
  C8       1.0000 0.40390  0.80780  0.54440  Biso   1.000  C
  C9       1.0000 0.29500  0.59000  0.14340  Biso   1.000  C
  C10      1.0000 0.29610  0.59220  0.25630  Biso   1.000  C
  O1       1.0000 0.38490  0.76980  0.61500  Biso   1.000  O
  O2       1.0000 0.38570  0.77140  0.46950  Biso   1.000  O
  F2       1.0000 0.12027  0.24053  0.04423  Biso   1.000  F
  N5       1.0000 0.28457  0.56913  0.78593  Biso   1.000  N
  N6       1.0000 0.28912  0.57823  0.88503  Biso   1.000  N
  N7       1.0000 0.25462  0.50923  0.92493  Biso   1.000  N
  N8       1.0000 0.24907  0.49813  0.76183  Biso   1.000  N
  C11      1.0000 0.22967  0.45933  0.84743  Biso   1.000  C
  C12      1.0000 0.18902  0.37803  0.85763  Biso   1.000  C
  C13      1.0000 0.17137  0.34273  0.94663  Biso   1.000  C
  H40      1.0000 0.18547  0.37093  0.00333  Biso   1.000  H
  C14      1.0000 0.13312  0.26623  0.95183  Biso   1.000  C
  C15      1.0000 0.10827  0.21653  0.87263  Biso   1.000  C
  C16      1.0000 0.12792  0.25583  0.78463  Biso   1.000  C
  H41      1.0000 0.11407  0.22813  0.72743  Biso   1.000  H
  C17      1.0000 0.16682  0.33363  0.77683  Biso   1.000  C
  H42      1.0000 0.17782  0.35563  0.71573  Biso   1.000  H
  C18      1.0000 0.07057  0.14113  0.87773  Biso   1.000  C
  C19      1.0000 0.96167  0.92333  0.47673  Biso   1.000  C
  C20      1.0000 0.96277  0.92553  0.58963  Biso   1.000  C
  O3       1.0000 0.05157  0.10313  0.94833  Biso   1.000  O
  O4       1.0000 0.05237  0.10473  0.80283  Biso   1.000  O
  F3       1.0000 0.78693  0.57387  0.37757  Biso   1.000  F
  N9       1.0000 0.95123  0.90247  0.11927  Biso   1.000  N
  N10      1.0000 0.95578  0.91157  0.21837  Biso   1.000  N
  N11      1.0000 0.92128  0.84257  0.25827  Biso   1.000  N
  N12      1.0000 0.91573  0.83147  0.09517  Biso   1.000  N
  C21      1.0000 0.89633  0.79267  0.18077  Biso   1.000  C
  C22      1.0000 0.85568  0.71137  0.19097  Biso   1.000  C
  C23      1.0000 0.83803  0.67607  0.27997  Biso   1.000  C
  H43      1.0000 0.85213  0.70427  0.33667  Biso   1.000  H
  C24      1.0000 0.79978  0.59957  0.28517  Biso   1.000  C
  C25      1.0000 0.77493  0.54987  0.20597  Biso   1.000  C
  C26      1.0000 0.79458  0.58917  0.11797  Biso   1.000  C
  H44      1.0000 0.78073  0.56147  0.06077  Biso   1.000  H
  C27      1.0000 0.83348  0.66697  0.11017  Biso   1.000  C
  H45      1.0000 0.84448  0.68897  0.04907  Biso   1.000  H
  C28      1.0000 0.73723  0.47447  0.21107  Biso   1.000  C
  C29      1.0000 0.62833  0.25667  0.81007  Biso   1.000  C
  C30      1.0000 0.62943  0.25887  0.92297  Biso   1.000  C
  O5       1.0000 0.71823  0.43647  0.28167  Biso   1.000  O
  O6       1.0000 0.71903  0.43807  0.13617  Biso   1.000  O
  F4       1.0000 0.09280  0.54640  0.71090  Biso   1.000  F
  N13      1.0000 0.76420  0.38210  0.45260  Biso   1.000  N
  N14      1.0000 0.75510  0.37755  0.55170  Biso   1.000  N
  N15      1.0000 0.82410  0.41205  0.59160  Biso   1.000  N
  N16      1.0000 0.83520  0.41760  0.42850  Biso   1.000  N
  C31      1.0000 0.87400  0.43700  0.51410  Biso   1.000  C
  C32      1.0000 0.95530  0.47765  0.52430  Biso   1.000  C
  C33      1.0000 0.99060  0.49530  0.61330  Biso   1.000  C
  H46      1.0000 0.96240  0.48120  0.67000  Biso   1.000  H
  C34      1.0000 0.06710  0.53355  0.61850  Biso   1.000  C
  C35      1.0000 0.11680  0.55840  0.53930  Biso   1.000  C
  C36      1.0000 0.07750  0.53875  0.45130  Biso   1.000  C
  H47      1.0000 0.10520  0.55260  0.39410  Biso   1.000  H
  C37      1.0000 0.99970  0.49985  0.44350  Biso   1.000  C
  H48      1.0000 0.97770  0.48885  0.38240  Biso   1.000  H
  C38      1.0000 0.19220  0.59610  0.54440  Biso   1.000  C
  C39      1.0000 0.41000  0.70500  0.14340  Biso   1.000  C
  C40      1.0000 0.40780  0.70390  0.25630  Biso   1.000  C
  O7       1.0000 0.23020  0.61510  0.61500  Biso   1.000  O
  O8       1.0000 0.22860  0.61430  0.46950  Biso   1.000  O
  F5       1.0000 0.75947  0.87973  0.04423  Biso   1.000  F
  N17      1.0000 0.43087  0.71543  0.78593  Biso   1.000  N
  N18      1.0000 0.42177  0.71088  0.88503  Biso   1.000  N
  N19      1.0000 0.49077  0.74538  0.92493  Biso   1.000  N
  N20      1.0000 0.50187  0.75093  0.76183  Biso   1.000  N
  C41      1.0000 0.54067  0.77033  0.84743  Biso   1.000  C
  C42      1.0000 0.62197  0.81098  0.85763  Biso   1.000  C
  C43      1.0000 0.65727  0.82863  0.94663  Biso   1.000  C
  H49      1.0000 0.62907  0.81453  0.00333  Biso   1.000  H
  C44      1.0000 0.73377  0.86688  0.95183  Biso   1.000  C
  C45      1.0000 0.78347  0.89173  0.87263  Biso   1.000  C
  C46      1.0000 0.74417  0.87208  0.78463  Biso   1.000  C
  H50      1.0000 0.77187  0.88593  0.72743  Biso   1.000  H
  C47      1.0000 0.66637  0.83318  0.77683  Biso   1.000  C
  H51      1.0000 0.64437  0.82218  0.71573  Biso   1.000  H
  C48      1.0000 0.85887  0.92943  0.87773  Biso   1.000  C
  C49      1.0000 0.07667  0.03833  0.47673  Biso   1.000  C
  C50      1.0000 0.07447  0.03723  0.58963  Biso   1.000  C
  O9       1.0000 0.89687  0.94843  0.94833  Biso   1.000  O
  O10      1.0000 0.89527  0.94763  0.80283  Biso   1.000  O
  F6       1.0000 0.42613  0.21307  0.37757  Biso   1.000  F
  N21      1.0000 0.09753  0.04877  0.11927  Biso   1.000  N
  N22      1.0000 0.08843  0.04422  0.21837  Biso   1.000  N
  N23      1.0000 0.15743  0.07872  0.25827  Biso   1.000  N
  N24      1.0000 0.16853  0.08427  0.09517  Biso   1.000  N
  C51      1.0000 0.20733  0.10367  0.18077  Biso   1.000  C
  C52      1.0000 0.28863  0.14432  0.19097  Biso   1.000  C
  C53      1.0000 0.32393  0.16197  0.27997  Biso   1.000  C
  H52      1.0000 0.29573  0.14787  0.33667  Biso   1.000  H
  C54      1.0000 0.40043  0.20022  0.28517  Biso   1.000  C
  C55      1.0000 0.45013  0.22507  0.20597  Biso   1.000  C
  C56      1.0000 0.41083  0.20542  0.11797  Biso   1.000  C
  H53      1.0000 0.43853  0.21927  0.06077  Biso   1.000  H
  C57      1.0000 0.33303  0.16652  0.11017  Biso   1.000  C
  H54      1.0000 0.31103  0.15552  0.04907  Biso   1.000  H
  C58      1.0000 0.52553  0.26277  0.21107  Biso   1.000  C
  C59      1.0000 0.74333  0.37167  0.81007  Biso   1.000  C
  C60      1.0000 0.74113  0.37057  0.92297  Biso   1.000  C
  O11      1.0000 0.56353  0.28177  0.28167  Biso   1.000  O
  O12      1.0000 0.56193  0.28097  0.13617  Biso   1.000  O
  F7       1.0000 0.45360  0.54640  0.71090  Biso   1.000  F
  N25      1.0000 0.61790  0.38210  0.45260  Biso   1.000  N
  N26      1.0000 0.62245  0.37755  0.55170  Biso   1.000  N
  N27      1.0000 0.58795  0.41205  0.59160  Biso   1.000  N
  N28      1.0000 0.58240  0.41760  0.42850  Biso   1.000  N
  C61      1.0000 0.56300  0.43700  0.51410  Biso   1.000  C
  C62      1.0000 0.52235  0.47765  0.52430  Biso   1.000  C
  C63      1.0000 0.50470  0.49530  0.61330  Biso   1.000  C
  H55      1.0000 0.51880  0.48120  0.67000  Biso   1.000  H
  C64      1.0000 0.46645  0.53355  0.61850  Biso   1.000  C
  C65      1.0000 0.44160  0.55840  0.53930  Biso   1.000  C
  C66      1.0000 0.46125  0.53875  0.45130  Biso   1.000  C
  H56      1.0000 0.44740  0.55260  0.39410  Biso   1.000  H
  C67      1.0000 0.50015  0.49985  0.44350  Biso   1.000  C
  H57      1.0000 0.51115  0.48885  0.38240  Biso   1.000  H
  C68      1.0000 0.40390  0.59610  0.54440  Biso   1.000  C
  C69      1.0000 0.29500  0.70500  0.14340  Biso   1.000  C
  C70      1.0000 0.29610  0.70390  0.25630  Biso   1.000  C
  O13      1.0000 0.38490  0.61510  0.61500  Biso   1.000  O
  O14      1.0000 0.38570  0.61430  0.46950  Biso   1.000  O
  F8       1.0000 0.12027  0.87973  0.04423  Biso   1.000  F
  N29      1.0000 0.28457  0.71543  0.78593  Biso   1.000  N
  N30      1.0000 0.28912  0.71088  0.88503  Biso   1.000  N
  N31      1.0000 0.25462  0.74538  0.92493  Biso   1.000  N
  N32      1.0000 0.24907  0.75093  0.76183  Biso   1.000  N
  C71      1.0000 0.22967  0.77033  0.84743  Biso   1.000  C
  C72      1.0000 0.18902  0.81098  0.85763  Biso   1.000  C
  C73      1.0000 0.17137  0.82863  0.94663  Biso   1.000  C
  H58      1.0000 0.18547  0.81453  0.00333  Biso   1.000  H
  C74      1.0000 0.13312  0.86688  0.95183  Biso   1.000  C
  C75      1.0000 0.10827  0.89173  0.87263  Biso   1.000  C
  C76      1.0000 0.12792  0.87208  0.78463  Biso   1.000  C
  H59      1.0000 0.11407  0.88593  0.72743  Biso   1.000  H
  C77      1.0000 0.16682  0.83318  0.77683  Biso   1.000  C
  H60      1.0000 0.17782  0.82218  0.71573  Biso   1.000  H
  C78      1.0000 0.07057  0.92943  0.87773  Biso   1.000  C
  C79      1.0000 0.96167  0.03833  0.47673  Biso   1.000  C
  C80      1.0000 0.96277  0.03723  0.58963  Biso   1.000  C
  O15      1.0000 0.05157  0.94843  0.94833  Biso   1.000  O
  O16      1.0000 0.05237  0.94763  0.80283  Biso   1.000  O
  F9       1.0000 0.78693  0.21307  0.37757  Biso   1.000  F
  N33      1.0000 0.95123  0.04877  0.11927  Biso   1.000  N
  N34      1.0000 0.95578  0.04422  0.21837  Biso   1.000  N
  N35      1.0000 0.92128  0.07872  0.25827  Biso   1.000  N
  N36      1.0000 0.91573  0.08427  0.09517  Biso   1.000  N
  C81      1.0000 0.89633  0.10367  0.18077  Biso   1.000  C
  C82      1.0000 0.85568  0.14432  0.19097  Biso   1.000  C
  C83      1.0000 0.83803  0.16197  0.27997  Biso   1.000  C
  H61      1.0000 0.85213  0.14787  0.33667  Biso   1.000  H
  C84      1.0000 0.79978  0.20022  0.28517  Biso   1.000  C
  C85      1.0000 0.77493  0.22507  0.20597  Biso   1.000  C
  C86      1.0000 0.79458  0.20542  0.11797  Biso   1.000  C
  H62      1.0000 0.78073  0.21927  0.06077  Biso   1.000  H
  C87      1.0000 0.83348  0.16652  0.11017  Biso   1.000  C
  H63      1.0000 0.84448  0.15552  0.04907  Biso   1.000  H
  C88      1.0000 0.73723  0.26277  0.21107  Biso   1.000  C
  C89      1.0000 0.62833  0.37167  0.81007  Biso   1.000  C
  C90      1.0000 0.62943  0.37057  0.92297  Biso   1.000  C
  O17      1.0000 0.71823  0.28177  0.28167  Biso   1.000  O
  O18      1.0000 0.71903  0.28097  0.13617  Biso   1.000  O
  Zn1      1.0000 0.66667  0.33333  0.36326  Biso   1.000  Zn
  Zn2      1.0000 0.66667  0.33333  0.62343  Biso   1.000  Zn
  Zn3      1.0000 0.33333  0.66667  0.69659  Biso   1.000  Zn
  Zn4      1.0000 0.33333  0.66667  0.95676  Biso   1.000  Zn
  Zn5      1.0000 0.00000  0.00000  0.02993  Biso   1.000  Zn
  Zn6      1.0000 0.00000  0.00000  0.29010  Biso   1.000  Zn
  Zn7      1.0000 0.33333  0.66667  0.43650  Biso   1.000  Zn
  N37      1.0000 0.33333  0.66667  0.10920  Biso   1.000  N
  N38      1.0000 0.33333  0.66667  0.29660  Biso   1.000  N
  Zn8      1.0000 0.00000  0.00000  0.76983  Biso   1.000  Zn
  N39      1.0000 0.00000  0.00000  0.44253  Biso   1.000  N
  N40      1.0000 0.00000  0.00000  0.62993  Biso   1.000  N
  Zn9      1.0000 0.66667  0.33333  0.10317  Biso   1.000  Zn
  N41      1.0000 0.66667  0.33333  0.77587  Biso   1.000  N
  N42      1.0000 0.66667  0.33333  0.96327  Biso   1.000  N
