data_image0
_cell_length_a       18.3148
_cell_length_b       9.4506
_cell_length_c       19.0993
_cell_angle_alpha    90
_cell_angle_beta     106.091
_cell_angle_gamma    90

_symmetry_space_group_name_H-M    "P 1"
_symmetry_int_tables_number       1

loop_
  _symmetry_equiv_pos_as_xyz
  'x, y, z'

loop_
  _atom_site_label
  _atom_site_occupancy
  _atom_site_fract_x
  _atom_site_fract_y
  _atom_site_fract_z
  _atom_site_thermal_displace_type
  _atom_site_B_iso_or_equiv
  _atom_site_type_symbol
  Cd1      1.0000 0.28466  0.55853  0.44455  Biso   1.000  Cd
  C1       1.0000 0.38004  0.08630  0.09308  Biso   1.000  C
  C2       1.0000 0.37959  0.15150  0.16475  Biso   1.000  C
  C3       1.0000 0.31130  0.19680  0.17503  Biso   1.000  C
  C4       1.0000 0.30833  0.25880  0.23933  Biso   1.000  C
  C5       1.0000 0.37517  0.27660  0.29588  Biso   1.000  C
  C6       1.0000 0.44361  0.22980  0.28643  Biso   1.000  C
  C7       1.0000 0.44600  0.16850  0.22102  Biso   1.000  C
  C8       1.0000 0.37394  0.34540  0.36714  Biso   1.000  C
  C9       1.0000 0.39483  0.77010  0.48272  Biso   1.000  C
  C10      1.0000 0.44883  0.88880  0.49195  Biso   1.000  C
  C11      1.0000 0.44818  0.99900  0.54148  Biso   1.000  C
  C12      1.0000 0.49936  0.10960  0.54875  Biso   1.000  C
  H1       1.0000 0.49890  0.18300  0.58110  Biso   1.000  H
  C13      1.0000 0.02430  0.39320  0.46275  Biso   1.000  C
  H2       1.0000 0.04090  0.32130  0.43760  Biso   1.000  H
  C14      1.0000 0.04346  0.62300  0.51924  Biso   1.000  C
  C15      1.0000 0.06726  0.51330  0.48135  Biso   1.000  C
  C16      1.0000 0.14167  0.52740  0.46053  Biso   1.000  C
  C17      1.0000 0.19370  0.86220  0.21480  Biso   1.000  C
  H3       1.0000 0.17050  0.86020  0.25410  Biso   1.000  H
  H4       1.0000 0.15860  0.82660  0.17130  Biso   1.000  H
  H5       1.0000 0.20720  0.95780  0.20670  Biso   1.000  H
  C18      1.0000 0.30730  0.76240  0.18200  Biso   1.000  C
  H6       1.0000 0.35040  0.70230  0.20150  Biso   1.000  H
  H7       1.0000 0.32450  0.85490  0.17310  Biso   1.000  H
  H8       1.0000 0.27650  0.72310  0.13720  Biso   1.000  H
  C19      1.0000 0.27893  0.69890  0.29291  Biso   1.000  C
  H9       1.0000 0.32140  0.64060  0.30150  Biso   1.000  H
  O1       1.0000 0.44388  0.04600  0.08779  Biso   1.000  O
  O2       1.0000 0.31834  0.07340  0.04595  Biso   1.000  O
  O3       1.0000 0.51618  0.12720  0.21771  Biso   1.000  O
  H10      1.0000 0.51290  0.09180  0.17780  Biso   1.000  H
  O4       1.0000 0.23926  0.30530  0.24430  Biso   1.000  O
  H11      1.0000 0.24440  0.34330  0.28400  Biso   1.000  H
  O5       1.0000 0.31091  0.39410  0.36955  Biso   1.000  O
  O6       1.0000 0.43353  0.34829  0.41667  Biso   1.000  O
  O7       1.0000 0.40476  0.66037  0.44812  Biso   1.000  O
  O8       1.0000 0.33763  0.77862  0.50729  Biso   1.000  O
  O9       1.0000 0.39793  0.00230  0.58279  Biso   1.000  O
  H12      1.0000 0.36760  0.93700  0.57080  Biso   1.000  H
  O10      1.0000 0.17904  0.63820  0.47807  Biso   1.000  O
  O11      1.0000 0.16367  0.43000  0.42796  Biso   1.000  O
  O12      1.0000 0.08233  0.74330  0.53670  Biso   1.000  O
  H13      1.0000 0.12100  0.73970  0.52310  Biso   1.000  H
  O13      1.0000 0.24378  0.69770  0.33924  Biso   1.000  O
  N1       1.0000 0.26315  0.77270  0.23360  Biso   1.000  N
  O14      1.0000 0.24490  0.17690  0.12690  Biso   1.000  O
  H14      1.0000 0.25130  0.13920  0.09040  Biso   1.000  H
  O15      1.0000 0.51100  0.25430  0.33180  Biso   1.000  O
  H15      1.0000 0.50590  0.28910  0.36950  Biso   1.000  H
  Cd2      1.0000 0.71534  0.05853  0.05545  Biso   1.000  Cd
  C20      1.0000 0.61996  0.58630  0.40692  Biso   1.000  C
  C21      1.0000 0.62041  0.65150  0.33525  Biso   1.000  C
  C22      1.0000 0.68870  0.69680  0.32497  Biso   1.000  C
  C23      1.0000 0.69167  0.75880  0.26067  Biso   1.000  C
  C24      1.0000 0.62483  0.77660  0.20412  Biso   1.000  C
  C25      1.0000 0.55639  0.72980  0.21357  Biso   1.000  C
  C26      1.0000 0.55400  0.66850  0.27898  Biso   1.000  C
  C27      1.0000 0.62606  0.84540  0.13286  Biso   1.000  C
  C28      1.0000 0.60517  0.27010  0.01728  Biso   1.000  C
  C29      1.0000 0.55117  0.38880  0.00805  Biso   1.000  C
  C30      1.0000 0.55182  0.49900  0.95852  Biso   1.000  C
  C31      1.0000 0.50064  0.60960  0.95125  Biso   1.000  C
  H16      1.0000 0.50110  0.68300  0.91890  Biso   1.000  H
  C32      1.0000 0.97570  0.89320  0.03725  Biso   1.000  C
  H17      1.0000 0.95910  0.82130  0.06240  Biso   1.000  H
  C33      1.0000 0.95654  0.12300  0.98076  Biso   1.000  C
  C34      1.0000 0.93274  0.01330  0.01865  Biso   1.000  C
  C35      1.0000 0.85833  0.02740  0.03947  Biso   1.000  C
  C36      1.0000 0.80630  0.36220  0.28520  Biso   1.000  C
  H18      1.0000 0.82950  0.36020  0.24590  Biso   1.000  H
  H19      1.0000 0.84140  0.32660  0.32870  Biso   1.000  H
  H20      1.0000 0.79280  0.45780  0.29330  Biso   1.000  H
  C37      1.0000 0.69270  0.26240  0.31800  Biso   1.000  C
  H21      1.0000 0.64960  0.20230  0.29850  Biso   1.000  H
  H22      1.0000 0.67550  0.35490  0.32690  Biso   1.000  H
  H23      1.0000 0.72350  0.22310  0.36280  Biso   1.000  H
  C38      1.0000 0.72107  0.19890  0.20709  Biso   1.000  C
  H24      1.0000 0.67860  0.14060  0.19850  Biso   1.000  H
  O16      1.0000 0.55612  0.54600  0.41221  Biso   1.000  O
  O17      1.0000 0.68166  0.57340  0.45405  Biso   1.000  O
  O18      1.0000 0.48382  0.62720  0.28229  Biso   1.000  O
  H25      1.0000 0.48710  0.59180  0.32220  Biso   1.000  H
  O19      1.0000 0.76074  0.80530  0.25570  Biso   1.000  O
  H26      1.0000 0.75560  0.84330  0.21600  Biso   1.000  H
  O20      1.0000 0.68909  0.89410  0.13045  Biso   1.000  O
  O21      1.0000 0.56647  0.84829  0.08333  Biso   1.000  O
  O22      1.0000 0.59524  0.16037  0.05188  Biso   1.000  O
  O23      1.0000 0.66237  0.27862  0.99271  Biso   1.000  O
  O24      1.0000 0.60207  0.50230  0.91721  Biso   1.000  O
  H27      1.0000 0.63240  0.43700  0.92920  Biso   1.000  H
  O25      1.0000 0.82096  0.13820  0.02193  Biso   1.000  O
  O26      1.0000 0.83633  0.93000  0.07204  Biso   1.000  O
  O27      1.0000 0.91767  0.24330  0.96330  Biso   1.000  O
  H28      1.0000 0.87900  0.23970  0.97690  Biso   1.000  H
  O28      1.0000 0.75622  0.19770  0.16076  Biso   1.000  O
  N2       1.0000 0.73685  0.27270  0.26640  Biso   1.000  N
  O29      1.0000 0.75510  0.67690  0.37310  Biso   1.000  O
  H29      1.0000 0.74870  0.63920  0.40960  Biso   1.000  H
  O30      1.0000 0.48900  0.75430  0.16820  Biso   1.000  O
  H30      1.0000 0.49410  0.78910  0.13050  Biso   1.000  H
  Cd3      1.0000 0.71534  0.44147  0.55545  Biso   1.000  Cd
  C39      1.0000 0.61996  0.91370  0.90692  Biso   1.000  C
  C40      1.0000 0.62041  0.84850  0.83525  Biso   1.000  C
  C41      1.0000 0.68870  0.80320  0.82497  Biso   1.000  C
  C42      1.0000 0.69167  0.74120  0.76067  Biso   1.000  C
  C43      1.0000 0.62483  0.72340  0.70412  Biso   1.000  C
  C44      1.0000 0.55639  0.77020  0.71357  Biso   1.000  C
  C45      1.0000 0.55400  0.83150  0.77898  Biso   1.000  C
  C46      1.0000 0.62606  0.65460  0.63286  Biso   1.000  C
  C47      1.0000 0.60517  0.22990  0.51728  Biso   1.000  C
  C48      1.0000 0.55117  0.11120  0.50805  Biso   1.000  C
  C49      1.0000 0.55182  0.00100  0.45852  Biso   1.000  C
  C50      1.0000 0.50064  0.89040  0.45125  Biso   1.000  C
  H31      1.0000 0.50110  0.81700  0.41890  Biso   1.000  H
  C51      1.0000 0.97570  0.60680  0.53725  Biso   1.000  C
  H32      1.0000 0.95910  0.67870  0.56240  Biso   1.000  H
  C52      1.0000 0.95654  0.37700  0.48076  Biso   1.000  C
  C53      1.0000 0.93274  0.48670  0.51865  Biso   1.000  C
  C54      1.0000 0.85833  0.47260  0.53947  Biso   1.000  C
  C55      1.0000 0.80630  0.13780  0.78520  Biso   1.000  C
  H33      1.0000 0.82950  0.13980  0.74590  Biso   1.000  H
  H34      1.0000 0.84140  0.17340  0.82870  Biso   1.000  H
  H35      1.0000 0.79280  0.04220  0.79330  Biso   1.000  H
  C56      1.0000 0.69270  0.23760  0.81800  Biso   1.000  C
  H36      1.0000 0.64960  0.29770  0.79850  Biso   1.000  H
  H37      1.0000 0.67550  0.14510  0.82690  Biso   1.000  H
  H38      1.0000 0.72350  0.27690  0.86280  Biso   1.000  H
  C57      1.0000 0.72107  0.30110  0.70709  Biso   1.000  C
  H39      1.0000 0.67860  0.35940  0.69850  Biso   1.000  H
  O31      1.0000 0.55612  0.95400  0.91221  Biso   1.000  O
  O32      1.0000 0.68166  0.92660  0.95405  Biso   1.000  O
  O33      1.0000 0.48382  0.87280  0.78229  Biso   1.000  O
  H40      1.0000 0.48710  0.90820  0.82220  Biso   1.000  H
  O34      1.0000 0.76074  0.69470  0.75570  Biso   1.000  O
  H41      1.0000 0.75560  0.65670  0.71600  Biso   1.000  H
  O35      1.0000 0.68909  0.60590  0.63045  Biso   1.000  O
  O36      1.0000 0.56647  0.65171  0.58333  Biso   1.000  O
  O37      1.0000 0.59524  0.33963  0.55188  Biso   1.000  O
  O38      1.0000 0.66237  0.22138  0.49271  Biso   1.000  O
  O39      1.0000 0.60207  0.99770  0.41721  Biso   1.000  O
  H42      1.0000 0.63240  0.06300  0.42920  Biso   1.000  H
  O40      1.0000 0.82096  0.36180  0.52193  Biso   1.000  O
  O41      1.0000 0.83633  0.57000  0.57204  Biso   1.000  O
  O42      1.0000 0.91767  0.25670  0.46330  Biso   1.000  O
  H43      1.0000 0.87900  0.26030  0.47690  Biso   1.000  H
  O43      1.0000 0.75622  0.30230  0.66076  Biso   1.000  O
  N3       1.0000 0.73685  0.22730  0.76640  Biso   1.000  N
  O44      1.0000 0.75510  0.82310  0.87310  Biso   1.000  O
  H44      1.0000 0.74870  0.86080  0.90960  Biso   1.000  H
  O45      1.0000 0.48900  0.74570  0.66820  Biso   1.000  O
  H45      1.0000 0.49410  0.71090  0.63050  Biso   1.000  H
  Cd4      1.0000 0.28466  0.94147  0.94455  Biso   1.000  Cd
  C58      1.0000 0.38004  0.41370  0.59308  Biso   1.000  C
  C59      1.0000 0.37959  0.34850  0.66475  Biso   1.000  C
  C60      1.0000 0.31130  0.30320  0.67503  Biso   1.000  C
  C61      1.0000 0.30833  0.24120  0.73933  Biso   1.000  C
  C62      1.0000 0.37517  0.22340  0.79588  Biso   1.000  C
  C63      1.0000 0.44361  0.27020  0.78643  Biso   1.000  C
  C64      1.0000 0.44600  0.33150  0.72102  Biso   1.000  C
  C65      1.0000 0.37394  0.15460  0.86714  Biso   1.000  C
  C66      1.0000 0.39483  0.72990  0.98272  Biso   1.000  C
  C67      1.0000 0.44883  0.61120  0.99195  Biso   1.000  C
  C68      1.0000 0.44818  0.50100  0.04148  Biso   1.000  C
  C69      1.0000 0.49936  0.39040  0.04875  Biso   1.000  C
  H46      1.0000 0.49890  0.31700  0.08110  Biso   1.000  H
  C70      1.0000 0.02430  0.10680  0.96275  Biso   1.000  C
  H47      1.0000 0.04090  0.17870  0.93760  Biso   1.000  H
  C71      1.0000 0.04346  0.87700  0.01924  Biso   1.000  C
  C72      1.0000 0.06726  0.98670  0.98135  Biso   1.000  C
  C73      1.0000 0.14167  0.97260  0.96053  Biso   1.000  C
  C74      1.0000 0.19370  0.63780  0.71480  Biso   1.000  C
  H48      1.0000 0.17050  0.63980  0.75410  Biso   1.000  H
  H49      1.0000 0.15860  0.67340  0.67130  Biso   1.000  H
  H50      1.0000 0.20720  0.54220  0.70670  Biso   1.000  H
  C75      1.0000 0.30730  0.73760  0.68200  Biso   1.000  C
  H51      1.0000 0.35040  0.79770  0.70150  Biso   1.000  H
  H52      1.0000 0.32450  0.64510  0.67310  Biso   1.000  H
  H53      1.0000 0.27650  0.77690  0.63720  Biso   1.000  H
  C76      1.0000 0.27893  0.80110  0.79291  Biso   1.000  C
  H54      1.0000 0.32140  0.85940  0.80150  Biso   1.000  H
  O46      1.0000 0.44388  0.45400  0.58779  Biso   1.000  O
  O47      1.0000 0.31834  0.42660  0.54595  Biso   1.000  O
  O48      1.0000 0.51618  0.37280  0.71771  Biso   1.000  O
  H55      1.0000 0.51290  0.40820  0.67780  Biso   1.000  H
  O49      1.0000 0.23926  0.19470  0.74430  Biso   1.000  O
  H56      1.0000 0.24440  0.15670  0.78400  Biso   1.000  H
  O50      1.0000 0.31091  0.10590  0.86955  Biso   1.000  O
  O51      1.0000 0.43353  0.15171  0.91667  Biso   1.000  O
  O52      1.0000 0.40476  0.83963  0.94812  Biso   1.000  O
  O53      1.0000 0.33763  0.72138  0.00729  Biso   1.000  O
  O54      1.0000 0.39793  0.49770  0.08279  Biso   1.000  O
  H57      1.0000 0.36760  0.56300  0.07080  Biso   1.000  H
  O55      1.0000 0.17904  0.86180  0.97807  Biso   1.000  O
  O56      1.0000 0.16367  0.07000  0.92796  Biso   1.000  O
  O57      1.0000 0.08233  0.75670  0.03670  Biso   1.000  O
  H58      1.0000 0.12100  0.76030  0.02310  Biso   1.000  H
  O58      1.0000 0.24378  0.80230  0.83924  Biso   1.000  O
  N4       1.0000 0.26315  0.72730  0.73360  Biso   1.000  N
  O59      1.0000 0.24490  0.32310  0.62690  Biso   1.000  O
  H59      1.0000 0.25130  0.36080  0.59040  Biso   1.000  H
  O60      1.0000 0.51100  0.24570  0.83180  Biso   1.000  O
  H60      1.0000 0.50590  0.21090  0.86950  Biso   1.000  H
  Cd5      1.0000 0.50000  0.50000  0.50000  Biso   1.000  Cd
  Cd6      1.0000 0.50000  0.00000  0.00000  Biso   1.000  Cd
