data_image0
_cell_length_a       5.4134
_cell_length_b       15.259
_cell_length_c       9.0176
_cell_angle_alpha    90
_cell_angle_beta     94.704
_cell_angle_gamma    90

_symmetry_space_group_name_H-M    "P 1"
_symmetry_int_tables_number       1

loop_
  _symmetry_equiv_pos_as_xyz
  'x, y, z'

loop_
  _atom_site_label
  _atom_site_occupancy
  _atom_site_fract_x
  _atom_site_fract_y
  _atom_site_fract_z
  _atom_site_thermal_displace_type
  _atom_site_B_iso_or_equiv
  _atom_site_type_symbol
  Mg1      1.0000 0.17920  0.67327  0.49178  Biso   1.000  Mg
  P1       1.0000 0.14944  0.81834  0.76618  Biso   1.000  P
  O1       1.0000 0.11250  0.78509  0.60650  Biso   1.000  O
  O2       1.0000 0.94840  0.78660  0.86080  Biso   1.000  O
  O3       1.0000 0.40900  0.79556  0.83100  Biso   1.000  O
  O4       1.0000 0.13320  0.92252  0.75680  Biso   1.000  O
  H1       1.0000 0.01590  0.93960  0.80100  Biso   1.000  H
  O5       1.0000 0.23980  0.54410  0.40840  Biso   1.000  O
  O6       1.0000 0.08210  0.40806  0.40140  Biso   1.000  O
  O7       1.0000 0.45500  0.64639  0.66940  Biso   1.000  O
  H2       1.0000 0.59390  0.62960  0.64230  Biso   1.000  H
  H3       1.0000 0.48770  0.69120  0.72360  Biso   1.000  H
  C1       1.0000 0.09320  0.48590  0.44490  Biso   1.000  C
  Mg2      1.0000 0.32080  0.17327  0.00822  Biso   1.000  Mg
  P2       1.0000 0.35056  0.31834  0.73382  Biso   1.000  P
  O8       1.0000 0.38750  0.28509  0.89350  Biso   1.000  O
  O9       1.0000 0.55160  0.28660  0.63920  Biso   1.000  O
  O10      1.0000 0.09100  0.29556  0.66900  Biso   1.000  O
  O11      1.0000 0.36680  0.42252  0.74320  Biso   1.000  O
  H4       1.0000 0.48410  0.43960  0.69900  Biso   1.000  H
  O12      1.0000 0.26020  0.04410  0.09160  Biso   1.000  O
  O13      1.0000 0.41790  0.90806  0.09860  Biso   1.000  O
  O14      1.0000 0.04500  0.14639  0.83060  Biso   1.000  O
  H5       1.0000 0.90610  0.12960  0.85770  Biso   1.000  H
  H6       1.0000 0.01230  0.19120  0.77640  Biso   1.000  H
  C2       1.0000 0.40680  0.98590  0.05510  Biso   1.000  C
  Mg3      1.0000 0.82080  0.32673  0.50822  Biso   1.000  Mg
  P3       1.0000 0.85056  0.18166  0.23382  Biso   1.000  P
  O15      1.0000 0.88750  0.21491  0.39350  Biso   1.000  O
  O16      1.0000 0.05160  0.21340  0.13920  Biso   1.000  O
  O17      1.0000 0.59100  0.20444  0.16900  Biso   1.000  O
  O18      1.0000 0.86680  0.07748  0.24320  Biso   1.000  O
  H7       1.0000 0.98410  0.06040  0.19900  Biso   1.000  H
  O19      1.0000 0.76020  0.45590  0.59160  Biso   1.000  O
  O20      1.0000 0.91790  0.59194  0.59860  Biso   1.000  O
  O21      1.0000 0.54500  0.35361  0.33060  Biso   1.000  O
  H8       1.0000 0.40610  0.37040  0.35770  Biso   1.000  H
  H9       1.0000 0.51230  0.30880  0.27640  Biso   1.000  H
  C3       1.0000 0.90680  0.51410  0.55510  Biso   1.000  C
  Mg4      1.0000 0.67920  0.82673  0.99178  Biso   1.000  Mg
  P4       1.0000 0.64944  0.68166  0.26618  Biso   1.000  P
  O22      1.0000 0.61250  0.71491  0.10650  Biso   1.000  O
  O23      1.0000 0.44840  0.71340  0.36080  Biso   1.000  O
  O24      1.0000 0.90900  0.70444  0.33100  Biso   1.000  O
  O25      1.0000 0.63320  0.57748  0.25680  Biso   1.000  O
  H10      1.0000 0.51590  0.56040  0.30100  Biso   1.000  H
  O26      1.0000 0.73980  0.95590  0.90840  Biso   1.000  O
  O27      1.0000 0.58210  0.09194  0.90140  Biso   1.000  O
  O28      1.0000 0.95500  0.85361  0.16940  Biso   1.000  O
  H11      1.0000 0.09390  0.87040  0.14230  Biso   1.000  H
  H12      1.0000 0.98770  0.80880  0.22360  Biso   1.000  H
  C4       1.0000 0.59320  0.01410  0.94490  Biso   1.000  C
