data_image0
_cell_length_a       11.2784
_cell_length_b       22.521
_cell_length_c       22.6
_cell_angle_alpha    104.626
_cell_angle_beta     96.241
_cell_angle_gamma    100.215

_symmetry_space_group_name_H-M    P 1
_symmetry_int_tables_number       1

loop_
  _symmetry_equiv_pos_as_xyz
  'x, y, z'

loop_
  _atom_site_label
  _atom_site_occupancy
  _atom_site_fract_x
  _atom_site_fract_y
  _atom_site_fract_z
  _atom_site_thermal_displace_type
  _atom_site_B_iso_or_equiv
  _atom_site_type_symbol
  V1       1.0000 0.12786  0.38186  0.53766  Biso   1.000  V
  V2       1.0000 0.34130  0.43947  0.31489  Biso   1.000  V
  V3       1.0000 0.48263  0.36269  0.50166  Biso   1.000  V
  V4       1.0000 0.28907  0.42073  0.16120  Biso   1.000  V
  V5       1.0000 0.47678  0.33776  0.97899  Biso   1.000  V
  V6       1.0000 0.32527  0.44828  0.82133  Biso   1.000  V
  V7       1.0000 0.25349  0.39590  0.93683  Biso   1.000  V
  V8       1.0000 0.35199  0.29158  0.10295  Biso   1.000  V
  V9       1.0000 0.45560  0.78335  0.89567  Biso   1.000  V
  V10      1.0000 0.12340  0.46966  0.05097  Biso   1.000  V
  V11      1.0000 0.24159  0.34443  0.40324  Biso   1.000  V
  V12      1.0000 0.23200  0.94002  0.52488  Biso   1.000  V
  V13      1.0000 0.30686  0.41164  0.67177  Biso   1.000  V
  V14      1.0000 0.19247  0.94718  0.01622  Biso   1.000  V
  V15      1.0000 0.43660  0.88186  0.04030  Biso   1.000  V
  V16      1.0000 0.92412  0.85570  0.01756  Biso   1.000  V
  V17      1.0000 0.93430  0.86690  0.52297  Biso   1.000  V
  V18      1.0000 0.75402  0.85536  0.89629  Biso   1.000  V
  V19      1.0000 0.46140  0.77154  0.39405  Biso   1.000  V
  V20      1.0000 0.40278  0.28606  0.61556  Biso   1.000  V
  V21      1.0000 0.75150  0.86040  0.40070  Biso   1.000  V
  V22      1.0000 0.72917  0.92878  0.10523  Biso   1.000  V
  V23      1.0000 0.71310  0.91953  0.60493  Biso   1.000  V
  V24      1.0000 0.41220  0.84617  0.53544  Biso   1.000  V
  Ni1      1.0000 0.24053  0.12112  0.05503  Biso   1.000  Ni
  Ni2      1.0000 0.74702  0.88046  0.24624  Biso   1.000  Ni
  Ni3      1.0000 0.29652  0.11335  0.55700  Biso   1.000  Ni
  Ni4      1.0000 0.40232  0.62002  0.89341  Biso   1.000  Ni
  Ni5      1.0000 0.40652  0.60707  0.38998  Biso   1.000  Ni
  Ni6      1.0000 0.81212  0.38584  0.00952  Biso   1.000  Ni
  Ni7      1.0000 0.81133  0.38508  0.50866  Biso   1.000  Ni
  Ni8      1.0000 0.79529  0.88658  0.74978  Biso   1.000  Ni
  H1       1.0000 0.70190  0.79680  0.61840  Biso   1.000  H
  H2       1.0000 0.71820  0.69820  0.55900  Biso   1.000  H
  H3       1.0000 0.89920  0.67460  0.71540  Biso   1.000  H
  H4       1.0000 0.86740  0.77320  0.76980  Biso   1.000  H
  H5       1.0000 0.98830  0.50660  0.59190  Biso   1.000  H
  H6       1.0000 0.98720  0.61010  0.64090  Biso   1.000  H
  H7       1.0000 0.65220  0.58630  0.53960  Biso   1.000  H
  H8       1.0000 0.67070  0.48550  0.49160  Biso   1.000  H
  H9       1.0000 0.95670  0.83340  0.30310  Biso   1.000  H
  H10      1.0000 0.16070  0.83320  0.30020  Biso   1.000  H
  H11      1.0000 0.15280  0.92270  0.16930  Biso   1.000  H
  H12      1.0000 0.95380  0.92820  0.17890  Biso   1.000  H
  H13      1.0000 0.56210  0.95250  0.20630  Biso   1.000  H
  H14      1.0000 0.35880  0.95420  0.20290  Biso   1.000  H
  H15      1.0000 0.30530  0.79010  0.25170  Biso   1.000  H
  H16      1.0000 0.51050  0.79180  0.25290  Biso   1.000  H
  H17      1.0000 0.54930  0.82350  0.67160  Biso   1.000  H
  H18      1.0000 0.34100  0.82250  0.67010  Biso   1.000  H
  H19      1.0000 0.42420  0.93590  0.84640  Biso   1.000  H
  H20      1.0000 0.62810  0.93370  0.84440  Biso   1.000  H
  H21      1.0000 0.99210  0.89500  0.66670  Biso   1.000  H
  H22      1.0000 0.19930  0.88760  0.66430  Biso   1.000  H
  H23      1.0000 0.22020  0.88960  0.84920  Biso   1.000  H
  H24      1.0000 0.01030  0.89420  0.83990  Biso   1.000  H
  H25      1.0000 0.65060  0.25290  0.49290  Biso   1.000  H
  H26      1.0000 0.62490  0.15080  0.43280  Biso   1.000  H
  H27      1.0000 0.95000  0.20210  0.37960  Biso   1.000  H
  H28      1.0000 0.95950  0.30370  0.43560  Biso   1.000  H
  H29      1.0000 0.63370  0.95660  0.34060  Biso   1.000  H
  H30      1.0000 0.63310  0.05700  0.39540  Biso   1.000  H
  H31      1.0000 0.91260  0.11860  0.31210  Biso   1.000  H
  H32      1.0000 0.89430  0.01820  0.25450  Biso   1.000  H
  H33      1.0000 0.95150  0.98620  0.86300  Biso   1.000  H
  H34      1.0000 0.95770  0.08890  0.92180  Biso   1.000  H
  H35      1.0000 0.72240  0.10340  0.77950  Biso   1.000  H
  H36      1.0000 0.72220  0.99840  0.73110  Biso   1.000  H
  H37      1.0000 0.65200  0.27150  0.92040  Biso   1.000  H
  H38      1.0000 0.65500  0.16990  0.86480  Biso   1.000  H
  H39      1.0000 0.00570  0.19710  0.94300  Biso   1.000  H
  H40      1.0000 0.99660  0.29720  0.99720  Biso   1.000  H
  H41      1.0000 0.70610  0.49110  0.97900  Biso   1.000  H
  H42      1.0000 0.69350  0.59370  0.02350  Biso   1.000  H
  H43      1.0000 0.87370  0.58370  0.18340  Biso   1.000  H
  H44      1.0000 0.90090  0.48590  0.13060  Biso   1.000  H
  H45      1.0000 0.72930  0.64660  0.22320  Biso   1.000  H
  H46      1.0000 0.70020  0.74670  0.27110  Biso   1.000  H
  H47      1.0000 0.76010  0.80090  0.11710  Biso   1.000  H
  H48      1.0000 0.78920  0.70070  0.06910  Biso   1.000  H
  H49      1.0000 0.54910  0.18880  0.62740  Biso   1.000  H
  H50      1.0000 0.75240  0.19680  0.61650  Biso   1.000  H
  H51      1.0000 0.65840  0.02610  0.48860  Biso   1.000  H
  H52      1.0000 0.45460  0.02840  0.49800  Biso   1.000  H
  H53      1.0000 0.05180  0.01940  0.52160  Biso   1.000  H
  H54      1.0000 0.84360  0.01820  0.51990  Biso   1.000  H
  H55      1.0000 0.91640  0.20830  0.56190  Biso   1.000  H
  H56      1.0000 0.12470  0.20950  0.56360  Biso   1.000  H
  H57      1.0000 0.39140  0.05020  0.65390  Biso   1.000  H
  H58      1.0000 0.37320  0.04850  0.75470  Biso   1.000  H
  H59      1.0000 0.16630  0.17820  0.76420  Biso   1.000  H
  H60      1.0000 0.19530  0.17910  0.66510  Biso   1.000  H
  H61      1.0000 0.23650  0.02580  0.93140  Biso   1.000  H
  H62      1.0000 0.24960  0.02170  0.82840  Biso   1.000  H
  H63      1.0000 0.24270  0.20480  0.86730  Biso   1.000  H
  H64      1.0000 0.22680  0.20480  0.96840  Biso   1.000  H
  H65      1.0000 0.42940  0.05060  0.09210  Biso   1.000  H
  H66      1.0000 0.63440  0.04810  0.09050  Biso   1.000  H
  H67      1.0000 0.67190  0.20190  0.02800  Biso   1.000  H
  H68      1.0000 0.46570  0.19730  0.02540  Biso   1.000  H
  H69      1.0000 0.07910  0.21120  0.09980  Biso   1.000  H
  H70      1.0000 0.87440  0.21550  0.10160  Biso   1.000  H
  H71      1.0000 0.78420  0.03000  0.01320  Biso   1.000  H
  H72      1.0000 0.99040  0.03200  0.01050  Biso   1.000  H
  H73      1.0000 0.98830  0.39940  0.91960  Biso   1.000  H
  H74      1.0000 0.99220  0.39150  0.81490  Biso   1.000  H
  H75      1.0000 0.62780  0.38740  0.79210  Biso   1.000  H
  H76      1.0000 0.63300  0.39220  0.89630  Biso   1.000  H
  H77      1.0000 0.66900  0.42550  0.61290  Biso   1.000  H
  H78      1.0000 0.67170  0.43250  0.71600  Biso   1.000  H
  H79      1.0000 0.93780  0.33150  0.70680  Biso   1.000  H
  H80      1.0000 0.92840  0.32670  0.60350  Biso   1.000  H
  H81      1.0000 0.64220  0.38030  0.10240  Biso   1.000  H
  H82      1.0000 0.64720  0.39000  0.20730  Biso   1.000  H
  H83      1.0000 0.99040  0.35800  0.21580  Biso   1.000  H
  H84      1.0000 0.97960  0.35480  0.11220  Biso   1.000  H
  H85      1.0000 0.99450  0.42410  0.42470  Biso   1.000  H
  H86      1.0000 0.00530  0.41260  0.32070  Biso   1.000  H
  H87      1.0000 0.63610  0.35300  0.28460  Biso   1.000  H
  H88      1.0000 0.63750  0.35770  0.38890  Biso   1.000  H
  H89      1.0000 0.11390  0.04900  0.13690  Biso   1.000  H
  H90      1.0000 0.12240  0.04670  0.23850  Biso   1.000  H
  H91      1.0000 0.40740  0.19480  0.28540  Biso   1.000  H
  H92      1.0000 0.38910  0.19650  0.18380  Biso   1.000  H
  H93      1.0000 0.34710  0.20630  0.48080  Biso   1.000  H
  H94      1.0000 0.33650  0.21200  0.38020  Biso   1.000  H
  H95      1.0000 0.22270  0.02250  0.32390  Biso   1.000  H
  H96      1.0000 0.23300  0.02270  0.42610  Biso   1.000  H
  H97      1.0000 0.34550  0.51650  0.47000  Biso   1.000  H
  H98      1.0000 0.33880  0.51660  0.57160  Biso   1.000  H
  H99      1.0000 0.46600  0.70630  0.62080  Biso   1.000  H
  H100     1.0000 0.47650  0.69900  0.51750  Biso   1.000  H
  H101     1.0000 0.55070  0.68230  0.81310  Biso   1.000  H
  H102     1.0000 0.55890  0.67890  0.71060  Biso   1.000  H
  H103     1.0000 0.23490  0.55320  0.66470  Biso   1.000  H
  H104     1.0000 0.23970  0.56010  0.76770  Biso   1.000  H
  H105     1.0000 0.18310  0.54560  0.92680  Biso   1.000  H
  H106     1.0000 0.97740  0.54210  0.93070  Biso   1.000  H
  H107     1.0000 0.00810  0.69630  0.86750  Biso   1.000  H
  H108     1.0000 0.21320  0.69260  0.86110  Biso   1.000  H
  H109     1.0000 0.65170  0.70890  0.94290  Biso   1.000  H
  H110     1.0000 0.85670  0.71180  0.94610  Biso   1.000  H
  H111     1.0000 0.77360  0.52630  0.85850  Biso   1.000  H
  H112     1.0000 0.57000  0.52880  0.85810  Biso   1.000  H
  H113     1.0000 0.24690  0.68450  0.45790  Biso   1.000  H
  H114     1.0000 0.04490  0.68730  0.46330  Biso   1.000  H
  H115     1.0000 0.94910  0.53080  0.31880  Biso   1.000  H
  H116     1.0000 0.15350  0.53180  0.31630  Biso   1.000  H
  H117     1.0000 0.58170  0.51830  0.38780  Biso   1.000  H
  H118     1.0000 0.78300  0.51420  0.37890  Biso   1.000  H
  H119     1.0000 0.85570  0.70390  0.41160  Biso   1.000  H
  H120     1.0000 0.65170  0.70050  0.41510  Biso   1.000  H
  C1       1.0000 0.73880  0.77050  0.63820  Biso   1.000  C
  C2       1.0000 0.74850  0.71210  0.60220  Biso   1.000  C
  C3       1.0000 0.80500  0.67470  0.63220  Biso   1.000  C
  C4       1.0000 0.85480  0.69790  0.69500  Biso   1.000  C
  C5       1.0000 0.83680  0.75700  0.72670  Biso   1.000  C
  C6       1.0000 0.91740  0.52220  0.58310  Biso   1.000  C
  C7       1.0000 0.91920  0.58450  0.61140  Biso   1.000  C
  C8       1.0000 0.81900  0.60890  0.59580  Biso   1.000  C
  C9       1.0000 0.72200  0.57110  0.55140  Biso   1.000  C
  C10      1.0000 0.73200  0.51000  0.52500  Biso   1.000  C
  C11      1.0000 0.99810  0.85490  0.27760  Biso   1.000  C
  C12      1.0000 0.11810  0.85220  0.27410  Biso   1.000  C
  C13      1.0000 0.17540  0.87690  0.23320  Biso   1.000  C
  C14      1.0000 0.11450  0.90530  0.19830  Biso   1.000  C
  C15      1.0000 0.99650  0.90900  0.20480  Biso   1.000  C
  C16      1.0000 0.50910  0.91960  0.21580  Biso   1.000  C
  C17      1.0000 0.38870  0.92080  0.21380  Biso   1.000  C
  C18      1.0000 0.30800  0.87270  0.22770  Biso   1.000  C
  C19      1.0000 0.35670  0.82370  0.24250  Biso   1.000  C
  C20      1.0000 0.47850  0.82520  0.24330  Biso   1.000  C
  C21      1.0000 0.52380  0.84660  0.70750  Biso   1.000  C
  C22      1.0000 0.39840  0.84630  0.70580  Biso   1.000  C
  C23      1.0000 0.35970  0.88200  0.75780  Biso   1.000  C
  C24      1.0000 0.44790  0.91310  0.80980  Biso   1.000  C
  C25      1.0000 0.56990  0.91120  0.80860  Biso   1.000  C
  C26      1.0000 0.03950  0.89210  0.70280  Biso   1.000  C
  C27      1.0000 0.16300  0.88750  0.70030  Biso   1.000  C
  C28      1.0000 0.22800  0.88280  0.75600  Biso   1.000  C
  C29      1.0000 0.17490  0.88840  0.81080  Biso   1.000  C
  C30      1.0000 0.05010  0.89210  0.80470  Biso   1.000  C
  C31      1.0000 0.71080  0.24250  0.46810  Biso   1.000  C
  C32      1.0000 0.69560  0.18120  0.43350  Biso   1.000  C
  C33      1.0000 0.78670  0.16450  0.39930  Biso   1.000  C
  C34      1.0000 0.88560  0.21170  0.40170  Biso   1.000  C
  C35      1.0000 0.89140  0.27210  0.43570  Biso   1.000  C
  C36      1.0000 0.69180  0.98990  0.33490  Biso   1.000  C
  C37      1.0000 0.69170  0.05020  0.36860  Biso   1.000  C
  C38      1.0000 0.77800  0.10180  0.36360  Biso   1.000  C
  C39      1.0000 0.85390  0.08620  0.31900  Biso   1.000  C
  C40      1.0000 0.84460  0.02550  0.28580  Biso   1.000  C
  C41      1.0000 0.89740  0.00920  0.84850  Biso   1.000  C
  C42      1.0000 0.90450  0.07060  0.88330  Biso   1.000  C
  C43      1.0000 0.83000  0.10310  0.85860  Biso   1.000  C
  C44      1.0000 0.76470  0.07920  0.79970  Biso   1.000  C
  C45      1.0000 0.76590  0.01670  0.77190  Biso   1.000  C
  C46      1.0000 0.72390  0.25560  0.92580  Biso   1.000  C
  C47      1.0000 0.72610  0.19520  0.89210  Biso   1.000  C
  C48      1.0000 0.83050  0.17110  0.89760  Biso   1.000  C
  C49      1.0000 0.93160  0.21110  0.93800  Biso   1.000  C
  C50      1.0000 0.92570  0.27060  0.97070  Biso   1.000  C
  C51      1.0000 0.74310  0.51080  0.02090  Biso   1.000  C
  C52      1.0000 0.73320  0.57180  0.04770  Biso   1.000  C
  C53      1.0000 0.78100  0.60150  0.10990  Biso   1.000  C
  C54      1.0000 0.84090  0.56680  0.14070  Biso   1.000  C
  C55      1.0000 0.85320  0.50720  0.10928  Biso   1.000  C
  C56      1.0000 0.76200  0.66423  0.14162  Biso   1.000  C
  C57      1.0000 0.73550  0.67790  0.20163  Biso   1.000  C
  C58      1.0000 0.71830  0.73740  0.23012  Biso   1.000  C
  C59      1.0000 0.75390  0.76955  0.13861  Biso   1.000  C
  C60      1.0000 0.77110  0.71005  0.11012  Biso   1.000  C
  C61      1.0000 0.57140  0.15695  0.59709  Biso   1.000  C
  C62      1.0000 0.69340  0.16091  0.59231  Biso   1.000  C
  C63      1.0000 0.72980  0.11250  0.55230  Biso   1.000  C
  C64      1.0000 0.63820  0.06090  0.51620  Biso   1.000  C
  C65      1.0000 0.51670  0.06279  0.52235  Biso   1.000  C
  C66      1.0000 0.02430  0.05775  0.52981  Biso   1.000  C
  C67      1.0000 0.90060  0.05705  0.52877  Biso   1.000  C
  C68      1.0000 0.86040  0.11315  0.54073  Biso   1.000  C
  C69      1.0000 0.94390  0.16994  0.55373  Biso   1.000  C
  C70      1.0000 0.06760  0.17065  0.55476  Biso   1.000  C
  C71      1.0000 0.34560  0.07670  0.67690  Biso   1.000  C
  C72      1.0000 0.33440  0.07560  0.73700  Biso   1.000  C
  C73      1.0000 0.26660  0.11370  0.77250  Biso   1.000  C
  C74      1.0000 0.21420  0.15160  0.74310  Biso   1.000  C
  C75      1.0000 0.23060  0.15140  0.68340  Biso   1.000  C
  C76      1.0000 0.23820  0.06290  0.91850  Biso   1.000  C
  C77      1.0000 0.24710  0.06050  0.85670  Biso   1.000  C
  C78      1.0000 0.25240  0.11360  0.83600  Biso   1.000  C
  C79      1.0000 0.24270  0.16720  0.87910  Biso   1.000  C
  C80      1.0000 0.23310  0.16690  0.93980  Biso   1.000  C
  C81      1.0000 0.47880  0.08100  0.07770  Biso   1.000  C
  C82      1.0000 0.60170  0.07960  0.07740  Biso   1.000  C
  C83      1.0000 0.67570  0.12420  0.05790  Biso   1.000  C
  C84      1.0000 0.62320  0.16940  0.04000  Biso   1.000  C
  C85      1.0000 0.50040  0.16690  0.03950  Biso   1.000  C
  C86      1.0000 0.01840  0.17420  0.08050  Biso   1.000  C
  C87      1.0000 0.89600  0.17710  0.08260  Biso   1.000  C
  C88      1.0000 0.80680  0.12280  0.05650  Biso   1.000  C
  C89      1.0000 0.84280  0.06820  0.03020  Biso   1.000  C
  C90      1.0000 0.96670  0.06990  0.02900  Biso   1.000  C
  C91      1.0000 0.91460  0.39640  0.89330  Biso   1.000  C
  C92      1.0000 0.91760  0.39160  0.83070  Biso   1.000  C
  C93      1.0000 0.80940  0.38680  0.79140  Biso   1.000  C
  C94      1.0000 0.70220  0.38870  0.81700  Biso   1.000  C
  C95      1.0000 0.70680  0.39260  0.87960  Biso   1.000  C
  C96      1.0000 0.72520  0.40690  0.63270  Biso   1.000  C
  C97      1.0000 0.72580  0.41090  0.69410  Biso   1.000  C
  C98      1.0000 0.80570  0.38340  0.72490  Biso   1.000  C
  C99      1.0000 0.88240  0.35140  0.68840  Biso   1.000  C
  C100     1.0000 0.87710  0.34910  0.62690  Biso   1.000  C
  C101     1.0000 0.71450  0.37690  0.12600  Biso   1.000  C
  C102     1.0000 0.71620  0.38160  0.18870  Biso   1.000  C
  C103     1.0000 0.81910  0.37400  0.22460  Biso   1.000  C
  C104     1.0000 0.91820  0.36360  0.19400  Biso   1.000  C
  C105     1.0000 0.91060  0.36130  0.13160  Biso   1.000  C
  C106     1.0000 0.92120  0.40810  0.39550  Biso   1.000  C
  C107     1.0000 0.92880  0.40200  0.33360  Biso   1.000  C
  C108     1.0000 0.82110  0.37970  0.29030  Biso   1.000  C
  C109     1.0000 0.71120  0.36580  0.31240  Biso   1.000  C
  C110     1.0000 0.71200  0.37050  0.37510  Biso   1.000  C
  C111     1.0000 0.17430  0.07940  0.16750  Biso   1.000  C
  C112     1.0000 0.17940  0.07730  0.22800  Biso   1.000  C
  C113     1.0000 0.26850  0.12010  0.27370  Biso   1.000  C
  C114     1.0000 0.34590  0.16430  0.25540  Biso   1.000  C
  C115     1.0000 0.33510  0.16490  0.19460  Biso   1.000  C
  C116     1.0000 0.32060  0.16850  0.44810  Biso   1.000  C
  C117     1.0000 0.31450  0.17230  0.38810  Biso   1.000  C
  C118     1.0000 0.27560  0.11750  0.33820  Biso   1.000  C
  C119     1.0000 0.24730  0.06130  0.35530  Biso   1.000  C
  C120     1.0000 0.25470  0.06160  0.41670  Biso   1.000  C
  C121     1.0000 0.37110  0.55530  0.50130  Biso   1.000  C
  C122     1.0000 0.36550  0.55490  0.56180  Biso   1.000  C
  C123     1.0000 0.40000  0.61180  0.60880  Biso   1.000  C
  C124     1.0000 0.44160  0.66660  0.59070  Biso   1.000  C
  C125     1.0000 0.44640  0.66190  0.52880  Biso   1.000  C
  C126     1.0000 0.48650  0.65540  0.78210  Biso   1.000  C
  C127     1.0000 0.49160  0.65380  0.72090  Biso   1.000  C
  C128     1.0000 0.39800  0.61550  0.67430  Biso   1.000  C
  C129     1.0000 0.30180  0.58010  0.69410  Biso   1.000  C
  C130     1.0000 0.30560  0.58450  0.75570  Biso   1.000  C
  C131     1.0000 0.14640  0.57590  0.91350  Biso   1.000  C
  C132     1.0000 0.02420  0.57400  0.91710  Biso   1.000  C
  C133     1.0000 0.97180  0.61990  0.90040  Biso   1.000  C
  C134     1.0000 0.04200  0.66450  0.87940  Biso   1.000  C
  C135     1.0000 0.16490  0.66200  0.87580  Biso   1.000  C
  C136     1.0000 0.67670  0.67110  0.92500  Biso   1.000  C
  C137     1.0000 0.79960  0.67330  0.92720  Biso   1.000  C
  C138     1.0000 0.84040  0.61930  0.90190  Biso   1.000  C
  C139     1.0000 0.75090  0.56480  0.87600  Biso   1.000  C
  C140     1.0000 0.62900  0.56680  0.87580  Biso   1.000  C
  C141     1.0000 0.18530  0.65280  0.42930  Biso   1.000  C
  C142     1.0000 0.06550  0.65470  0.43300  Biso   1.000  C
  C143     1.0000 0.97560  0.60920  0.39240  Biso   1.000  C
  C144     1.0000 0.00950  0.56270  0.34790  Biso   1.000  C
  C145     1.0000 0.13090  0.56350  0.34670  Biso   1.000  C
  C146     1.0000 0.63780  0.55620  0.39090  Biso   1.000  C
  C147     1.0000 0.75860  0.55340  0.38700  Biso   1.000  C
  C148     1.0000 0.84340  0.60900  0.39510  Biso   1.000  C
  C149     1.0000 0.80110  0.66480  0.40570  Biso   1.000  C
  C150     1.0000 0.67880  0.66200  0.40740  Biso   1.000  C
  N1       1.0000 0.77800  0.79130  0.69840  Biso   1.000  N
  N2       1.0000 0.82000  0.48170  0.54330  Biso   1.000  N
  N3       1.0000 0.93750  0.88650  0.24660  Biso   1.000  N
  N4       1.0000 0.55610  0.87290  0.23100  Biso   1.000  N
  N5       1.0000 0.60980  0.87790  0.75760  Biso   1.000  N
  N6       1.0000 0.98660  0.89260  0.75210  Biso   1.000  N
  N7       1.0000 0.80520  0.28880  0.46910  Biso   1.000  N
  N8       1.0000 0.77000  0.97480  0.29380  Biso   1.000  N
  N9       1.0000 0.82190  0.98120  0.79740  Biso   1.000  N
  N10      1.0000 0.82220  0.29210  0.96620  Biso   1.000  N
  N11      1.0000 0.80180  0.47860  0.05110  Biso   1.000  N
  N12      1.0000 0.72740  0.78323  0.19862  Biso   1.000  N
  N13      1.0000 0.48330  0.11017  0.56045  Biso   1.000  N
  N14      1.0000 0.10780  0.11454  0.54280  Biso   1.000  N
  N15      1.0000 0.29270  0.11470  0.65060  Biso   1.000  N
  N16      1.0000 0.23220  0.11580  0.95960  Biso   1.000  N
  N17      1.0000 0.42730  0.12370  0.05820  Biso   1.000  N
  N18      1.0000 0.05420  0.12230  0.05270  Biso   1.000  N
  N19      1.0000 0.81010  0.39700  0.91790  Biso   1.000  N
  N20      1.0000 0.80170  0.37740  0.59830  Biso   1.000  N
  N21      1.0000 0.81150  0.36780  0.09720  Biso   1.000  N
  N22      1.0000 0.81610  0.39280  0.41700  Biso   1.000  N
  N23      1.0000 0.25070  0.12240  0.14890  Biso   1.000  N
  N24      1.0000 0.29090  0.11370  0.46330  Biso   1.000  N
  N25      1.0000 0.41050  0.60760  0.48380  Biso   1.000  N
  N26      1.0000 0.39460  0.62050  0.79960  Biso   1.000  N
  N27      1.0000 0.21600  0.61830  0.89200  Biso   1.000  N
  N28      1.0000 0.58960  0.61890  0.89910  Biso   1.000  N
  N29      1.0000 0.21950  0.60790  0.38710  Biso   1.000  N
  N30      1.0000 0.59530  0.60950  0.39900  Biso   1.000  N
  O1       1.0000 0.25650  0.01630  0.53550  Biso   1.000  O
  O2       1.0000 0.33620  0.21020  0.58590  Biso   1.000  O
  O3       1.0000 0.62730  0.36330  0.99590  Biso   1.000  O
  O4       1.0000 0.62720  0.36530  0.49130  Biso   1.000  O
  O5       1.0000 0.99520  0.40340  0.52880  Biso   1.000  O
  O6       1.0000 0.36610  0.51130  0.36180  Biso   1.000  O
  O7       1.0000 0.22820  0.40030  0.85930  Biso   1.000  O
  O8       1.0000 0.35470  0.52320  0.86140  Biso   1.000  O
  O9       1.0000 0.20820  0.02570  0.03510  Biso   1.000  O
  O10      1.0000 0.47170  0.42040  0.30950  Biso   1.000  O
  O11      1.0000 0.24580  0.38520  0.34690  Biso   1.000  O
  O12      1.0000 0.29550  0.32930  0.65470  Biso   1.000  O
  O13      1.0000 0.25250  0.43740  0.74230  Biso   1.000  O
  O14      1.0000 0.40770  0.40100  0.96290  Biso   1.000  O
  O15      1.0000 0.34930  0.91660  0.56730  Biso   1.000  O
  O16      1.0000 0.32220  0.92450  0.05370  Biso   1.000  O
  O17      1.0000 0.23750  0.33830  0.12630  Biso   1.000  O
  O18      1.0000 0.43300  0.43720  0.15840  Biso   1.000  O
  O19      1.0000 0.26340  0.43830  0.23950  Biso   1.000  O
  O20      1.0000 0.99570  0.41420  0.03060  Biso   1.000  O
  O21      1.0000 0.20390  0.45750  0.98540  Biso   1.000  O
  O22      1.0000 0.79880  0.86260  0.82900  Biso   1.000  O
  O23      1.0000 0.83230  0.90970  0.55710  Biso   1.000  O
  O24      1.0000 0.44620  0.44520  0.67890  Biso   1.000  O
  O25      1.0000 0.44270  0.71730  0.91910  Biso   1.000  O
  O26      1.0000 0.22190  0.42920  0.61030  Biso   1.000  O
  O27      1.0000 0.42250  0.31270  0.04200  Biso   1.000  O
  O28      1.0000 0.45320  0.42480  0.81970  Biso   1.000  O
  O29      1.0000 0.08980  0.53770  0.06330  Biso   1.000  O
  O30      1.0000 0.43010  0.84840  0.95940  Biso   1.000  O
  O31      1.0000 0.60940  0.80260  0.88110  Biso   1.000  O
  O32      1.0000 0.72720  0.92930  0.43340  Biso   1.000  O
  O33      1.0000 0.44090  0.70330  0.41250  Biso   1.000  O
  O34      1.0000 0.61940  0.80040  0.39730  Biso   1.000  O
  O35      1.0000 0.21290  0.46350  0.11990  Biso   1.000  O
  O36      1.0000 0.41600  0.82580  0.07370  Biso   1.000  O
  O37      1.0000 0.51960  0.29190  0.66540  Biso   1.000  O
  O38      1.0000 0.57920  0.92950  0.06930  Biso   1.000  O
  O39      1.0000 0.45280  0.29590  0.16040  Biso   1.000  O
  O40      1.0000 0.19340  0.38800  0.46930  Biso   1.000  O
  O41      1.0000 0.27630  0.21660  0.07680  Biso   1.000  O
  O42      1.0000 0.86620  0.82610  0.93920  Biso   1.000  O
  O43      1.0000 0.14660  0.27840  0.37480  Biso   1.000  O
  O44      1.0000 0.38430  0.32790  0.42620  Biso   1.000  O
  O45      1.0000 0.17540  0.32960  0.94090  Biso   1.000  O
  O46      1.0000 0.44520  0.31550  0.55320  Biso   1.000  O
  O47      1.0000 0.46650  0.43300  0.53130  Biso   1.000  O
  O48      1.0000 0.76420  0.85990  0.32770  Biso   1.000  O
  O49      1.0000 0.89050  0.84620  0.44190  Biso   1.000  O
  O50      1.0000 0.96290  0.79920  0.04170  Biso   1.000  O
  O51      1.0000 0.10240  0.30970  0.53900  Biso   1.000  O
  O52      1.0000 0.40140  0.82030  0.45570  Biso   1.000  O
  O53      1.0000 0.45070  0.27940  0.91800  Biso   1.000  O
  O54      1.0000 0.77660  0.90750  0.66820  Biso   1.000  O
  O55      1.0000 0.18200  0.92110  0.94180  Biso   1.000  O
  O56      1.0000 0.05360  0.91360  0.04010  Biso   1.000  O
  O57      1.0000 0.36260  0.77210  0.83370  Biso   1.000  O
  O58      1.0000 0.80490  0.99880  0.12990  Biso   1.000  O
  O59      1.0000 0.22670  0.90900  0.45110  Biso   1.000  O
  O60      1.0000 0.93360  0.80720  0.54930  Biso   1.000  O
  O61      1.0000 0.74300  0.92330  0.93840  Biso   1.000  O
  O62      1.0000 0.80550  0.87620  0.05690  Biso   1.000  O
  O63      1.0000 0.34950  0.78790  0.55790  Biso   1.000  O
  O64      1.0000 0.08370  0.91180  0.54430  Biso   1.000  O
  O65      1.0000 0.37900  0.76820  0.32850  Biso   1.000  O
  O66      1.0000 0.56710  0.86750  0.57070  Biso   1.000  O
  O67      1.0000 0.69920  0.99200  0.62230  Biso   1.000  O
  O68      1.0000 0.72260  0.89930  0.16460  Biso   1.000  O
