data_image0
_cell_length_a       7.362
_cell_length_b       12.946
_cell_length_c       13.628
_cell_angle_alpha    90
_cell_angle_beta     91.312
_cell_angle_gamma    90

_symmetry_space_group_name_H-M    P 1
_symmetry_int_tables_number       1

loop_
  _symmetry_equiv_pos_as_xyz
  'x, y, z'

loop_
  _atom_site_label
  _atom_site_occupancy
  _atom_site_fract_x
  _atom_site_fract_y
  _atom_site_fract_z
  _atom_site_thermal_displace_type
  _atom_site_B_iso_or_equiv
  _atom_site_type_symbol
  Zn1      1.0000 0.50024  0.25000  0.08624  Biso   1.000  Zn
  Zn2      1.0000 0.49976  0.75000  0.91376  Biso   1.000  Zn
  Ni1      1.0000 0.00000  0.00000  0.00000  Biso   1.000  Ni
  Ni2      1.0000 0.00000  0.50000  0.00000  Biso   1.000  Ni
  H1       1.0000 0.52110  0.40440  0.90970  Biso   1.000  H
  H2       1.0000 0.56360  0.40350  0.74120  Biso   1.000  H
  H3       1.0000 0.45870  0.40480  0.43370  Biso   1.000  H
  H4       1.0000 0.50470  0.40270  0.26510  Biso   1.000  H
  H5       1.0000 0.02440  0.91360  0.16120  Biso   1.000  H
  H6       1.0000 0.09310  0.84600  0.09440  Biso   1.000  H
  H7       1.0000 0.47890  0.90440  0.09030  Biso   1.000  H
  H8       1.0000 0.43640  0.90350  0.25880  Biso   1.000  H
  H9       1.0000 0.54130  0.90480  0.56630  Biso   1.000  H
  H10      1.0000 0.49530  0.90270  0.73490  Biso   1.000  H
  H11      1.0000 0.97560  0.41360  0.83880  Biso   1.000  H
  H12      1.0000 0.90690  0.34600  0.90560  Biso   1.000  H
  H13      1.0000 0.47890  0.59560  0.09030  Biso   1.000  H
  H14      1.0000 0.43640  0.59650  0.25880  Biso   1.000  H
  H15      1.0000 0.54130  0.59520  0.56630  Biso   1.000  H
  H16      1.0000 0.49530  0.59730  0.73490  Biso   1.000  H
  H17      1.0000 0.97560  0.08640  0.83880  Biso   1.000  H
  H18      1.0000 0.90690  0.15400  0.90560  Biso   1.000  H
  H19      1.0000 0.52110  0.09560  0.90970  Biso   1.000  H
  H20      1.0000 0.56360  0.09650  0.74120  Biso   1.000  H
  H21      1.0000 0.45870  0.09520  0.43370  Biso   1.000  H
  H22      1.0000 0.50470  0.09730  0.26510  Biso   1.000  H
  H23      1.0000 0.02440  0.58640  0.16120  Biso   1.000  H
  H24      1.0000 0.09310  0.65400  0.09440  Biso   1.000  H
  C1       1.0000 0.82770  0.07820  0.04640  Biso   1.000  C
  C2       1.0000 0.19950  0.09170  0.03780  Biso   1.000  C
  C3       1.0000 0.53060  0.34180  0.87670  Biso   1.000  C
  C4       1.0000 0.55170  0.34140  0.77470  Biso   1.000  C
  C5       1.0000 0.46900  0.34250  0.40020  Biso   1.000  C
  C6       1.0000 0.49480  0.34070  0.29900  Biso   1.000  C
  C7       1.0000 0.17230  0.57820  0.95360  Biso   1.000  C
  C8       1.0000 0.80050  0.59170  0.96220  Biso   1.000  C
  C9       1.0000 0.46940  0.84180  0.12330  Biso   1.000  C
  C10      1.0000 0.44830  0.84140  0.22530  Biso   1.000  C
  C11      1.0000 0.53100  0.84250  0.59980  Biso   1.000  C
  C12      1.0000 0.50520  0.84070  0.70100  Biso   1.000  C
  C13      1.0000 0.17230  0.92180  0.95360  Biso   1.000  C
  C14      1.0000 0.80050  0.90830  0.96220  Biso   1.000  C
  C15      1.0000 0.46940  0.65820  0.12330  Biso   1.000  C
  C16      1.0000 0.44830  0.65860  0.22530  Biso   1.000  C
  C17      1.0000 0.53100  0.65750  0.59980  Biso   1.000  C
  C18      1.0000 0.50520  0.65930  0.70100  Biso   1.000  C
  C19      1.0000 0.82770  0.42180  0.04640  Biso   1.000  C
  C20      1.0000 0.19950  0.40830  0.03780  Biso   1.000  C
  C21      1.0000 0.53060  0.15820  0.87670  Biso   1.000  C
  C22      1.0000 0.55170  0.15860  0.77470  Biso   1.000  C
  C23      1.0000 0.46900  0.15750  0.40020  Biso   1.000  C
  C24      1.0000 0.49480  0.15930  0.29900  Biso   1.000  C
  C25      1.0000 0.55470  0.25000  0.72390  Biso   1.000  C
  C26      1.0000 0.57580  0.25000  0.61500  Biso   1.000  C
  C27      1.0000 0.45930  0.25000  0.44870  Biso   1.000  C
  C28      1.0000 0.44530  0.75000  0.27610  Biso   1.000  C
  C29      1.0000 0.42420  0.75000  0.38500  Biso   1.000  C
  C30      1.0000 0.54070  0.75000  0.55130  Biso   1.000  C
  N1       1.0000 0.30550  0.13980  0.07650  Biso   1.000  N
  N2       1.0000 0.71030  0.13360  0.07770  Biso   1.000  N
  N3       1.0000 0.69450  0.63980  0.92350  Biso   1.000  N
  N4       1.0000 0.28970  0.63360  0.92230  Biso   1.000  N
  N5       1.0000 0.69450  0.86020  0.92350  Biso   1.000  N
  N6       1.0000 0.28970  0.86640  0.92230  Biso   1.000  N
  N7       1.0000 0.30550  0.36020  0.07650  Biso   1.000  N
  N8       1.0000 0.71030  0.36640  0.07770  Biso   1.000  N
  N9       1.0000 0.52380  0.25000  0.92900  Biso   1.000  N
  N10      1.0000 0.43970  0.25000  0.55900  Biso   1.000  N
  N11      1.0000 0.50570  0.25000  0.24890  Biso   1.000  N
  N12      1.0000 0.47620  0.75000  0.07100  Biso   1.000  N
  N13      1.0000 0.56030  0.75000  0.44100  Biso   1.000  N
  N14      1.0000 0.49430  0.75000  0.75110  Biso   1.000  N
  O1       1.0000 0.10010  0.90810  0.11440  Biso   1.000  O
  O2       1.0000 0.89990  0.40810  0.88560  Biso   1.000  O
  O3       1.0000 0.89990  0.09190  0.88560  Biso   1.000  O
  O4       1.0000 0.10010  0.59190  0.11440  Biso   1.000  O
  O5       1.0000 0.73120  0.25000  0.57740  Biso   1.000  O
  O6       1.0000 0.26880  0.75000  0.42260  Biso   1.000  O
