data_image0
_cell_length_a       11.44
_cell_length_b       13.7557
_cell_length_c       13.78
_cell_angle_alpha    103.234
_cell_angle_beta     90
_cell_angle_gamma    114.572

_symmetry_space_group_name_H-M    P 1
_symmetry_int_tables_number       1

loop_
  _symmetry_equiv_pos_as_xyz
  'x, y, z'

loop_
  _atom_site_label
  _atom_site_occupancy
  _atom_site_fract_x
  _atom_site_fract_y
  _atom_site_fract_z
  _atom_site_thermal_displace_type
  _atom_site_B_iso_or_equiv
  _atom_site_type_symbol
  Cd1      1.0000 0.40249  0.44542  0.36860  Biso   1.000  Cd
  Cd2      1.0000 0.95707  0.55458  0.13140  Biso   1.000  Cd
  Cd3      1.0000 0.59751  0.55458  0.63140  Biso   1.000  Cd
  Cd4      1.0000 0.04293  0.44542  0.86860  Biso   1.000  Cd
  H1       1.0000 0.27180  0.34760  0.78390  Biso   1.000  H
  H2       1.0000 0.43170  0.31340  0.84390  Biso   1.000  H
  H3       1.0000 0.20920  0.19880  0.37060  Biso   1.000  H
  H4       1.0000 0.19380  0.02680  0.37550  Biso   1.000  H
  H5       1.0000 0.58160  0.14540  0.37250  Biso   1.000  H
  H6       1.0000 0.58480  0.31280  0.36690  Biso   1.000  H
  H7       1.0000 0.24800  0.76380  0.37730  Biso   1.000  H
  H8       1.0000 0.23310  0.59140  0.38110  Biso   1.000  H
  H9       1.0000 0.60720  0.69100  0.37120  Biso   1.000  H
  H10      1.0000 0.63400  0.86480  0.36560  Biso   1.000  H
  H11      1.0000 0.92420  0.65240  0.71610  Biso   1.000  H
  H12      1.0000 0.11830  0.68660  0.65610  Biso   1.000  H
  H13      1.0000 0.01040  0.80120  0.12940  Biso   1.000  H
  H14      1.0000 0.16700  0.97320  0.12450  Biso   1.000  H
  H15      1.0000 0.43620  0.85460  0.12750  Biso   1.000  H
  H16      1.0000 0.27200  0.68720  0.13310  Biso   1.000  H
  H17      1.0000 0.48420  0.23620  0.12270  Biso   1.000  H
  H18      1.0000 0.64170  0.40860  0.11890  Biso   1.000  H
  H19      1.0000 0.91620  0.30900  0.12880  Biso   1.000  H
  H20      1.0000 0.76920  0.13520  0.13440  Biso   1.000  H
  H21      1.0000 0.72820  0.65240  0.21610  Biso   1.000  H
  H22      1.0000 0.56830  0.68660  0.15610  Biso   1.000  H
  H23      1.0000 0.79080  0.80120  0.62940  Biso   1.000  H
  H24      1.0000 0.80620  0.97320  0.62450  Biso   1.000  H
  H25      1.0000 0.41840  0.85460  0.62750  Biso   1.000  H
  H26      1.0000 0.41520  0.68720  0.63310  Biso   1.000  H
  H27      1.0000 0.75200  0.23620  0.62270  Biso   1.000  H
  H28      1.0000 0.76690  0.40860  0.61890  Biso   1.000  H
  H29      1.0000 0.39280  0.30900  0.62880  Biso   1.000  H
  H30      1.0000 0.36600  0.13520  0.63440  Biso   1.000  H
  H31      1.0000 0.07580  0.34760  0.28390  Biso   1.000  H
  H32      1.0000 0.88170  0.31340  0.34390  Biso   1.000  H
  H33      1.0000 0.98960  0.19880  0.87060  Biso   1.000  H
  H34      1.0000 0.83300  0.02680  0.87550  Biso   1.000  H
  H35      1.0000 0.56380  0.14540  0.87250  Biso   1.000  H
  H36      1.0000 0.72800  0.31280  0.86690  Biso   1.000  H
  H37      1.0000 0.51580  0.76380  0.87730  Biso   1.000  H
  H38      1.0000 0.35830  0.59140  0.88110  Biso   1.000  H
  H39      1.0000 0.08380  0.69100  0.87120  Biso   1.000  H
  H40      1.0000 0.23080  0.86480  0.86560  Biso   1.000  H
  C1       1.0000 0.32810  0.37580  0.04810  Biso   1.000  C
  C2       1.0000 0.23920  0.40600  0.01320  Biso   1.000  C
  C3       1.0000 0.28660  0.35820  0.85420  Biso   1.000  C
  C4       1.0000 0.37940  0.33460  0.88970  Biso   1.000  C
  C5       1.0000 0.34890  0.37960  0.15830  Biso   1.000  C
  C6       1.0000 0.16950  0.45980  0.08430  Biso   1.000  C
  C7       1.0000 0.28580  0.18760  0.37070  Biso   1.000  C
  C8       1.0000 0.27570  0.08520  0.37400  Biso   1.000  C
  C9       1.0000 0.38650  0.06840  0.37510  Biso   1.000  C
  C10      1.0000 0.50380  0.15460  0.37210  Biso   1.000  C
  C11      1.0000 0.50410  0.25360  0.36870  Biso   1.000  C
  C12      1.0000 0.44320  0.83380  0.37200  Biso   1.000  C
  C13      1.0000 0.32340  0.75080  0.37610  Biso   1.000  C
  C14      1.0000 0.31550  0.64820  0.37830  Biso   1.000  C
  C15      1.0000 0.53360  0.70660  0.37230  Biso   1.000  C
  C16      1.0000 0.55060  0.81000  0.36940  Biso   1.000  C
  C17      1.0000 0.95230  0.62420  0.45190  Biso   1.000  C
  C18      1.0000 0.83320  0.59400  0.48680  Biso   1.000  C
  C19      1.0000 0.92840  0.64180  0.64580  Biso   1.000  C
  C20      1.0000 0.04480  0.66540  0.61030  Biso   1.000  C
  C21      1.0000 0.96930  0.62040  0.34170  Biso   1.000  C
  C22      1.0000 0.70970  0.54020  0.41570  Biso   1.000  C
  C23      1.0000 0.09820  0.81240  0.12930  Biso   1.000  C
  C24      1.0000 0.19050  0.91480  0.12600  Biso   1.000  C
  C25      1.0000 0.31810  0.93160  0.12490  Biso   1.000  C
  C26      1.0000 0.34920  0.84540  0.12790  Biso   1.000  C
  C27      1.0000 0.25050  0.74640  0.13130  Biso   1.000  C
  C28      1.0000 0.60940  0.16620  0.12800  Biso   1.000  C
  C29      1.0000 0.57260  0.24920  0.12390  Biso   1.000  C
  C30      1.0000 0.66730  0.35180  0.12170  Biso   1.000  C
  C31      1.0000 0.82700  0.29340  0.12770  Biso   1.000  C
  C32      1.0000 0.74060  0.19000  0.13060  Biso   1.000  C
  C33      1.0000 0.67190  0.62420  0.95190  Biso   1.000  C
  C34      1.0000 0.76080  0.59400  0.98680  Biso   1.000  C
  C35      1.0000 0.71340  0.64180  0.14580  Biso   1.000  C
  C36      1.0000 0.62060  0.66540  0.11030  Biso   1.000  C
  C37      1.0000 0.65110  0.62040  0.84170  Biso   1.000  C
  C38      1.0000 0.83050  0.54020  0.91570  Biso   1.000  C
  C39      1.0000 0.71420  0.81240  0.62930  Biso   1.000  C
  C40      1.0000 0.72430  0.91480  0.62600  Biso   1.000  C
  C41      1.0000 0.61350  0.93160  0.62490  Biso   1.000  C
  C42      1.0000 0.49620  0.84540  0.62790  Biso   1.000  C
  C43      1.0000 0.49590  0.74640  0.63130  Biso   1.000  C
  C44      1.0000 0.55680  0.16620  0.62800  Biso   1.000  C
  C45      1.0000 0.67660  0.24920  0.62390  Biso   1.000  C
  C46      1.0000 0.68450  0.35180  0.62170  Biso   1.000  C
  C47      1.0000 0.46640  0.29340  0.62770  Biso   1.000  C
  C48      1.0000 0.44940  0.19000  0.63060  Biso   1.000  C
  C49      1.0000 0.04770  0.37580  0.54810  Biso   1.000  C
  C50      1.0000 0.16680  0.40600  0.51320  Biso   1.000  C
  C51      1.0000 0.07160  0.35820  0.35420  Biso   1.000  C
  C52      1.0000 0.95520  0.33460  0.38970  Biso   1.000  C
  C53      1.0000 0.03070  0.37960  0.65830  Biso   1.000  C
  C54      1.0000 0.29030  0.45980  0.58430  Biso   1.000  C
  C55      1.0000 0.90180  0.18760  0.87070  Biso   1.000  C
  C56      1.0000 0.80950  0.08520  0.87400  Biso   1.000  C
  C57      1.0000 0.68190  0.06840  0.87510  Biso   1.000  C
  C58      1.0000 0.65080  0.15460  0.87210  Biso   1.000  C
  C59      1.0000 0.74950  0.25360  0.86870  Biso   1.000  C
  C60      1.0000 0.39060  0.83380  0.87200  Biso   1.000  C
  C61      1.0000 0.42740  0.75080  0.87610  Biso   1.000  C
  C62      1.0000 0.33270  0.64820  0.87830  Biso   1.000  C
  C63      1.0000 0.17300  0.70660  0.87230  Biso   1.000  C
  C64      1.0000 0.25940  0.81000  0.86940  Biso   1.000  C
  N1       1.0000 0.40060  0.34000  0.98660  Biso   1.000  N
  N2       1.0000 0.21510  0.39600  0.91460  Biso   1.000  N
  N3       1.0000 0.39830  0.27220  0.36770  Biso   1.000  N
  N4       1.0000 0.41740  0.62520  0.37680  Biso   1.000  N
  N5       1.0000 0.36790  0.96000  0.38050  Biso   1.000  N
  N6       1.0000 0.46540  0.94380  0.37080  Biso   1.000  N
  N7       1.0000 0.06060  0.66000  0.51340  Biso   1.000  N
  N8       1.0000 0.81910  0.60400  0.58540  Biso   1.000  N
  N9       1.0000 0.12610  0.72780  0.13230  Biso   1.000  N
  N10      1.0000 0.79220  0.37480  0.12320  Biso   1.000  N
  N11      1.0000 0.40790  0.04000  0.11950  Biso   1.000  N
  N12      1.0000 0.52160  0.05620  0.12920  Biso   1.000  N
  N13      1.0000 0.59940  0.66000  0.01340  Biso   1.000  N
  N14      1.0000 0.78490  0.60400  0.08540  Biso   1.000  N
  N15      1.0000 0.60170  0.72780  0.63230  Biso   1.000  N
  N16      1.0000 0.58260  0.37480  0.62320  Biso   1.000  N
  N17      1.0000 0.63210  0.04000  0.61950  Biso   1.000  N
  N18      1.0000 0.53460  0.05620  0.62920  Biso   1.000  N
  N19      1.0000 0.93940  0.34000  0.48660  Biso   1.000  N
  N20      1.0000 0.18090  0.39600  0.41460  Biso   1.000  N
  N21      1.0000 0.87390  0.27220  0.86770  Biso   1.000  N
  N22      1.0000 0.20780  0.62520  0.87680  Biso   1.000  N
  N23      1.0000 0.59210  0.96000  0.88050  Biso   1.000  N
  N24      1.0000 0.47840  0.94380  0.87080  Biso   1.000  N
  O1       1.0000 0.44930  0.45200  0.20770  Biso   1.000  O
  O2       1.0000 0.26160  0.30820  0.19050  Biso   1.000  O
  O3       1.0000 0.21000  0.49440  0.17160  Biso   1.000  O
  O4       1.0000 0.07520  0.46920  0.04530  Biso   1.000  O
  O5       1.0000 0.99730  0.54800  0.29230  Biso   1.000  O
  O6       1.0000 0.95340  0.69180  0.30950  Biso   1.000  O
  O7       1.0000 0.71560  0.50560  0.32840  Biso   1.000  O
  O8       1.0000 0.60600  0.53080  0.45470  Biso   1.000  O
  O9       1.0000 0.55070  0.54800  0.79230  Biso   1.000  O
  O10      1.0000 0.73840  0.69180  0.80950  Biso   1.000  O
  O11      1.0000 0.79000  0.50560  0.82840  Biso   1.000  O
  O12      1.0000 0.92480  0.53080  0.95470  Biso   1.000  O
  O13      1.0000 0.00270  0.45200  0.70770  Biso   1.000  O
  O14      1.0000 0.04660  0.30820  0.69050  Biso   1.000  O
  O15      1.0000 0.28440  0.49440  0.67160  Biso   1.000  O
  O16      1.0000 0.39400  0.46920  0.54530  Biso   1.000  O
