data_image0
_cell_length_a       11.215
_cell_length_b       13.983
_cell_length_c       13.9973
_cell_angle_alpha    104.264
_cell_angle_beta     113.617
_cell_angle_gamma    90

_symmetry_space_group_name_H-M    P 1
_symmetry_int_tables_number       1

loop_
  _symmetry_equiv_pos_as_xyz
  'x, y, z'

loop_
  _atom_site_label
  _atom_site_occupancy
  _atom_site_fract_x
  _atom_site_fract_y
  _atom_site_fract_z
  _atom_site_thermal_displace_type
  _atom_site_B_iso_or_equiv
  _atom_site_type_symbol
  Cd1      1.0000 0.90316  0.36723  0.44852  Biso   1.000  Cd
  Cd2      1.0000 0.45464  0.13277  0.55148  Biso   1.000  Cd
  H1       1.0000 0.78800  0.78330  0.35900  Biso   1.000  H
  H2       1.0000 0.95100  0.84350  0.32160  Biso   1.000  H
  H3       1.0000 0.08830  0.37030  0.31880  Biso   1.000  H
  H4       1.0000 0.08480  0.38130  0.15640  Biso   1.000  H
  H5       1.0000 0.69050  0.36910  0.04020  Biso   1.000  H
  H6       1.0000 0.70750  0.36110  0.20920  Biso   1.000  H
  H7       1.0000 0.14960  0.37590  0.85900  Biso   1.000  H
  H8       1.0000 0.11450  0.37360  0.68340  Biso   1.000  H
  H9       1.0000 0.73430  0.37180  0.59220  Biso   1.000  H
  H10      1.0000 0.75620  0.37200  0.76340  Biso   1.000  H
  H11      1.0000 0.78800  0.37660  0.92460  Biso   1.000  H
  H12      1.0000 0.05800  0.38040  0.99420  Biso   1.000  H
  H13      1.0000 0.42900  0.71670  0.64100  Biso   1.000  H
  H14      1.0000 0.62940  0.65650  0.67840  Biso   1.000  H
  H15      1.0000 0.76950  0.12970  0.68120  Biso   1.000  H
  H16      1.0000 0.92840  0.11870  0.84360  Biso   1.000  H
  H17      1.0000 0.65030  0.13090  0.95980  Biso   1.000  H
  H18      1.0000 0.49830  0.13890  0.79080  Biso   1.000  H
  H19      1.0000 0.29060  0.12410  0.14100  Biso   1.000  H
  H20      1.0000 0.43110  0.12640  0.31660  Biso   1.000  H
  H21      1.0000 0.14210  0.12820  0.40780  Biso   1.000  H
  H22      1.0000 0.99280  0.12800  0.23660  Biso   1.000  H
  H23      1.0000 0.86340  0.12340  0.07540  Biso   1.000  H
  H24      1.0000 0.06380  0.11960  0.00580  Biso   1.000  H
  C1       1.0000 0.82810  0.04120  0.36820  Biso   1.000  C
  C2       1.0000 0.73970  0.01040  0.40340  Biso   1.000  C
  C3       1.0000 0.80010  0.85200  0.36620  Biso   1.000  C
  C4       1.0000 0.89530  0.88800  0.34060  Biso   1.000  C
  C5       1.0000 0.83950  0.14600  0.36100  Biso   1.000  C
  C6       1.0000 0.66640  0.08300  0.45280  Biso   1.000  C
  C7       1.0000 0.00570  0.37050  0.26140  Biso   1.000  C
  C8       1.0000 0.00530  0.37700  0.16460  Biso   1.000  C
  C9       1.0000 0.88830  0.37800  0.08060  Biso   1.000  C
  C10      1.0000 0.77440  0.37000  0.09680  Biso   1.000  C
  C11      1.0000 0.78510  0.36500  0.19820  Biso   1.000  C
  C12      1.0000 0.95220  0.37540  0.82840  Biso   1.000  C
  C13      1.0000 0.06370  0.37500  0.80540  Biso   1.000  C
  C14      1.0000 0.04180  0.37370  0.70160  Biso   1.000  C
  C15      1.0000 0.81850  0.37200  0.64700  Biso   1.000  C
  C16      1.0000 0.83130  0.37300  0.74860  Biso   1.000  C
  C17      1.0000 0.87430  0.37700  0.97660  Biso   1.000  C
  C18      1.0000 0.97120  0.37800  0.94240  Biso   1.000  C
  C19      1.0000 0.45990  0.45880  0.63180  Biso   1.000  C
  C20      1.0000 0.33630  0.48960  0.59660  Biso   1.000  C
  C21      1.0000 0.43390  0.64800  0.63380  Biso   1.000  C
  C22      1.0000 0.55470  0.61200  0.65940  Biso   1.000  C
  C23      1.0000 0.47850  0.35400  0.63900  Biso   1.000  C
  C24      1.0000 0.21360  0.41700  0.54720  Biso   1.000  C
  C25      1.0000 0.74430  0.12950  0.73860  Biso   1.000  C
  C26      1.0000 0.84070  0.12300  0.83540  Biso   1.000  C
  C27      1.0000 0.80770  0.12200  0.91940  Biso   1.000  C
  C28      1.0000 0.67760  0.13000  0.90320  Biso   1.000  C
  C29      1.0000 0.58690  0.13500  0.80180  Biso   1.000  C
  C30      1.0000 0.12380  0.12460  0.17160  Biso   1.000  C
  C31      1.0000 0.25830  0.12500  0.19460  Biso   1.000  C
  C32      1.0000 0.34020  0.12630  0.29840  Biso   1.000  C
  C33      1.0000 0.17150  0.12800  0.35300  Biso   1.000  C
  C34      1.0000 0.08270  0.12700  0.25140  Biso   1.000  C
  C35      1.0000 0.89770  0.12300  0.02340  Biso   1.000  C
  C36      1.0000 0.02880  0.12200  0.05760  Biso   1.000  C
  N1       1.0000 0.91060  0.98290  0.34120  Biso   1.000  N
  N2       1.0000 0.72320  0.91430  0.40200  Biso   1.000  N
  N3       1.0000 0.89820  0.36430  0.28040  Biso   1.000  N
  N4       1.0000 0.92160  0.37240  0.62400  Biso   1.000  N
  N5       1.0000 0.56940  0.51710  0.65880  Biso   1.000  N
  N6       1.0000 0.32120  0.58570  0.59800  Biso   1.000  N
  N7       1.0000 0.61780  0.13570  0.71960  Biso   1.000  N
  N8       1.0000 0.29760  0.12760  0.37600  Biso   1.000  N
  O1       1.0000 0.92960  0.20510  0.43520  Biso   1.000  O
  O2       1.0000 0.76070  0.16700  0.28340  Biso   1.000  O
  O3       1.0000 0.68340  0.16630  0.46080  Biso   1.000  O
  O4       1.0000 0.58350  0.04360  0.47480  Biso   1.000  O
  O5       1.0000 0.49440  0.29490  0.56480  Biso   1.000  O
  O6       1.0000 0.47730  0.33300  0.71660  Biso   1.000  O
  O7       1.0000 0.22260  0.33370  0.53920  Biso   1.000  O
  O8       1.0000 0.10870  0.45640  0.52520  Biso   1.000  O
  Cd3      1.0000 0.09684  0.63277  0.55148  Biso   1.000  Cd
  Cd4      1.0000 0.54536  0.86723  0.44852  Biso   1.000  Cd
  H25      1.0000 0.21200  0.21670  0.64100  Biso   1.000  H
  H26      1.0000 0.04900  0.15650  0.67840  Biso   1.000  H
  H27      1.0000 0.91170  0.62970  0.68120  Biso   1.000  H
  H28      1.0000 0.91520  0.61870  0.84360  Biso   1.000  H
  H29      1.0000 0.30950  0.63090  0.95980  Biso   1.000  H
  H30      1.0000 0.29250  0.63890  0.79080  Biso   1.000  H
  H31      1.0000 0.85040  0.62410  0.14100  Biso   1.000  H
  H32      1.0000 0.88550  0.62640  0.31660  Biso   1.000  H
  H33      1.0000 0.26570  0.62820  0.40780  Biso   1.000  H
  H34      1.0000 0.24380  0.62800  0.23660  Biso   1.000  H
  H35      1.0000 0.21200  0.62340  0.07540  Biso   1.000  H
  H36      1.0000 0.94200  0.61960  0.00580  Biso   1.000  H
  H37      1.0000 0.57100  0.28330  0.35900  Biso   1.000  H
  H38      1.0000 0.37060  0.34350  0.32160  Biso   1.000  H
  H39      1.0000 0.23050  0.87030  0.31880  Biso   1.000  H
  H40      1.0000 0.07160  0.88130  0.15640  Biso   1.000  H
  H41      1.0000 0.34970  0.86910  0.04020  Biso   1.000  H
  H42      1.0000 0.50170  0.86110  0.20920  Biso   1.000  H
  H43      1.0000 0.70940  0.87590  0.85900  Biso   1.000  H
  H44      1.0000 0.56890  0.87360  0.68340  Biso   1.000  H
  H45      1.0000 0.85790  0.87180  0.59220  Biso   1.000  H
  H46      1.0000 0.00720  0.87200  0.76340  Biso   1.000  H
  H47      1.0000 0.13660  0.87660  0.92460  Biso   1.000  H
  H48      1.0000 0.93620  0.88040  0.99420  Biso   1.000  H
  C37      1.0000 0.17190  0.95880  0.63180  Biso   1.000  C
  C38      1.0000 0.26030  0.98960  0.59660  Biso   1.000  C
  C39      1.0000 0.19990  0.14800  0.63380  Biso   1.000  C
  C40      1.0000 0.10470  0.11200  0.65940  Biso   1.000  C
  C41      1.0000 0.16050  0.85400  0.63900  Biso   1.000  C
  C42      1.0000 0.33360  0.91700  0.54720  Biso   1.000  C
  C43      1.0000 0.99430  0.62950  0.73860  Biso   1.000  C
  C44      1.0000 0.99470  0.62300  0.83540  Biso   1.000  C
  C45      1.0000 0.11170  0.62200  0.91940  Biso   1.000  C
  C46      1.0000 0.22560  0.63000  0.90320  Biso   1.000  C
  C47      1.0000 0.21490  0.63500  0.80180  Biso   1.000  C
  C48      1.0000 0.04780  0.62460  0.17160  Biso   1.000  C
  C49      1.0000 0.93630  0.62500  0.19460  Biso   1.000  C
  C50      1.0000 0.95820  0.62630  0.29840  Biso   1.000  C
  C51      1.0000 0.18150  0.62800  0.35300  Biso   1.000  C
  C52      1.0000 0.16870  0.62700  0.25140  Biso   1.000  C
  C53      1.0000 0.12570  0.62300  0.02340  Biso   1.000  C
  C54      1.0000 0.02880  0.62200  0.05760  Biso   1.000  C
  C55      1.0000 0.54010  0.54120  0.36820  Biso   1.000  C
  C56      1.0000 0.66370  0.51040  0.40340  Biso   1.000  C
  C57      1.0000 0.56610  0.35200  0.36620  Biso   1.000  C
  C58      1.0000 0.44530  0.38800  0.34060  Biso   1.000  C
  C59      1.0000 0.52150  0.64600  0.36100  Biso   1.000  C
  C60      1.0000 0.78640  0.58300  0.45280  Biso   1.000  C
  C61      1.0000 0.25570  0.87050  0.26140  Biso   1.000  C
  C62      1.0000 0.15930  0.87700  0.16460  Biso   1.000  C
  C63      1.0000 0.19230  0.87800  0.08060  Biso   1.000  C
  C64      1.0000 0.32240  0.87000  0.09680  Biso   1.000  C
  C65      1.0000 0.41310  0.86500  0.19820  Biso   1.000  C
  C66      1.0000 0.87620  0.87540  0.82840  Biso   1.000  C
  C67      1.0000 0.74170  0.87500  0.80540  Biso   1.000  C
  C68      1.0000 0.65980  0.87370  0.70160  Biso   1.000  C
  C69      1.0000 0.82850  0.87200  0.64700  Biso   1.000  C
  C70      1.0000 0.91730  0.87300  0.74860  Biso   1.000  C
  C71      1.0000 0.10230  0.87700  0.97660  Biso   1.000  C
  C72      1.0000 0.97120  0.87800  0.94240  Biso   1.000  C
  N9       1.0000 0.08940  0.01710  0.65880  Biso   1.000  N
  N10      1.0000 0.27680  0.08570  0.59800  Biso   1.000  N
  N11      1.0000 0.10180  0.63570  0.71960  Biso   1.000  N
  N12      1.0000 0.07840  0.62760  0.37600  Biso   1.000  N
  N13      1.0000 0.43060  0.48290  0.34120  Biso   1.000  N
  N14      1.0000 0.67880  0.41430  0.40200  Biso   1.000  N
  N15      1.0000 0.38220  0.86430  0.28040  Biso   1.000  N
  N16      1.0000 0.70240  0.87240  0.62400  Biso   1.000  N
  O9       1.0000 0.07040  0.79490  0.56480  Biso   1.000  O
  O10      1.0000 0.23930  0.83300  0.71660  Biso   1.000  O
  O11      1.0000 0.31660  0.83370  0.53920  Biso   1.000  O
  O12      1.0000 0.41650  0.95640  0.52520  Biso   1.000  O
  O13      1.0000 0.50560  0.70510  0.43520  Biso   1.000  O
  O14      1.0000 0.52270  0.66700  0.28340  Biso   1.000  O
  O15      1.0000 0.77740  0.66630  0.46080  Biso   1.000  O
  O16      1.0000 0.89130  0.54360  0.47480  Biso   1.000  O
