data_image0
_cell_length_a       10.3197
_cell_length_b       10.3197
_cell_length_c       14.0444
_cell_angle_alpha    90
_cell_angle_beta     90
_cell_angle_gamma    90

_symmetry_space_group_name_H-M    P 1
_symmetry_int_tables_number       1

loop_
  _symmetry_equiv_pos_as_xyz
  'x, y, z'

loop_
  _atom_site_label
  _atom_site_occupancy
  _atom_site_fract_x
  _atom_site_fract_y
  _atom_site_fract_z
  _atom_site_thermal_displace_type
  _atom_site_B_iso_or_equiv
  _atom_site_type_symbol
  Gd1      1.0000 0.13679  0.87104  0.91626  Biso   1.000  Gd
  Gd2      1.0000 0.86321  0.12896  0.41626  Biso   1.000  Gd
  Gd3      1.0000 0.12896  0.13679  0.66626  Biso   1.000  Gd
  Gd4      1.0000 0.87104  0.86321  0.16626  Biso   1.000  Gd
  H1       1.0000 0.30520  0.76520  0.78360  Biso   1.000  H
  H2       1.0000 0.99400  0.45440  0.19990  Biso   1.000  H
  H3       1.0000 0.00840  0.11620  0.04940  Biso   1.000  H
  H4       1.0000 0.09520  0.45240  0.92170  Biso   1.000  H
  H5       1.0000 0.19100  0.56200  0.81550  Biso   1.000  H
  H6       1.0000 0.30650  0.58240  0.74090  Biso   1.000  H
  H7       1.0000 0.36230  0.42070  0.84480  Biso   1.000  H
  H8       1.0000 0.45570  0.54200  0.86280  Biso   1.000  H
  H9       1.0000 0.33770  0.51420  0.93390  Biso   1.000  H
  H10      1.0000 0.69480  0.23480  0.28360  Biso   1.000  H
  H11      1.0000 0.00600  0.54560  0.69990  Biso   1.000  H
  H12      1.0000 0.99160  0.88380  0.54940  Biso   1.000  H
  H13      1.0000 0.90480  0.54760  0.42170  Biso   1.000  H
  H14      1.0000 0.80900  0.43800  0.31550  Biso   1.000  H
  H15      1.0000 0.69350  0.41760  0.24090  Biso   1.000  H
  H16      1.0000 0.63770  0.57930  0.34480  Biso   1.000  H
  H17      1.0000 0.54430  0.45800  0.36280  Biso   1.000  H
  H18      1.0000 0.66230  0.48580  0.43390  Biso   1.000  H
  H19      1.0000 0.23480  0.30520  0.53360  Biso   1.000  H
  H20      1.0000 0.54560  0.99400  0.94990  Biso   1.000  H
  H21      1.0000 0.88380  0.00840  0.79940  Biso   1.000  H
  H22      1.0000 0.54760  0.09520  0.67170  Biso   1.000  H
  H23      1.0000 0.43800  0.19100  0.56550  Biso   1.000  H
  H24      1.0000 0.41760  0.30650  0.49090  Biso   1.000  H
  H25      1.0000 0.57930  0.36230  0.59480  Biso   1.000  H
  H26      1.0000 0.45800  0.45570  0.61280  Biso   1.000  H
  H27      1.0000 0.48580  0.33770  0.68390  Biso   1.000  H
  H28      1.0000 0.76520  0.69480  0.03360  Biso   1.000  H
  H29      1.0000 0.45440  0.00600  0.44990  Biso   1.000  H
  H30      1.0000 0.11620  0.99160  0.29940  Biso   1.000  H
  H31      1.0000 0.45240  0.90480  0.17170  Biso   1.000  H
  H32      1.0000 0.56200  0.80900  0.06550  Biso   1.000  H
  H33      1.0000 0.58240  0.69350  0.99090  Biso   1.000  H
  H34      1.0000 0.42070  0.63770  0.09480  Biso   1.000  H
  H35      1.0000 0.54200  0.54430  0.11280  Biso   1.000  H
  H36      1.0000 0.51420  0.66230  0.18390  Biso   1.000  H
  C1       1.0000 0.04480  0.62260  0.05850  Biso   1.000  C
  C2       1.0000 0.95830  0.20020  0.22770  Biso   1.000  C
  C3       1.0000 0.07720  0.20130  0.88330  Biso   1.000  C
  C4       1.0000 0.04400  0.47500  0.05910  Biso   1.000  C
  C5       1.0000 0.00890  0.40810  0.14250  Biso   1.000  C
  C6       1.0000 0.99580  0.27230  0.14060  Biso   1.000  C
  C7       1.0000 0.01840  0.20760  0.05270  Biso   1.000  C
  C8       1.0000 0.05370  0.27340  0.97410  Biso   1.000  C
  C9       1.0000 0.06820  0.40730  0.97720  Biso   1.000  C
  C10      1.0000 0.28160  0.59190  0.80860  Biso   1.000  C
  C11      1.0000 0.36640  0.51050  0.86740  Biso   1.000  C
  C12      1.0000 0.95520  0.37740  0.55850  Biso   1.000  C
  C13      1.0000 0.04170  0.79980  0.72770  Biso   1.000  C
  C14      1.0000 0.92280  0.79870  0.38330  Biso   1.000  C
  C15      1.0000 0.95600  0.52500  0.55910  Biso   1.000  C
  C16      1.0000 0.99110  0.59190  0.64250  Biso   1.000  C
  C17      1.0000 0.00420  0.72770  0.64060  Biso   1.000  C
  C18      1.0000 0.98160  0.79240  0.55270  Biso   1.000  C
  C19      1.0000 0.94630  0.72660  0.47410  Biso   1.000  C
  C20      1.0000 0.93180  0.59270  0.47720  Biso   1.000  C
  C21      1.0000 0.71840  0.40810  0.30860  Biso   1.000  C
  C22      1.0000 0.63360  0.48950  0.36740  Biso   1.000  C
  C23      1.0000 0.37740  0.04480  0.80850  Biso   1.000  C
  C24      1.0000 0.79980  0.95830  0.97770  Biso   1.000  C
  C25      1.0000 0.79870  0.07720  0.63330  Biso   1.000  C
  C26      1.0000 0.52500  0.04400  0.80910  Biso   1.000  C
  C27      1.0000 0.59190  0.00890  0.89250  Biso   1.000  C
  C28      1.0000 0.72770  0.99580  0.89060  Biso   1.000  C
  C29      1.0000 0.79240  0.01840  0.80270  Biso   1.000  C
  C30      1.0000 0.72660  0.05370  0.72410  Biso   1.000  C
  C31      1.0000 0.59270  0.06820  0.72720  Biso   1.000  C
  C32      1.0000 0.40810  0.28160  0.55860  Biso   1.000  C
  C33      1.0000 0.48950  0.36640  0.61740  Biso   1.000  C
  C34      1.0000 0.62260  0.95520  0.30850  Biso   1.000  C
  C35      1.0000 0.20020  0.04170  0.47770  Biso   1.000  C
  C36      1.0000 0.20130  0.92280  0.13330  Biso   1.000  C
  C37      1.0000 0.47500  0.95600  0.30910  Biso   1.000  C
  C38      1.0000 0.40810  0.99110  0.39250  Biso   1.000  C
  C39      1.0000 0.27230  0.00420  0.39060  Biso   1.000  C
  C40      1.0000 0.20760  0.98160  0.30270  Biso   1.000  C
  C41      1.0000 0.27340  0.94630  0.22410  Biso   1.000  C
  C42      1.0000 0.40730  0.93180  0.22720  Biso   1.000  C
  C43      1.0000 0.59190  0.71840  0.05860  Biso   1.000  C
  C44      1.0000 0.51050  0.63360  0.11740  Biso   1.000  C
  O1       1.0000 0.10710  0.67500  0.99410  Biso   1.000  O
  O2       1.0000 0.97910  0.67400  0.12380  Biso   1.000  O
  O3       1.0000 0.99180  0.25200  0.30900  Biso   1.000  O
  O4       1.0000 0.89520  0.09430  0.22450  Biso   1.000  O
  O5       1.0000 0.07200  0.07890  0.88510  Biso   1.000  O
  O6       1.0000 0.09290  0.26180  0.80760  Biso   1.000  O
  O7       1.0000 0.28950  0.72720  0.83520  Biso   1.000  O
  O8       1.0000 0.89290  0.32500  0.49410  Biso   1.000  O
  O9       1.0000 0.02090  0.32600  0.62380  Biso   1.000  O
  O10      1.0000 0.00820  0.74800  0.80900  Biso   1.000  O
  O11      1.0000 0.10480  0.90570  0.72450  Biso   1.000  O
  O12      1.0000 0.92800  0.92110  0.38510  Biso   1.000  O
  O13      1.0000 0.90710  0.73820  0.30760  Biso   1.000  O
  O14      1.0000 0.71050  0.27280  0.33520  Biso   1.000  O
  O15      1.0000 0.32500  0.10710  0.74410  Biso   1.000  O
  O16      1.0000 0.32600  0.97910  0.87380  Biso   1.000  O
  O17      1.0000 0.74800  0.99180  0.05900  Biso   1.000  O
  O18      1.0000 0.90570  0.89520  0.97450  Biso   1.000  O
  O19      1.0000 0.92110  0.07200  0.63510  Biso   1.000  O
  O20      1.0000 0.73820  0.09290  0.55760  Biso   1.000  O
  O21      1.0000 0.27280  0.28950  0.58520  Biso   1.000  O
  O22      1.0000 0.67500  0.89290  0.24410  Biso   1.000  O
  O23      1.0000 0.67400  0.02090  0.37380  Biso   1.000  O
  O24      1.0000 0.25200  0.00820  0.55900  Biso   1.000  O
  O25      1.0000 0.09430  0.10480  0.47450  Biso   1.000  O
  O26      1.0000 0.07890  0.92800  0.13510  Biso   1.000  O
  O27      1.0000 0.26180  0.90710  0.05760  Biso   1.000  O
  O28      1.0000 0.72720  0.71050  0.08520  Biso   1.000  O
