data_image0
_cell_length_a       10.471
_cell_length_b       10.471
_cell_length_c       14.645
_cell_angle_alpha    90
_cell_angle_beta     90
_cell_angle_gamma    90

_symmetry_space_group_name_H-M    P 1
_symmetry_int_tables_number       1

loop_
  _symmetry_equiv_pos_as_xyz
  'x, y, z'

loop_
  _atom_site_label
  _atom_site_occupancy
  _atom_site_fract_x
  _atom_site_fract_y
  _atom_site_fract_z
  _atom_site_thermal_displace_type
  _atom_site_B_iso_or_equiv
  _atom_site_type_symbol
  Gd1      1.0000 0.14273  0.85727  0.87500  Biso   1.000  Gd
  Gd2      1.0000 0.85727  0.14273  0.37500  Biso   1.000  Gd
  Gd3      1.0000 0.14273  0.14273  0.62500  Biso   1.000  Gd
  Gd4      1.0000 0.85727  0.85727  0.12500  Biso   1.000  Gd
  H1       1.0000 0.06430  0.44400  0.86920  Biso   1.000  H
  H2       1.0000 0.93570  0.55600  0.36920  Biso   1.000  H
  H3       1.0000 0.55600  0.06430  0.61920  Biso   1.000  H
  H4       1.0000 0.44400  0.93570  0.11920  Biso   1.000  H
  H5       1.0000 0.93570  0.44400  0.13080  Biso   1.000  H
  H6       1.0000 0.06430  0.55600  0.63080  Biso   1.000  H
  H7       1.0000 0.44400  0.06430  0.38080  Biso   1.000  H
  H8       1.0000 0.55600  0.93570  0.88080  Biso   1.000  H
  H9       1.0000 0.00000  0.10950  0.00000  Biso   1.000  H
  H10      1.0000 0.00000  0.89050  0.50000  Biso   1.000  H
  H11      1.0000 0.89050  0.00000  0.75000  Biso   1.000  H
  H12      1.0000 0.10950  0.00000  0.25000  Biso   1.000  H
  C1       1.0000 0.07550  0.18970  0.83670  Biso   1.000  C
  C2       1.0000 0.03840  0.39950  0.92090  Biso   1.000  C
  C3       1.0000 0.03760  0.26490  0.92060  Biso   1.000  C
  C4       1.0000 0.92450  0.81030  0.33670  Biso   1.000  C
  C5       1.0000 0.96160  0.60050  0.42090  Biso   1.000  C
  C6       1.0000 0.96240  0.73510  0.42060  Biso   1.000  C
  C7       1.0000 0.81030  0.07550  0.58670  Biso   1.000  C
  C8       1.0000 0.60050  0.03840  0.67090  Biso   1.000  C
  C9       1.0000 0.73510  0.03760  0.67060  Biso   1.000  C
  C10      1.0000 0.18970  0.92450  0.08670  Biso   1.000  C
  C11      1.0000 0.39950  0.96160  0.17090  Biso   1.000  C
  C12      1.0000 0.26490  0.96240  0.17060  Biso   1.000  C
  C13      1.0000 0.92450  0.18970  0.16330  Biso   1.000  C
  C14      1.0000 0.96160  0.39950  0.07910  Biso   1.000  C
  C15      1.0000 0.96240  0.26490  0.07940  Biso   1.000  C
  C16      1.0000 0.07550  0.81030  0.66330  Biso   1.000  C
  C17      1.0000 0.03840  0.60050  0.57910  Biso   1.000  C
  C18      1.0000 0.03760  0.73510  0.57940  Biso   1.000  C
  C19      1.0000 0.18970  0.07550  0.41330  Biso   1.000  C
  C20      1.0000 0.39950  0.03840  0.32910  Biso   1.000  C
  C21      1.0000 0.26490  0.03760  0.32940  Biso   1.000  C
  C22      1.0000 0.81030  0.92450  0.91330  Biso   1.000  C
  C23      1.0000 0.60050  0.96160  0.82910  Biso   1.000  C
  C24      1.0000 0.73510  0.96240  0.82940  Biso   1.000  C
  C25      1.0000 0.00000  0.61270  0.00000  Biso   1.000  C
  C26      1.0000 0.00000  0.46690  0.00000  Biso   1.000  C
  C27      1.0000 0.00000  0.19830  0.00000  Biso   1.000  C
  C28      1.0000 0.00000  0.38730  0.50000  Biso   1.000  C
  C29      1.0000 0.00000  0.53310  0.50000  Biso   1.000  C
  C30      1.0000 0.00000  0.80170  0.50000  Biso   1.000  C
  C31      1.0000 0.38730  0.00000  0.75000  Biso   1.000  C
  C32      1.0000 0.53310  0.00000  0.75000  Biso   1.000  C
  C33      1.0000 0.80170  0.00000  0.75000  Biso   1.000  C
  C34      1.0000 0.61270  0.00000  0.25000  Biso   1.000  C
  C35      1.0000 0.46690  0.00000  0.25000  Biso   1.000  C
  C36      1.0000 0.19830  0.00000  0.25000  Biso   1.000  C
  O1       1.0000 0.06860  0.66820  0.94080  Biso   1.000  O
  O2       1.0000 0.07570  0.24750  0.76070  Biso   1.000  O
  O3       1.0000 0.10280  0.07620  0.84300  Biso   1.000  O
  O4       1.0000 0.93140  0.33180  0.44080  Biso   1.000  O
  O5       1.0000 0.92430  0.75250  0.26070  Biso   1.000  O
  O6       1.0000 0.89720  0.92380  0.34300  Biso   1.000  O
  O7       1.0000 0.33180  0.06860  0.69080  Biso   1.000  O
  O8       1.0000 0.75250  0.07570  0.51070  Biso   1.000  O
  O9       1.0000 0.92380  0.10280  0.59300  Biso   1.000  O
  O10      1.0000 0.66820  0.93140  0.19080  Biso   1.000  O
  O11      1.0000 0.24750  0.92430  0.01070  Biso   1.000  O
  O12      1.0000 0.07620  0.89720  0.09300  Biso   1.000  O
  O13      1.0000 0.93140  0.66820  0.05920  Biso   1.000  O
  O14      1.0000 0.92430  0.24750  0.23930  Biso   1.000  O
  O15      1.0000 0.89720  0.07620  0.15700  Biso   1.000  O
  O16      1.0000 0.06860  0.33180  0.55920  Biso   1.000  O
  O17      1.0000 0.07570  0.75250  0.73930  Biso   1.000  O
  O18      1.0000 0.10280  0.92380  0.65700  Biso   1.000  O
  O19      1.0000 0.66820  0.06860  0.30920  Biso   1.000  O
  O20      1.0000 0.24750  0.07570  0.48930  Biso   1.000  O
  O21      1.0000 0.07620  0.10280  0.40700  Biso   1.000  O
  O22      1.0000 0.33180  0.93140  0.80920  Biso   1.000  O
  O23      1.0000 0.75250  0.92430  0.98930  Biso   1.000  O
  O24      1.0000 0.92380  0.89720  0.90700  Biso   1.000  O
  O25      1.0000 0.31160  0.68840  0.87500  Biso   1.000  O
  O26      1.0000 0.68840  0.31160  0.37500  Biso   1.000  O
  O27      1.0000 0.31160  0.31160  0.62500  Biso   1.000  O
  O28      1.0000 0.68840  0.68840  0.12500  Biso   1.000  O
