data_image0
_cell_length_a       10.339
_cell_length_b       10.339
_cell_length_c       14.057
_cell_angle_alpha    90
_cell_angle_beta     90
_cell_angle_gamma    90

_symmetry_space_group_name_H-M    P 1
_symmetry_int_tables_number       1

loop_
  _symmetry_equiv_pos_as_xyz
  'x, y, z'

loop_
  _atom_site_label
  _atom_site_occupancy
  _atom_site_fract_x
  _atom_site_fract_y
  _atom_site_fract_z
  _atom_site_thermal_displace_type
  _atom_site_B_iso_or_equiv
  _atom_site_type_symbol
  Gd1      1.0000 0.87197  0.86350  0.83391  Biso   1.000  Gd
  Gd2      1.0000 0.12803  0.13650  0.33391  Biso   1.000  Gd
  Gd3      1.0000 0.13650  0.87197  0.08391  Biso   1.000  Gd
  Gd4      1.0000 0.86350  0.12803  0.58391  Biso   1.000  Gd
  H1       1.0000 0.76720  0.69500  0.96780  Biso   1.000  H
  H2       1.0000 0.11550  0.99160  0.69740  Biso   1.000  H
  H3       1.0000 0.45330  0.90310  0.82820  Biso   1.000  H
  H4       1.0000 0.45250  0.00580  0.54870  Biso   1.000  H
  H5       1.0000 0.58300  0.69820  0.01170  Biso   1.000  H
  H6       1.0000 0.56330  0.81180  0.93550  Biso   1.000  H
  H7       1.0000 0.42100  0.63870  0.90410  Biso   1.000  H
  H8       1.0000 0.51840  0.65850  0.81680  Biso   1.000  H
  H9       1.0000 0.54190  0.54370  0.89120  Biso   1.000  H
  H10      1.0000 0.23280  0.30500  0.46780  Biso   1.000  H
  H11      1.0000 0.88450  0.00840  0.19740  Biso   1.000  H
  H12      1.0000 0.54670  0.09690  0.32820  Biso   1.000  H
  H13      1.0000 0.54750  0.99420  0.04870  Biso   1.000  H
  H14      1.0000 0.41700  0.30180  0.51170  Biso   1.000  H
  H15      1.0000 0.43670  0.18820  0.43550  Biso   1.000  H
  H16      1.0000 0.57900  0.36130  0.40410  Biso   1.000  H
  H17      1.0000 0.48160  0.34150  0.31680  Biso   1.000  H
  H18      1.0000 0.45810  0.45630  0.39120  Biso   1.000  H
  H19      1.0000 0.30500  0.76720  0.21780  Biso   1.000  H
  H20      1.0000 0.00840  0.11550  0.94740  Biso   1.000  H
  H21      1.0000 0.09690  0.45330  0.07820  Biso   1.000  H
  H22      1.0000 0.99420  0.45250  0.79870  Biso   1.000  H
  H23      1.0000 0.30180  0.58300  0.26170  Biso   1.000  H
  H24      1.0000 0.18820  0.56330  0.18550  Biso   1.000  H
  H25      1.0000 0.36130  0.42100  0.15410  Biso   1.000  H
  H26      1.0000 0.34150  0.51840  0.06680  Biso   1.000  H
  H27      1.0000 0.45630  0.54190  0.14120  Biso   1.000  H
  H28      1.0000 0.69500  0.23280  0.71780  Biso   1.000  H
  H29      1.0000 0.99160  0.88450  0.44740  Biso   1.000  H
  H30      1.0000 0.90310  0.54670  0.57820  Biso   1.000  H
  H31      1.0000 0.00580  0.54750  0.29870  Biso   1.000  H
  H32      1.0000 0.69820  0.41700  0.76170  Biso   1.000  H
  H33      1.0000 0.81180  0.43670  0.68550  Biso   1.000  H
  H34      1.0000 0.63870  0.57900  0.65410  Biso   1.000  H
  H35      1.0000 0.65850  0.48160  0.56680  Biso   1.000  H
  H36      1.0000 0.54370  0.45810  0.64120  Biso   1.000  H
  C1       1.0000 0.20180  0.03820  0.52190  Biso   1.000  C
  C2       1.0000 0.27330  0.00190  0.60950  Biso   1.000  C
  C3       1.0000 0.20680  0.98120  0.69490  Biso   1.000  C
  C4       1.0000 0.27500  0.94540  0.77600  Biso   1.000  C
  C5       1.0000 0.40760  0.92980  0.77290  Biso   1.000  C
  C6       1.0000 0.47450  0.95340  0.68830  Biso   1.000  C
  C7       1.0000 0.40710  0.98960  0.60630  Biso   1.000  C
  C8       1.0000 0.20090  0.92330  0.86670  Biso   1.000  C
  C9       1.0000 0.62090  0.95370  0.69010  Biso   1.000  C
  C10      1.0000 0.59290  0.72150  0.94380  Biso   1.000  C
  C11      1.0000 0.51140  0.63290  0.88380  Biso   1.000  C
  C12      1.0000 0.79820  0.96180  0.02190  Biso   1.000  C
  C13      1.0000 0.72670  0.99810  0.10950  Biso   1.000  C
  C14      1.0000 0.79320  0.01880  0.19490  Biso   1.000  C
  C15      1.0000 0.72500  0.05460  0.27600  Biso   1.000  C
  C16      1.0000 0.59240  0.07020  0.27290  Biso   1.000  C
  C17      1.0000 0.52550  0.04660  0.18830  Biso   1.000  C
  C18      1.0000 0.59290  0.01040  0.10630  Biso   1.000  C
  C19      1.0000 0.79910  0.07670  0.36670  Biso   1.000  C
  C20      1.0000 0.37910  0.04630  0.19010  Biso   1.000  C
  C21      1.0000 0.40710  0.27850  0.44380  Biso   1.000  C
  C22      1.0000 0.48860  0.36710  0.38380  Biso   1.000  C
  C23      1.0000 0.96180  0.20180  0.77190  Biso   1.000  C
  C24      1.0000 0.99810  0.27330  0.85950  Biso   1.000  C
  C25      1.0000 0.01880  0.20680  0.94490  Biso   1.000  C
  C26      1.0000 0.05460  0.27500  0.02600  Biso   1.000  C
  C27      1.0000 0.07020  0.40760  0.02290  Biso   1.000  C
  C28      1.0000 0.04660  0.47450  0.93830  Biso   1.000  C
  C29      1.0000 0.01040  0.40710  0.85630  Biso   1.000  C
  C30      1.0000 0.07670  0.20090  0.11670  Biso   1.000  C
  C31      1.0000 0.04630  0.62090  0.94010  Biso   1.000  C
  C32      1.0000 0.27850  0.59290  0.19380  Biso   1.000  C
  C33      1.0000 0.36710  0.51140  0.13380  Biso   1.000  C
  C34      1.0000 0.03820  0.79820  0.27190  Biso   1.000  C
  C35      1.0000 0.00190  0.72670  0.35950  Biso   1.000  C
  C36      1.0000 0.98120  0.79320  0.44490  Biso   1.000  C
  C37      1.0000 0.94540  0.72500  0.52600  Biso   1.000  C
  C38      1.0000 0.92980  0.59240  0.52290  Biso   1.000  C
  C39      1.0000 0.95340  0.52550  0.43830  Biso   1.000  C
  C40      1.0000 0.98960  0.59290  0.35630  Biso   1.000  C
  C41      1.0000 0.92330  0.79910  0.61670  Biso   1.000  C
  C42      1.0000 0.95370  0.37910  0.44010  Biso   1.000  C
  C43      1.0000 0.72150  0.40710  0.69380  Biso   1.000  C
  C44      1.0000 0.63290  0.48860  0.63380  Biso   1.000  C
  O1       1.0000 0.25220  0.00680  0.44130  Biso   1.000  O
  O2       1.0000 0.09580  0.10180  0.52314  Biso   1.000  O
  O3       1.0000 0.07980  0.92780  0.86473  Biso   1.000  O
  O4       1.0000 0.26220  0.90570  0.94231  Biso   1.000  O
  O5       1.0000 0.67670  0.89090  0.75514  Biso   1.000  O
  O6       1.0000 0.67530  0.01840  0.62568  Biso   1.000  O
  O7       1.0000 0.72870  0.71130  0.91660  Biso   1.000  O
  O8       1.0000 0.74780  0.99320  0.94130  Biso   1.000  O
  O9       1.0000 0.90420  0.89820  0.02314  Biso   1.000  O
  O10      1.0000 0.92020  0.07220  0.36473  Biso   1.000  O
  O11      1.0000 0.73780  0.09430  0.44231  Biso   1.000  O
  O12      1.0000 0.32330  0.10910  0.25514  Biso   1.000  O
  O13      1.0000 0.32470  0.98160  0.12568  Biso   1.000  O
  O14      1.0000 0.27130  0.28870  0.41660  Biso   1.000  O
  O15      1.0000 0.99320  0.25220  0.69130  Biso   1.000  O
  O16      1.0000 0.89820  0.09580  0.77314  Biso   1.000  O
  O17      1.0000 0.07220  0.07980  0.11473  Biso   1.000  O
  O18      1.0000 0.09430  0.26220  0.19231  Biso   1.000  O
  O19      1.0000 0.10910  0.67670  0.00514  Biso   1.000  O
  O20      1.0000 0.98160  0.67530  0.87568  Biso   1.000  O
  O21      1.0000 0.28870  0.72870  0.16660  Biso   1.000  O
  O22      1.0000 0.00680  0.74780  0.19130  Biso   1.000  O
  O23      1.0000 0.10180  0.90420  0.27314  Biso   1.000  O
  O24      1.0000 0.92780  0.92020  0.61473  Biso   1.000  O
  O25      1.0000 0.90570  0.73780  0.69231  Biso   1.000  O
  O26      1.0000 0.89090  0.32330  0.50514  Biso   1.000  O
  O27      1.0000 0.01840  0.32470  0.37568  Biso   1.000  O
  O28      1.0000 0.71130  0.27130  0.66660  Biso   1.000  O
