data_EBIDIE_charged
_audit_creation_date              2014-07-02
_audit_creation_method            'Materials Studio'
_symmetry_space_group_name_H-M    'P1'
_symmetry_Int_Tables_number       1
_symmetry_cell_setting            triclinic
loop_
_symmetry_equiv_pos_as_xyz
  x,y,z
_cell_length_a                    13.4334
_cell_length_b                    13.4334
_cell_length_c                    26.6770
_cell_angle_alpha                 87.0573
_cell_angle_beta                  87.0573
_cell_angle_gamma                 81.5810
loop_
_atom_site_label
_atom_site_type_symbol
_atom_site_fract_x
_atom_site_fract_y
_atom_site_fract_z
_atom_site_U_iso_or_equiv
_atom_site_adp_type
_atom_site_occupancy
Fe1    Fe    0.29232   0.29704   0.55196   0.01267  Uiso   1.00
Fe2    Fe    0.70296   0.70768   0.94804   0.01267  Uiso   1.00
Ag1    Ag    0.85251   0.85779   0.61926   0.01267  Uiso   1.00
Ag2    Ag    0.43167   0.47425   0.23009   0.01267  Uiso   1.00
Ag3    Ag    0.14221   0.14749   0.88074   0.01267  Uiso   1.00
Ag4    Ag    0.52575   0.56833   0.26991   0.01267  Uiso   1.00
H1     H     0.94040   0.61980   0.64770   0.01267  Uiso   1.00
H2     H     0.28700   0.47700   0.67630   0.01267  Uiso   1.00
H3     H     0.31510   0.79450   0.63910   0.01267  Uiso   1.00
H4     H     0.58890   0.16750   0.57500   0.01267  Uiso   1.00
H5     H     0.92110   0.75730   0.51680   0.01267  Uiso   1.00
H6     H     0.74670   0.08650   0.58340   0.01267  Uiso   1.00
H7     H     0.65810   0.82870   0.56510   0.01267  Uiso   1.00
H8     H     0.49550   0.90570   0.55550   0.01267  Uiso   1.00
H9     H     0.28260   0.63040   0.65850   0.01267  Uiso   1.00
H10    H     0.29110   0.14990   0.69900   0.01267  Uiso   1.00
H11    H     0.19390   0.42910   0.74460   0.01267  Uiso   1.00
H12    H     0.90670   0.74750   0.72170   0.01267  Uiso   1.00
H13    H     0.64260   0.85460   0.67990   0.01267  Uiso   1.00
H14    H     0.05250   0.15830   0.58440   0.01267  Uiso   1.00
H15    H     0.22150   0.89830   0.55110   0.01267  Uiso   1.00
H16    H     0.92460   0.07060   0.61160   0.01267  Uiso   1.00
H17    H     0.08550   0.81730   0.57590   0.01267  Uiso   1.00
H18    H     0.43010   0.55090   0.52860   0.01267  Uiso   1.00
H19    H     0.34830   0.98370   0.57720   0.01267  Uiso   1.00
H20    H     0.04510   0.64330   0.48340   0.01267  Uiso   1.00
H21    H     0.18340   0.55680   0.46660   0.01267  Uiso   1.00
H22    H     0.45520   0.71640   0.51360   0.01267  Uiso   1.00
H23    H     0.05790   0.49410   0.61670   0.01267  Uiso   1.00
H24    H     0.47180   0.34160   0.32600   0.01267  Uiso   1.00
H25    H     0.17310   0.53610   0.37160   0.01267  Uiso   1.00
H26    H     0.22860   0.53520   0.28900   0.01267  Uiso   1.00
H27    H     0.41590   0.34650   0.40830   0.01267  Uiso   1.00
H28    H     0.38020   0.05960   0.85230   0.01267  Uiso   1.00
H29    H     0.52300   0.71300   0.82370   0.01267  Uiso   1.00
H30    H     0.20550   0.68490   0.86090   0.01267  Uiso   1.00
H31    H     0.83250   0.41110   0.92500   0.01267  Uiso   1.00
H32    H     0.24270   0.07890   0.98320   0.01267  Uiso   1.00
H33    H     0.91350   0.25330   0.91660   0.01267  Uiso   1.00
H34    H     0.17130   0.34190   0.93490   0.01267  Uiso   1.00
H35    H     0.09430   0.50450   0.94450   0.01267  Uiso   1.00
H36    H     0.36960   0.71740   0.84150   0.01267  Uiso   1.00
H37    H     0.85010   0.70890   0.80100   0.01267  Uiso   1.00
H38    H     0.57090   0.80610   0.75540   0.01267  Uiso   1.00
H39    H     0.25250   0.09330   0.77830   0.01267  Uiso   1.00
H40    H     0.14540   0.35740   0.82010   0.01267  Uiso   1.00
H41    H     0.84170   0.94750   0.91560   0.01267  Uiso   1.00
H42    H     0.10170   0.77850   0.94890   0.01267  Uiso   1.00
H43    H     0.92940   0.07540   0.88840   0.01267  Uiso   1.00
H44    H     0.18270   0.91450   0.92410   0.01267  Uiso   1.00
H45    H     0.44910   0.56990   0.97140   0.01267  Uiso   1.00
H46    H     0.01630   0.65170   0.92280   0.01267  Uiso   1.00
H47    H     0.35670   0.95490   0.01660   0.01267  Uiso   1.00
H48    H     0.44320   0.81660   0.03340   0.01267  Uiso   1.00
H49    H     0.28360   0.54480   0.98640   0.01267  Uiso   1.00
H50    H     0.50590   0.94210   0.88330   0.01267  Uiso   1.00
H51    H     0.65840   0.52820   0.17400   0.01267  Uiso   1.00
H52    H     0.46390   0.82690   0.12840   0.01267  Uiso   1.00
H53    H     0.46480   0.77140   0.21100   0.01267  Uiso   1.00
H54    H     0.65350   0.58410   0.09170   0.01267  Uiso   1.00
C1     C     0.52360   0.04680   0.56430   0.01267  Uiso   1.00
C2     C     0.14970   0.47610   0.52790   0.01267  Uiso   1.00
C3     C     0.06760   0.55620   0.54670   0.01267  Uiso   1.00
C4     C     0.15320   0.03740   0.57150   0.01267  Uiso   1.00
C5     C     0.42000   0.10060   0.55830   0.01267  Uiso   1.00
C6     C     0.23710   0.09430   0.55970   0.01267  Uiso   1.00
C7     C     0.96090   0.62370   0.61390   0.01267  Uiso   1.00
C8     C     0.29900   0.43200   0.65060   0.01267  Uiso   1.00
C9     C     0.33950   0.46350   0.60510   0.01267  Uiso   1.00
C10    C     0.33720   0.74500   0.61630   0.01267  Uiso   1.00
C11    C     0.60110   0.09790   0.57280   0.01267  Uiso   1.00
C12    C     0.24530   0.29710   0.71060   0.01267  Uiso   1.00
C13    C     0.27540   0.33460   0.65940   0.01267  Uiso   1.00
C14    C     0.95080   0.70480   0.53760   0.01267  Uiso   1.00
C15    C     0.69570   0.04870   0.57820   0.01267  Uiso   1.00
C16    C     0.64390   0.89810   0.56740   0.01267  Uiso   1.00
C17    C     0.54570   0.94390   0.56140   0.01267  Uiso   1.00
C18    C     0.31830   0.64570   0.62900   0.01267  Uiso   1.00
C19    C     0.26200   0.19520   0.72270   0.01267  Uiso   1.00
C20    C     0.20290   0.35930   0.74960   0.01267  Uiso   1.00
C21    C     0.83830   0.76470   0.72980   0.01267  Uiso   1.00
C22    C     0.68450   0.82510   0.70490   0.01267  Uiso   1.00
C23    C     0.06270   0.08830   0.58490   0.01267  Uiso   1.00
C24    C     0.16250   0.93390   0.56470   0.01267  Uiso   1.00
C25    C     0.98490   0.03470   0.59960   0.01267  Uiso   1.00
C26    C     0.07960   0.88660   0.57910   0.01267  Uiso   1.00
C27    C     0.40570   0.59910   0.55180   0.01267  Uiso   1.00
C28    C     0.33680   0.05120   0.56640   0.01267  Uiso   1.00
C29    C     0.02440   0.63620   0.51700   0.01267  Uiso   1.00
C30    C     0.19930   0.49430   0.48310   0.01267  Uiso   1.00
C31    C     0.41960   0.69940   0.54280   0.01267  Uiso   1.00
C32    C     0.35520   0.57280   0.59580   0.01267  Uiso   1.00
C33    C     0.03300   0.54880   0.59580   0.01267  Uiso   1.00
C34    C     0.27380   0.42240   0.46040   0.01267  Uiso   1.00
C35    C     0.41160   0.38200   0.33470   0.01267  Uiso   1.00
C36    C     0.28940   0.44040   0.39810   0.01267  Uiso   1.00
C37    C     0.23360   0.49720   0.36230   0.01267  Uiso   1.00
C38    C     0.26720   0.49640   0.31280   0.01267  Uiso   1.00
C39    C     0.37760   0.38420   0.38400   0.01267  Uiso   1.00
C40    C     0.95320   0.47640   0.93570   0.01267  Uiso   1.00
C41    C     0.52390   0.85030   0.97210   0.01267  Uiso   1.00
C42    C     0.44380   0.93240   0.95330   0.01267  Uiso   1.00
C43    C     0.96260   0.84680   0.92850   0.01267  Uiso   1.00
C44    C     0.89940   0.58000   0.94170   0.01267  Uiso   1.00
C45    C     0.90570   0.76290   0.94030   0.01267  Uiso   1.00
C46    C     0.37630   0.03910   0.88610   0.01267  Uiso   1.00
C47    C     0.56800   0.70100   0.84940   0.01267  Uiso   1.00
C48    C     0.53650   0.66050   0.89490   0.01267  Uiso   1.00
C49    C     0.25500   0.66280   0.88370   0.01267  Uiso   1.00
C50    C     0.90210   0.39890   0.92720   0.01267  Uiso   1.00
C51    C     0.70290   0.75470   0.78940   0.01267  Uiso   1.00
C52    C     0.66540   0.72460   0.84060   0.01267  Uiso   1.00
C53    C     0.29520   0.04920   0.96240   0.01267  Uiso   1.00
C54    C     0.95130   0.30430   0.92180   0.01267  Uiso   1.00
C55    C     0.10190   0.35610   0.93260   0.01267  Uiso   1.00
C56    C     0.05610   0.45430   0.93860   0.01267  Uiso   1.00
C57    C     0.35430   0.68170   0.87100   0.01267  Uiso   1.00
C58    C     0.80480   0.73800   0.77730   0.01267  Uiso   1.00
C59    C     0.64070   0.79710   0.75040   0.01267  Uiso   1.00
C60    C     0.23530   0.16170   0.77020   0.01267  Uiso   1.00
C61    C     0.17490   0.31550   0.79510   0.01267  Uiso   1.00
C62    C     0.91170   0.93730   0.91510   0.01267  Uiso   1.00
C63    C     0.06610   0.83750   0.93530   0.01267  Uiso   1.00
C64    C     0.96530   0.01510   0.90040   0.01267  Uiso   1.00
C65    C     0.11340   0.92040   0.92090   0.01267  Uiso   1.00
C66    C     0.40090   0.59430   0.94820   0.01267  Uiso   1.00
C67    C     0.94880   0.66320   0.93360   0.01267  Uiso   1.00
C68    C     0.36380   0.97560   0.98300   0.01267  Uiso   1.00
C69    C     0.50570   0.80070   0.01690   0.01267  Uiso   1.00
C70    C     0.30060   0.58040   0.95720   0.01267  Uiso   1.00
C71    C     0.42720   0.64480   0.90420   0.01267  Uiso   1.00
C72    C     0.45120   0.96700   0.90420   0.01267  Uiso   1.00
C73    C     0.57760   0.72620   0.03960   0.01267  Uiso   1.00
C74    C     0.61800   0.58840   0.16530   0.01267  Uiso   1.00
C75    C     0.55960   0.71060   0.10190   0.01267  Uiso   1.00
C76    C     0.50280   0.76640   0.13770   0.01267  Uiso   1.00
C77    C     0.50360   0.73280   0.18720   0.01267  Uiso   1.00
C78    C     0.61580   0.62240   0.11600   0.01267  Uiso   1.00
N1     N     0.78260   0.81220   0.69490   0.01267  Uiso   1.00
N2     N     0.99020   0.93540   0.59770   0.01267  Uiso   1.00
N3     N     0.38440   0.77180   0.57390   0.01267  Uiso   1.00
N4     N     0.91890   0.70110   0.58540   0.01267  Uiso   1.00
N5     N     0.71990   0.94890   0.57650   0.01267  Uiso   1.00
N6     N     0.35770   0.43890   0.29740   0.01267  Uiso   1.00
N7     N     0.48450   0.55230   0.16560   0.01267  Uiso   1.00
N8     N     0.18780   0.21740   0.80510   0.01267  Uiso   1.00
N9     N     0.06460   0.00980   0.90230   0.01267  Uiso   1.00
N10    N     0.22820   0.61560   0.92610   0.01267  Uiso   1.00
N11    N     0.29890   0.08110   0.91460   0.01267  Uiso   1.00
N12    N     0.05110   0.28010   0.92350   0.01267  Uiso   1.00
N13    N     0.56110   0.64230   0.20260   0.01267  Uiso   1.00
N14    N     0.44770   0.51550   0.33440   0.01267  Uiso   1.00
N15    N     0.65860   0.34140   0.25000   0.01267  Uiso   1.00
O1     O     0.36590   0.40890   0.56770   0.01267  Uiso   1.00
O2     O     0.41580   0.19580   0.54640   0.01267  Uiso   1.00
O3     O     0.21350   0.18670   0.54510   0.01267  Uiso   1.00
O4     O     0.16420   0.39580   0.55480   0.01267  Uiso   1.00
O5     O     0.28070   0.27010   0.62620   0.01267  Uiso   1.00
O6     O     0.30410   0.33670   0.48030   0.01267  Uiso   1.00
O7     O     0.67900   0.42740   0.25120   0.01267  Uiso   1.00
O8     O     0.59110   0.63410   0.93230   0.01267  Uiso   1.00
O9     O     0.80420   0.58420   0.95360   0.01267  Uiso   1.00
O10    O     0.81330   0.78650   0.95490   0.01267  Uiso   1.00
O11    O     0.60420   0.83580   0.94520   0.01267  Uiso   1.00
O12    O     0.72990   0.71930   0.87380   0.01267  Uiso   1.00
O13    O     0.66330   0.69590   0.01970   0.01267  Uiso   1.00
O14    O     0.57260   0.32100   0.24880   0.01267  Uiso   1.00
O15    O     0.72910   0.27090   0.25000   0.01267  Uiso   1.00
Fe3    Fe    0.70768   0.70296   0.44804   0.01267  Uiso   1.00
Fe4    Fe    0.29704   0.29232   0.05196   0.01267  Uiso   1.00
Ag5    Ag    0.14749   0.14221   0.38074   0.01267  Uiso   1.00
Ag6    Ag    0.56833   0.52575   0.76991   0.01267  Uiso   1.00
Ag7    Ag    0.85779   0.85251   0.11926   0.01267  Uiso   1.00
Ag8    Ag    0.47425   0.43167   0.73009   0.01267  Uiso   1.00
H55    H     0.05960   0.38020   0.35230   0.01267  Uiso   1.00
H56    H     0.71300   0.52300   0.32370   0.01267  Uiso   1.00
H57    H     0.68490   0.20550   0.36090   0.01267  Uiso   1.00
H58    H     0.41110   0.83250   0.42500   0.01267  Uiso   1.00
H59    H     0.07890   0.24270   0.48320   0.01267  Uiso   1.00
H60    H     0.25330   0.91350   0.41660   0.01267  Uiso   1.00
H61    H     0.34190   0.17130   0.43490   0.01267  Uiso   1.00
H62    H     0.50450   0.09430   0.44450   0.01267  Uiso   1.00
H63    H     0.71740   0.36960   0.34150   0.01267  Uiso   1.00
H64    H     0.70890   0.85010   0.30100   0.01267  Uiso   1.00
H65    H     0.80610   0.57090   0.25540   0.01267  Uiso   1.00
H66    H     0.09330   0.25250   0.27830   0.01267  Uiso   1.00
H67    H     0.35740   0.14540   0.32010   0.01267  Uiso   1.00
H68    H     0.94750   0.84170   0.41560   0.01267  Uiso   1.00
H69    H     0.77850   0.10170   0.44890   0.01267  Uiso   1.00
H70    H     0.07540   0.92940   0.38840   0.01267  Uiso   1.00
H71    H     0.91450   0.18270   0.42410   0.01267  Uiso   1.00
H72    H     0.56990   0.44910   0.47140   0.01267  Uiso   1.00
H73    H     0.65170   0.01630   0.42280   0.01267  Uiso   1.00
H74    H     0.95490   0.35670   0.51660   0.01267  Uiso   1.00
H75    H     0.81660   0.44320   0.53340   0.01267  Uiso   1.00
H76    H     0.54480   0.28360   0.48640   0.01267  Uiso   1.00
H77    H     0.94210   0.50590   0.38330   0.01267  Uiso   1.00
H78    H     0.52820   0.65840   0.67400   0.01267  Uiso   1.00
H79    H     0.82690   0.46390   0.62840   0.01267  Uiso   1.00
H80    H     0.77140   0.46480   0.71100   0.01267  Uiso   1.00
H81    H     0.58410   0.65350   0.59170   0.01267  Uiso   1.00
H82    H     0.61980   0.94040   0.14770   0.01267  Uiso   1.00
H83    H     0.47700   0.28700   0.17630   0.01267  Uiso   1.00
H84    H     0.79450   0.31510   0.13910   0.01267  Uiso   1.00
H85    H     0.16750   0.58890   0.07500   0.01267  Uiso   1.00
H86    H     0.75730   0.92110   0.01680   0.01267  Uiso   1.00
H87    H     0.08650   0.74670   0.08340   0.01267  Uiso   1.00
H88    H     0.82870   0.65810   0.06510   0.01267  Uiso   1.00
H89    H     0.90570   0.49550   0.05550   0.01267  Uiso   1.00
H90    H     0.63040   0.28260   0.15850   0.01267  Uiso   1.00
H91    H     0.14990   0.29110   0.19900   0.01267  Uiso   1.00
H92    H     0.42910   0.19390   0.24460   0.01267  Uiso   1.00
H93    H     0.74750   0.90670   0.22170   0.01267  Uiso   1.00
H94    H     0.85460   0.64260   0.17990   0.01267  Uiso   1.00
H95    H     0.15830   0.05250   0.08440   0.01267  Uiso   1.00
H96    H     0.89830   0.22150   0.05110   0.01267  Uiso   1.00
H97    H     0.07060   0.92460   0.11160   0.01267  Uiso   1.00
H98    H     0.81730   0.08550   0.07590   0.01267  Uiso   1.00
H99    H     0.55090   0.43010   0.02860   0.01267  Uiso   1.00
H100   H     0.98370   0.34830   0.07720   0.01267  Uiso   1.00
H101   H     0.64330   0.04510   0.98340   0.01267  Uiso   1.00
H102   H     0.55680   0.18340   0.96660   0.01267  Uiso   1.00
H103   H     0.71640   0.45520   0.01360   0.01267  Uiso   1.00
H104   H     0.49410   0.05790   0.11670   0.01267  Uiso   1.00
H105   H     0.34160   0.47180   0.82600   0.01267  Uiso   1.00
H106   H     0.53610   0.17310   0.87160   0.01267  Uiso   1.00
H107   H     0.53520   0.22860   0.78900   0.01267  Uiso   1.00
H108   H     0.34650   0.41590   0.90830   0.01267  Uiso   1.00
C79    C     0.47640   0.95320   0.43570   0.01267  Uiso   1.00
C80    C     0.85030   0.52390   0.47210   0.01267  Uiso   1.00
C81    C     0.93240   0.44380   0.45330   0.01267  Uiso   1.00
C82    C     0.84680   0.96260   0.42850   0.01267  Uiso   1.00
C83    C     0.58000   0.89940   0.44170   0.01267  Uiso   1.00
C84    C     0.76290   0.90570   0.44030   0.01267  Uiso   1.00
C85    C     0.03910   0.37630   0.38610   0.01267  Uiso   1.00
C86    C     0.70100   0.56800   0.34940   0.01267  Uiso   1.00
C87    C     0.66050   0.53650   0.39490   0.01267  Uiso   1.00
C88    C     0.66280   0.25500   0.38370   0.01267  Uiso   1.00
C89    C     0.39890   0.90210   0.42720   0.01267  Uiso   1.00
C90    C     0.75470   0.70290   0.28940   0.01267  Uiso   1.00
C91    C     0.72460   0.66540   0.34060   0.01267  Uiso   1.00
C92    C     0.04920   0.29520   0.46240   0.01267  Uiso   1.00
C93    C     0.30430   0.95130   0.42180   0.01267  Uiso   1.00
C94    C     0.35610   0.10190   0.43260   0.01267  Uiso   1.00
C95    C     0.45430   0.05610   0.43860   0.01267  Uiso   1.00
C96    C     0.68170   0.35430   0.37100   0.01267  Uiso   1.00
C97    C     0.73800   0.80480   0.27730   0.01267  Uiso   1.00
C98    C     0.79710   0.64070   0.25040   0.01267  Uiso   1.00
C99    C     0.16170   0.23530   0.27020   0.01267  Uiso   1.00
C100   C     0.31550   0.17490   0.29510   0.01267  Uiso   1.00
C101   C     0.93730   0.91170   0.41510   0.01267  Uiso   1.00
C102   C     0.83750   0.06610   0.43530   0.01267  Uiso   1.00
C103   C     0.01510   0.96530   0.40040   0.01267  Uiso   1.00
C104   C     0.92040   0.11340   0.42090   0.01267  Uiso   1.00
C105   C     0.59430   0.40090   0.44820   0.01267  Uiso   1.00
C106   C     0.66320   0.94880   0.43360   0.01267  Uiso   1.00
C107   C     0.97560   0.36380   0.48300   0.01267  Uiso   1.00
C108   C     0.80070   0.50570   0.51690   0.01267  Uiso   1.00
C109   C     0.58040   0.30060   0.45720   0.01267  Uiso   1.00
C110   C     0.64480   0.42720   0.40420   0.01267  Uiso   1.00
C111   C     0.96700   0.45120   0.40420   0.01267  Uiso   1.00
C112   C     0.72620   0.57760   0.53960   0.01267  Uiso   1.00
C113   C     0.58840   0.61800   0.66530   0.01267  Uiso   1.00
C114   C     0.71060   0.55960   0.60190   0.01267  Uiso   1.00
C115   C     0.76640   0.50280   0.63770   0.01267  Uiso   1.00
C116   C     0.73280   0.50360   0.68720   0.01267  Uiso   1.00
C117   C     0.62240   0.61580   0.61600   0.01267  Uiso   1.00
C118   C     0.04680   0.52360   0.06430   0.01267  Uiso   1.00
C119   C     0.47610   0.14970   0.02790   0.01267  Uiso   1.00
C120   C     0.55620   0.06760   0.04670   0.01267  Uiso   1.00
C121   C     0.03740   0.15320   0.07150   0.01267  Uiso   1.00
C122   C     0.10060   0.42000   0.05830   0.01267  Uiso   1.00
C123   C     0.09430   0.23710   0.05970   0.01267  Uiso   1.00
C124   C     0.62370   0.96090   0.11390   0.01267  Uiso   1.00
C125   C     0.43200   0.29900   0.15060   0.01267  Uiso   1.00
C126   C     0.46350   0.33950   0.10510   0.01267  Uiso   1.00
C127   C     0.74500   0.33720   0.11630   0.01267  Uiso   1.00
C128   C     0.09790   0.60110   0.07280   0.01267  Uiso   1.00
C129   C     0.29710   0.24530   0.21060   0.01267  Uiso   1.00
C130   C     0.33460   0.27540   0.15940   0.01267  Uiso   1.00
C131   C     0.70480   0.95080   0.03760   0.01267  Uiso   1.00
C132   C     0.04870   0.69570   0.07820   0.01267  Uiso   1.00
C133   C     0.89810   0.64390   0.06740   0.01267  Uiso   1.00
C134   C     0.94390   0.54570   0.06140   0.01267  Uiso   1.00
C135   C     0.64570   0.31830   0.12900   0.01267  Uiso   1.00
C136   C     0.19520   0.26200   0.22270   0.01267  Uiso   1.00
C137   C     0.35930   0.20290   0.24960   0.01267  Uiso   1.00
C138   C     0.76470   0.83830   0.22980   0.01267  Uiso   1.00
C139   C     0.82510   0.68450   0.20490   0.01267  Uiso   1.00
C140   C     0.08830   0.06270   0.08490   0.01267  Uiso   1.00
C141   C     0.93390   0.16250   0.06470   0.01267  Uiso   1.00
C142   C     0.03470   0.98490   0.09960   0.01267  Uiso   1.00
C143   C     0.88660   0.07960   0.07910   0.01267  Uiso   1.00
C144   C     0.59910   0.40570   0.05180   0.01267  Uiso   1.00
C145   C     0.05120   0.33680   0.06640   0.01267  Uiso   1.00
C146   C     0.63620   0.02440   0.01700   0.01267  Uiso   1.00
C147   C     0.49430   0.19930   0.98310   0.01267  Uiso   1.00
C148   C     0.69940   0.41960   0.04280   0.01267  Uiso   1.00
C149   C     0.57280   0.35520   0.09580   0.01267  Uiso   1.00
C150   C     0.54880   0.03300   0.09580   0.01267  Uiso   1.00
C151   C     0.42240   0.27380   0.96040   0.01267  Uiso   1.00
C152   C     0.38200   0.41160   0.83470   0.01267  Uiso   1.00
C153   C     0.44040   0.28940   0.89810   0.01267  Uiso   1.00
C154   C     0.49720   0.23360   0.86230   0.01267  Uiso   1.00
C155   C     0.49640   0.26720   0.81280   0.01267  Uiso   1.00
C156   C     0.38420   0.37760   0.88400   0.01267  Uiso   1.00
N16    N     0.21740   0.18780   0.30510   0.01267  Uiso   1.00
N17    N     0.00980   0.06460   0.40230   0.01267  Uiso   1.00
N18    N     0.61560   0.22820   0.42610   0.01267  Uiso   1.00
N19    N     0.08110   0.29890   0.41460   0.01267  Uiso   1.00
N20    N     0.28010   0.05110   0.42350   0.01267  Uiso   1.00
N21    N     0.64230   0.56110   0.70260   0.01267  Uiso   1.00
N22    N     0.51550   0.44770   0.83440   0.01267  Uiso   1.00
N23    N     0.81220   0.78260   0.19490   0.01267  Uiso   1.00
N24    N     0.93540   0.99020   0.09770   0.01267  Uiso   1.00
N25    N     0.77180   0.38440   0.07390   0.01267  Uiso   1.00
N26    N     0.70110   0.91890   0.08540   0.01267  Uiso   1.00
N27    N     0.94890   0.71990   0.07650   0.01267  Uiso   1.00
N28    N     0.43890   0.35770   0.79740   0.01267  Uiso   1.00
N29    N     0.55230   0.48450   0.66560   0.01267  Uiso   1.00
N30    N     0.34140   0.65860   0.75000   0.01267  Uiso   1.00
O16    O     0.63410   0.59110   0.43230   0.01267  Uiso   1.00
O17    O     0.58420   0.80420   0.45360   0.01267  Uiso   1.00
O18    O     0.78650   0.81330   0.45490   0.01267  Uiso   1.00
O19    O     0.83580   0.60420   0.44520   0.01267  Uiso   1.00
O20    O     0.71930   0.72990   0.37380   0.01267  Uiso   1.00
O21    O     0.69590   0.66330   0.51970   0.01267  Uiso   1.00
O22    O     0.32100   0.57260   0.74880   0.01267  Uiso   1.00
O23    O     0.40890   0.36590   0.06770   0.01267  Uiso   1.00
O24    O     0.19580   0.41580   0.04640   0.01267  Uiso   1.00
O25    O     0.18670   0.21350   0.04510   0.01267  Uiso   1.00
O26    O     0.39580   0.16420   0.05480   0.01267  Uiso   1.00
O27    O     0.27010   0.28070   0.12620   0.01267  Uiso   1.00
O28    O     0.33670   0.30410   0.98030   0.01267  Uiso   1.00
O29    O     0.42740   0.67900   0.75120   0.01267  Uiso   1.00
O30    O     0.27090   0.72910   0.75000   0.01267  Uiso   1.00
N31    N     0.14370   0.72830   0.38950   0.01267  Uiso   1.00
O31    O     0.18630   0.74950   0.42600   0.01267  Uiso   1.00
O32    O     0.08700   0.66500   0.39260   0.01267  Uiso   1.00
O33    O     0.16100   0.76960   0.34760   0.01267  Uiso   1.00
N32    N     0.27170   0.85630   0.11050   0.01267  Uiso   1.00
O34    O     0.25050   0.81370   0.07400   0.01267  Uiso   1.00
O35    O     0.33500   0.91300   0.10740   0.01267  Uiso   1.00
O36    O     0.23040   0.83900   0.15240   0.01267  Uiso   1.00
N33    N     0.85630   0.27170   0.61050   0.01267  Uiso   1.00
O37    O     0.81370   0.25050   0.57400   0.01267  Uiso   1.00
O38    O     0.91300   0.33500   0.60740   0.01267  Uiso   1.00
O39    O     0.83900   0.23040   0.65240   0.01267  Uiso   1.00
N34    N     0.72830   0.14370   0.88950   0.01267  Uiso   1.00
O40    O     0.74950   0.18630   0.92600   0.01267  Uiso   1.00
O41    O     0.66500   0.08700   0.89260   0.01267  Uiso   1.00
O42    O     0.76960   0.16100   0.84760   0.01267  Uiso   1.00
