data_image0
_cell_length_a       13.1073
_cell_length_b       17.5935
_cell_length_c       25.4796
_cell_angle_alpha    90
_cell_angle_beta     90
_cell_angle_gamma    90

_symmetry_space_group_name_H-M    "P 1"
_symmetry_int_tables_number       1

loop_
  _symmetry_equiv_pos_as_xyz
  'x, y, z'

loop_
  _atom_site_label
  _atom_site_occupancy
  _atom_site_fract_x
  _atom_site_fract_y
  _atom_site_fract_z
  _atom_site_thermal_displace_type
  _atom_site_B_iso_or_equiv
  _atom_site_type_symbol
  N1       1.0000 0.73366  0.62944  0.68081  Biso   1.000  N
  N2       1.0000 0.86910  0.59949  0.72926  Biso   1.000  N
  N3       1.0000 0.83081  0.66661  0.74440  Biso   1.000  N
  C1       1.0000 0.80890  0.57971  0.69109  Biso   1.000  C
  H1       1.0000 0.81720  0.53470  0.67240  Biso   1.000  H
  C2       1.0000 0.75021  0.68349  0.71572  Biso   1.000  C
  H2       1.0000 0.71080  0.72710  0.71950  Biso   1.000  H
  C3       1.0000 0.87900  0.71160  0.78585  Biso   1.000  C
  H3       1.0000 0.91220  0.67760  0.81050  Biso   1.000  H
  H4       1.0000 0.82680  0.73950  0.80480  Biso   1.000  H
  C4       1.0000 0.95680  0.76702  0.76465  Biso   1.000  C
  H5       1.0000 0.92210  0.80250  0.74170  Biso   1.000  H
  H6       1.0000 0.98420  0.79590  0.79380  Biso   1.000  H
  N4       1.0000 0.73366  0.12944  0.18081  Biso   1.000  N
  N5       1.0000 0.86910  0.09949  0.22926  Biso   1.000  N
  N6       1.0000 0.83081  0.16661  0.24440  Biso   1.000  N
  C5       1.0000 0.80890  0.07971  0.19109  Biso   1.000  C
  H7       1.0000 0.81720  0.03470  0.17240  Biso   1.000  H
  C6       1.0000 0.75021  0.18349  0.21572  Biso   1.000  C
  H8       1.0000 0.71080  0.22710  0.21950  Biso   1.000  H
  C7       1.0000 0.87900  0.21160  0.28585  Biso   1.000  C
  H9       1.0000 0.91220  0.17760  0.31050  Biso   1.000  H
  H10      1.0000 0.82680  0.23950  0.30480  Biso   1.000  H
  C8       1.0000 0.95680  0.26702  0.26465  Biso   1.000  C
  H11      1.0000 0.92210  0.30250  0.24170  Biso   1.000  H
  H12      1.0000 0.98420  0.29590  0.29380  Biso   1.000  H
  N7       1.0000 0.23366  0.62944  0.18081  Biso   1.000  N
  N8       1.0000 0.36910  0.59949  0.22926  Biso   1.000  N
  N9       1.0000 0.33081  0.66661  0.24440  Biso   1.000  N
  C9       1.0000 0.30890  0.57971  0.19109  Biso   1.000  C
  H13      1.0000 0.31720  0.53470  0.17240  Biso   1.000  H
  C10      1.0000 0.25021  0.68349  0.21572  Biso   1.000  C
  H14      1.0000 0.21080  0.72710  0.21950  Biso   1.000  H
  C11      1.0000 0.37900  0.71160  0.28585  Biso   1.000  C
  H15      1.0000 0.41220  0.67760  0.31050  Biso   1.000  H
  H16      1.0000 0.32680  0.73950  0.30480  Biso   1.000  H
  C12      1.0000 0.45680  0.76702  0.26465  Biso   1.000  C
  H17      1.0000 0.42210  0.80250  0.24170  Biso   1.000  H
  H18      1.0000 0.48420  0.79590  0.29380  Biso   1.000  H
  N10      1.0000 0.23366  0.12944  0.68081  Biso   1.000  N
  N11      1.0000 0.36910  0.09949  0.72926  Biso   1.000  N
  N12      1.0000 0.33081  0.16661  0.74440  Biso   1.000  N
  C13      1.0000 0.30890  0.07971  0.69109  Biso   1.000  C
  H19      1.0000 0.31720  0.03470  0.67240  Biso   1.000  H
  C14      1.0000 0.25021  0.18349  0.71572  Biso   1.000  C
  H20      1.0000 0.21080  0.22710  0.71950  Biso   1.000  H
  C15      1.0000 0.37900  0.21160  0.78585  Biso   1.000  C
  H21      1.0000 0.41220  0.17760  0.81050  Biso   1.000  H
  H22      1.0000 0.32680  0.23950  0.80480  Biso   1.000  H
  C16      1.0000 0.45680  0.26702  0.76465  Biso   1.000  C
  H23      1.0000 0.42210  0.30250  0.74170  Biso   1.000  H
  H24      1.0000 0.48420  0.29590  0.79380  Biso   1.000  H
  N13      1.0000 0.01634  0.12056  0.68081  Biso   1.000  N
  N14      1.0000 0.88090  0.15051  0.72926  Biso   1.000  N
  N15      1.0000 0.91919  0.08339  0.74440  Biso   1.000  N
  C17      1.0000 0.94110  0.17029  0.69109  Biso   1.000  C
  H25      1.0000 0.93280  0.21530  0.67240  Biso   1.000  H
  C18      1.0000 0.99979  0.06651  0.71572  Biso   1.000  C
  H26      1.0000 0.03920  0.02290  0.71950  Biso   1.000  H
  C19      1.0000 0.87100  0.03840  0.78585  Biso   1.000  C
  H27      1.0000 0.83780  0.07240  0.81050  Biso   1.000  H
  H28      1.0000 0.92320  0.01050  0.80480  Biso   1.000  H
  C20      1.0000 0.79320  0.98298  0.76465  Biso   1.000  C
  H29      1.0000 0.82790  0.94750  0.74170  Biso   1.000  H
  H30      1.0000 0.76580  0.95410  0.79380  Biso   1.000  H
  N16      1.0000 0.01634  0.62056  0.18081  Biso   1.000  N
  N17      1.0000 0.88090  0.65051  0.22926  Biso   1.000  N
  N18      1.0000 0.91919  0.58339  0.24440  Biso   1.000  N
  C21      1.0000 0.94110  0.67029  0.19109  Biso   1.000  C
  H31      1.0000 0.93280  0.71530  0.17240  Biso   1.000  H
  C22      1.0000 0.99979  0.56651  0.21572  Biso   1.000  C
  H32      1.0000 0.03920  0.52290  0.21950  Biso   1.000  H
  C23      1.0000 0.87100  0.53840  0.28585  Biso   1.000  C
  H33      1.0000 0.83780  0.57240  0.31050  Biso   1.000  H
  H34      1.0000 0.92320  0.51050  0.30480  Biso   1.000  H
  C24      1.0000 0.79320  0.48298  0.26465  Biso   1.000  C
  H35      1.0000 0.82790  0.44750  0.24170  Biso   1.000  H
  H36      1.0000 0.76580  0.45410  0.29380  Biso   1.000  H
  N19      1.0000 0.51634  0.12056  0.18081  Biso   1.000  N
  N20      1.0000 0.38090  0.15051  0.22926  Biso   1.000  N
  N21      1.0000 0.41919  0.08339  0.24440  Biso   1.000  N
  C25      1.0000 0.44110  0.17029  0.19109  Biso   1.000  C
  H37      1.0000 0.43280  0.21530  0.17240  Biso   1.000  H
  C26      1.0000 0.49979  0.06651  0.21572  Biso   1.000  C
  H38      1.0000 0.53920  0.02290  0.21950  Biso   1.000  H
  C27      1.0000 0.37100  0.03840  0.28585  Biso   1.000  C
  H39      1.0000 0.33780  0.07240  0.31050  Biso   1.000  H
  H40      1.0000 0.42320  0.01050  0.30480  Biso   1.000  H
  C28      1.0000 0.29320  0.98298  0.26465  Biso   1.000  C
  H41      1.0000 0.32790  0.94750  0.24170  Biso   1.000  H
  H42      1.0000 0.26580  0.95410  0.29380  Biso   1.000  H
  N22      1.0000 0.51634  0.62056  0.68081  Biso   1.000  N
  N23      1.0000 0.38090  0.65051  0.72926  Biso   1.000  N
  N24      1.0000 0.41919  0.58339  0.74440  Biso   1.000  N
  C29      1.0000 0.44110  0.67029  0.69109  Biso   1.000  C
  H43      1.0000 0.43280  0.71530  0.67240  Biso   1.000  H
  C30      1.0000 0.49979  0.56651  0.71572  Biso   1.000  C
  H44      1.0000 0.53920  0.52290  0.71950  Biso   1.000  H
  C31      1.0000 0.37100  0.53840  0.78585  Biso   1.000  C
  H45      1.0000 0.33780  0.57240  0.81050  Biso   1.000  H
  H46      1.0000 0.42320  0.51050  0.80480  Biso   1.000  H
  C32      1.0000 0.29320  0.48298  0.76465  Biso   1.000  C
  H47      1.0000 0.32790  0.44750  0.74170  Biso   1.000  H
  H48      1.0000 0.26580  0.45410  0.79380  Biso   1.000  H
  N25      1.0000 0.01634  0.62944  0.06919  Biso   1.000  N
  N26      1.0000 0.88090  0.59949  0.02074  Biso   1.000  N
  N27      1.0000 0.91919  0.66661  0.00560  Biso   1.000  N
  C33      1.0000 0.94110  0.57971  0.05891  Biso   1.000  C
  H49      1.0000 0.93280  0.53470  0.07760  Biso   1.000  H
  C34      1.0000 0.99979  0.68349  0.03428  Biso   1.000  C
  H50      1.0000 0.03920  0.72710  0.03050  Biso   1.000  H
  C35      1.0000 0.87100  0.71160  0.96415  Biso   1.000  C
  H51      1.0000 0.83780  0.67760  0.93950  Biso   1.000  H
  H52      1.0000 0.92320  0.73950  0.94520  Biso   1.000  H
  C36      1.0000 0.79320  0.76702  0.98535  Biso   1.000  C
  H53      1.0000 0.82790  0.80250  0.00830  Biso   1.000  H
  H54      1.0000 0.76580  0.79590  0.95620  Biso   1.000  H
  N28      1.0000 0.01634  0.12944  0.56919  Biso   1.000  N
  N29      1.0000 0.88090  0.09949  0.52074  Biso   1.000  N
  N30      1.0000 0.91919  0.16661  0.50560  Biso   1.000  N
  C37      1.0000 0.94110  0.07971  0.55891  Biso   1.000  C
  H55      1.0000 0.93280  0.03470  0.57760  Biso   1.000  H
  C38      1.0000 0.99979  0.18349  0.53428  Biso   1.000  C
  H56      1.0000 0.03920  0.22710  0.53050  Biso   1.000  H
  C39      1.0000 0.87100  0.21160  0.46415  Biso   1.000  C
  H57      1.0000 0.83780  0.17760  0.43950  Biso   1.000  H
  H58      1.0000 0.92320  0.23950  0.44520  Biso   1.000  H
  C40      1.0000 0.79320  0.26702  0.48535  Biso   1.000  C
  H59      1.0000 0.82790  0.30250  0.50830  Biso   1.000  H
  H60      1.0000 0.76580  0.29590  0.45620  Biso   1.000  H
  N31      1.0000 0.51634  0.62944  0.56919  Biso   1.000  N
  N32      1.0000 0.38090  0.59949  0.52074  Biso   1.000  N
  N33      1.0000 0.41919  0.66661  0.50560  Biso   1.000  N
  C41      1.0000 0.44110  0.57971  0.55891  Biso   1.000  C
  H61      1.0000 0.43280  0.53470  0.57760  Biso   1.000  H
  C42      1.0000 0.49979  0.68349  0.53428  Biso   1.000  C
  H62      1.0000 0.53920  0.72710  0.53050  Biso   1.000  H
  C43      1.0000 0.37100  0.71160  0.46415  Biso   1.000  C
  H63      1.0000 0.33780  0.67760  0.43950  Biso   1.000  H
  H64      1.0000 0.42320  0.73950  0.44520  Biso   1.000  H
  C44      1.0000 0.29320  0.76702  0.48535  Biso   1.000  C
  H65      1.0000 0.32790  0.80250  0.50830  Biso   1.000  H
  H66      1.0000 0.26580  0.79590  0.45620  Biso   1.000  H
  N34      1.0000 0.51634  0.12944  0.06919  Biso   1.000  N
  N35      1.0000 0.38090  0.09949  0.02074  Biso   1.000  N
  N36      1.0000 0.41919  0.16661  0.00560  Biso   1.000  N
  C45      1.0000 0.44110  0.07971  0.05891  Biso   1.000  C
  H67      1.0000 0.43280  0.03470  0.07760  Biso   1.000  H
  C46      1.0000 0.49979  0.18349  0.03428  Biso   1.000  C
  H68      1.0000 0.53920  0.22710  0.03050  Biso   1.000  H
  C47      1.0000 0.37100  0.21160  0.96415  Biso   1.000  C
  H69      1.0000 0.33780  0.17760  0.93950  Biso   1.000  H
  H70      1.0000 0.42320  0.23950  0.94520  Biso   1.000  H
  C48      1.0000 0.29320  0.26702  0.98535  Biso   1.000  C
  H71      1.0000 0.32790  0.30250  0.00830  Biso   1.000  H
  H72      1.0000 0.26580  0.29590  0.95620  Biso   1.000  H
  N37      1.0000 0.73366  0.12056  0.06919  Biso   1.000  N
  N38      1.0000 0.86910  0.15051  0.02074  Biso   1.000  N
  N39      1.0000 0.83081  0.08339  0.00560  Biso   1.000  N
  C49      1.0000 0.80890  0.17029  0.05891  Biso   1.000  C
  H73      1.0000 0.81720  0.21530  0.07760  Biso   1.000  H
  C50      1.0000 0.75021  0.06651  0.03428  Biso   1.000  C
  H74      1.0000 0.71080  0.02290  0.03050  Biso   1.000  H
  C51      1.0000 0.87900  0.03840  0.96415  Biso   1.000  C
  H75      1.0000 0.91220  0.07240  0.93950  Biso   1.000  H
  H76      1.0000 0.82680  0.01050  0.94520  Biso   1.000  H
  C52      1.0000 0.95680  0.98298  0.98535  Biso   1.000  C
  H77      1.0000 0.92210  0.94750  0.00830  Biso   1.000  H
  H78      1.0000 0.98420  0.95410  0.95620  Biso   1.000  H
  N40      1.0000 0.73366  0.62056  0.56919  Biso   1.000  N
  N41      1.0000 0.86910  0.65051  0.52074  Biso   1.000  N
  N42      1.0000 0.83081  0.58339  0.50560  Biso   1.000  N
  C53      1.0000 0.80890  0.67029  0.55891  Biso   1.000  C
  H79      1.0000 0.81720  0.71530  0.57760  Biso   1.000  H
  C54      1.0000 0.75021  0.56651  0.53428  Biso   1.000  C
  H80      1.0000 0.71080  0.52290  0.53050  Biso   1.000  H
  C55      1.0000 0.87900  0.53840  0.46415  Biso   1.000  C
  H81      1.0000 0.91220  0.57240  0.43950  Biso   1.000  H
  H82      1.0000 0.82680  0.51050  0.44520  Biso   1.000  H
  C56      1.0000 0.95680  0.48298  0.48535  Biso   1.000  C
  H83      1.0000 0.92210  0.44750  0.50830  Biso   1.000  H
  H84      1.0000 0.98420  0.45410  0.45620  Biso   1.000  H
  N43      1.0000 0.23366  0.12056  0.56919  Biso   1.000  N
  N44      1.0000 0.36910  0.15051  0.52074  Biso   1.000  N
  N45      1.0000 0.33081  0.08339  0.50560  Biso   1.000  N
  C57      1.0000 0.30890  0.17029  0.55891  Biso   1.000  C
  H85      1.0000 0.31720  0.21530  0.57760  Biso   1.000  H
  C58      1.0000 0.25021  0.06651  0.53428  Biso   1.000  C
  H86      1.0000 0.21080  0.02290  0.53050  Biso   1.000  H
  C59      1.0000 0.37900  0.03840  0.46415  Biso   1.000  C
  H87      1.0000 0.41220  0.07240  0.43950  Biso   1.000  H
  H88      1.0000 0.32680  0.01050  0.44520  Biso   1.000  H
  C60      1.0000 0.45680  0.98298  0.48535  Biso   1.000  C
  H89      1.0000 0.42210  0.94750  0.50830  Biso   1.000  H
  H90      1.0000 0.48420  0.95410  0.45620  Biso   1.000  H
  N46      1.0000 0.23366  0.62056  0.06919  Biso   1.000  N
  N47      1.0000 0.36910  0.65051  0.02074  Biso   1.000  N
  N48      1.0000 0.33081  0.58339  0.00560  Biso   1.000  N
  C61      1.0000 0.30890  0.67029  0.05891  Biso   1.000  C
  H91      1.0000 0.31720  0.71530  0.07760  Biso   1.000  H
  C62      1.0000 0.25021  0.56651  0.03428  Biso   1.000  C
  H92      1.0000 0.21080  0.52290  0.03050  Biso   1.000  H
  C63      1.0000 0.37900  0.53840  0.96415  Biso   1.000  C
  H93      1.0000 0.41220  0.57240  0.93950  Biso   1.000  H
  H94      1.0000 0.32680  0.51050  0.94520  Biso   1.000  H
  C64      1.0000 0.45680  0.48298  0.98535  Biso   1.000  C
  H95      1.0000 0.42210  0.44750  0.00830  Biso   1.000  H
  H96      1.0000 0.48420  0.45410  0.95620  Biso   1.000  H
  N49      1.0000 0.26634  0.37056  0.31919  Biso   1.000  N
  N50      1.0000 0.13090  0.40051  0.27074  Biso   1.000  N
  N51      1.0000 0.16919  0.33339  0.25560  Biso   1.000  N
  C65      1.0000 0.19110  0.42029  0.30891  Biso   1.000  C
  H97      1.0000 0.18280  0.46530  0.32760  Biso   1.000  H
  C66      1.0000 0.24979  0.31651  0.28428  Biso   1.000  C
  H98      1.0000 0.28920  0.27290  0.28050  Biso   1.000  H
  C67      1.0000 0.12100  0.28840  0.21415  Biso   1.000  C
  H99      1.0000 0.08780  0.32240  0.18950  Biso   1.000  H
  H100     1.0000 0.17320  0.26050  0.19520  Biso   1.000  H
  C68      1.0000 0.04320  0.23298  0.23535  Biso   1.000  C
  H101     1.0000 0.07790  0.19750  0.25830  Biso   1.000  H
  H102     1.0000 0.01580  0.20410  0.20620  Biso   1.000  H
  N52      1.0000 0.26634  0.87056  0.81919  Biso   1.000  N
  N53      1.0000 0.13090  0.90051  0.77074  Biso   1.000  N
  N54      1.0000 0.16919  0.83339  0.75560  Biso   1.000  N
  C69      1.0000 0.19110  0.92029  0.80891  Biso   1.000  C
  H103     1.0000 0.18280  0.96530  0.82760  Biso   1.000  H
  C70      1.0000 0.24979  0.81651  0.78428  Biso   1.000  C
  H104     1.0000 0.28920  0.77290  0.78050  Biso   1.000  H
  C71      1.0000 0.12100  0.78840  0.71415  Biso   1.000  C
  H105     1.0000 0.08780  0.82240  0.68950  Biso   1.000  H
  H106     1.0000 0.17320  0.76050  0.69520  Biso   1.000  H
  C72      1.0000 0.04320  0.73298  0.73535  Biso   1.000  C
  H107     1.0000 0.07790  0.69750  0.75830  Biso   1.000  H
  H108     1.0000 0.01580  0.70410  0.70620  Biso   1.000  H
  N55      1.0000 0.76634  0.37056  0.81919  Biso   1.000  N
  N56      1.0000 0.63090  0.40051  0.77074  Biso   1.000  N
  N57      1.0000 0.66919  0.33339  0.75560  Biso   1.000  N
  C73      1.0000 0.69110  0.42029  0.80891  Biso   1.000  C
  H109     1.0000 0.68280  0.46530  0.82760  Biso   1.000  H
  C74      1.0000 0.74979  0.31651  0.78428  Biso   1.000  C
  H110     1.0000 0.78920  0.27290  0.78050  Biso   1.000  H
  C75      1.0000 0.62100  0.28840  0.71415  Biso   1.000  C
  H111     1.0000 0.58780  0.32240  0.68950  Biso   1.000  H
  H112     1.0000 0.67320  0.26050  0.69520  Biso   1.000  H
  C76      1.0000 0.54320  0.23298  0.73535  Biso   1.000  C
  H113     1.0000 0.57790  0.19750  0.75830  Biso   1.000  H
  H114     1.0000 0.51580  0.20410  0.70620  Biso   1.000  H
  N58      1.0000 0.76634  0.87056  0.31919  Biso   1.000  N
  N59      1.0000 0.63090  0.90051  0.27074  Biso   1.000  N
  N60      1.0000 0.66919  0.83339  0.25560  Biso   1.000  N
  C77      1.0000 0.69110  0.92029  0.30891  Biso   1.000  C
  H115     1.0000 0.68280  0.96530  0.32760  Biso   1.000  H
  C78      1.0000 0.74979  0.81651  0.28428  Biso   1.000  C
  H116     1.0000 0.78920  0.77290  0.28050  Biso   1.000  H
  C79      1.0000 0.62100  0.78840  0.21415  Biso   1.000  C
  H117     1.0000 0.58780  0.82240  0.18950  Biso   1.000  H
  H118     1.0000 0.67320  0.76050  0.19520  Biso   1.000  H
  C80      1.0000 0.54320  0.73298  0.23535  Biso   1.000  C
  H119     1.0000 0.57790  0.69750  0.25830  Biso   1.000  H
  H120     1.0000 0.51580  0.70410  0.20620  Biso   1.000  H
  N61      1.0000 0.98366  0.87944  0.31919  Biso   1.000  N
  N62      1.0000 0.11910  0.84949  0.27074  Biso   1.000  N
  N63      1.0000 0.08081  0.91661  0.25560  Biso   1.000  N
  C81      1.0000 0.05890  0.82971  0.30891  Biso   1.000  C
  H121     1.0000 0.06720  0.78470  0.32760  Biso   1.000  H
  C82      1.0000 0.00021  0.93349  0.28428  Biso   1.000  C
  H122     1.0000 0.96080  0.97710  0.28050  Biso   1.000  H
  C83      1.0000 0.12900  0.96160  0.21415  Biso   1.000  C
  H123     1.0000 0.16220  0.92760  0.18950  Biso   1.000  H
  H124     1.0000 0.07680  0.98950  0.19520  Biso   1.000  H
  C84      1.0000 0.20680  0.01702  0.23535  Biso   1.000  C
  H125     1.0000 0.17210  0.05250  0.25830  Biso   1.000  H
  H126     1.0000 0.23420  0.04590  0.20620  Biso   1.000  H
  N64      1.0000 0.98366  0.37944  0.81919  Biso   1.000  N
  N65      1.0000 0.11910  0.34949  0.77074  Biso   1.000  N
  N66      1.0000 0.08081  0.41661  0.75560  Biso   1.000  N
  C85      1.0000 0.05890  0.32971  0.80891  Biso   1.000  C
  H127     1.0000 0.06720  0.28470  0.82760  Biso   1.000  H
  C86      1.0000 0.00021  0.43349  0.78428  Biso   1.000  C
  H128     1.0000 0.96080  0.47710  0.78050  Biso   1.000  H
  C87      1.0000 0.12900  0.46160  0.71415  Biso   1.000  C
  H129     1.0000 0.16220  0.42760  0.68950  Biso   1.000  H
  H130     1.0000 0.07680  0.48950  0.69520  Biso   1.000  H
  C88      1.0000 0.20680  0.51702  0.73535  Biso   1.000  C
  H131     1.0000 0.17210  0.55250  0.75830  Biso   1.000  H
  H132     1.0000 0.23420  0.54590  0.70620  Biso   1.000  H
  N67      1.0000 0.48366  0.87944  0.81919  Biso   1.000  N
  N68      1.0000 0.61910  0.84949  0.77074  Biso   1.000  N
  N69      1.0000 0.58081  0.91661  0.75560  Biso   1.000  N
  C89      1.0000 0.55890  0.82971  0.80891  Biso   1.000  C
  H133     1.0000 0.56720  0.78470  0.82760  Biso   1.000  H
  C90      1.0000 0.50021  0.93349  0.78428  Biso   1.000  C
  H134     1.0000 0.46080  0.97710  0.78050  Biso   1.000  H
  C91      1.0000 0.62900  0.96160  0.71415  Biso   1.000  C
  H135     1.0000 0.66220  0.92760  0.68950  Biso   1.000  H
  H136     1.0000 0.57680  0.98950  0.69520  Biso   1.000  H
  C92      1.0000 0.70680  0.01702  0.73535  Biso   1.000  C
  H137     1.0000 0.67210  0.05250  0.75830  Biso   1.000  H
  H138     1.0000 0.73420  0.04590  0.70620  Biso   1.000  H
  N70      1.0000 0.48366  0.37944  0.31919  Biso   1.000  N
  N71      1.0000 0.61910  0.34949  0.27074  Biso   1.000  N
  N72      1.0000 0.58081  0.41661  0.25560  Biso   1.000  N
  C93      1.0000 0.55890  0.32971  0.30891  Biso   1.000  C
  H139     1.0000 0.56720  0.28470  0.32760  Biso   1.000  H
  C94      1.0000 0.50021  0.43349  0.28428  Biso   1.000  C
  H140     1.0000 0.46080  0.47710  0.28050  Biso   1.000  H
  C95      1.0000 0.62900  0.46160  0.21415  Biso   1.000  C
  H141     1.0000 0.66220  0.42760  0.18950  Biso   1.000  H
  H142     1.0000 0.57680  0.48950  0.19520  Biso   1.000  H
  C96      1.0000 0.70680  0.51702  0.23535  Biso   1.000  C
  H143     1.0000 0.67210  0.55250  0.25830  Biso   1.000  H
  H144     1.0000 0.73420  0.54590  0.20620  Biso   1.000  H
  N73      1.0000 0.98366  0.37056  0.93081  Biso   1.000  N
  N74      1.0000 0.11910  0.40051  0.97926  Biso   1.000  N
  N75      1.0000 0.08081  0.33339  0.99440  Biso   1.000  N
  C97      1.0000 0.05890  0.42029  0.94109  Biso   1.000  C
  H145     1.0000 0.06720  0.46530  0.92240  Biso   1.000  H
  C98      1.0000 0.00021  0.31651  0.96572  Biso   1.000  C
  H146     1.0000 0.96080  0.27290  0.96950  Biso   1.000  H
  C99      1.0000 0.12900  0.28840  0.03585  Biso   1.000  C
  H147     1.0000 0.16220  0.32240  0.06050  Biso   1.000  H
  H148     1.0000 0.07680  0.26050  0.05480  Biso   1.000  H
  C100     1.0000 0.20680  0.23298  0.01465  Biso   1.000  C
  H149     1.0000 0.17210  0.19750  0.99170  Biso   1.000  H
  H150     1.0000 0.23420  0.20410  0.04380  Biso   1.000  H
  N76      1.0000 0.98366  0.87056  0.43081  Biso   1.000  N
  N77      1.0000 0.11910  0.90051  0.47926  Biso   1.000  N
  N78      1.0000 0.08081  0.83339  0.49440  Biso   1.000  N
  C101     1.0000 0.05890  0.92029  0.44109  Biso   1.000  C
  H151     1.0000 0.06720  0.96530  0.42240  Biso   1.000  H
  C102     1.0000 0.00021  0.81651  0.46572  Biso   1.000  C
  H152     1.0000 0.96080  0.77290  0.46950  Biso   1.000  H
  C103     1.0000 0.12900  0.78840  0.53585  Biso   1.000  C
  H153     1.0000 0.16220  0.82240  0.56050  Biso   1.000  H
  H154     1.0000 0.07680  0.76050  0.55480  Biso   1.000  H
  C104     1.0000 0.20680  0.73298  0.51465  Biso   1.000  C
  H155     1.0000 0.17210  0.69750  0.49170  Biso   1.000  H
  H156     1.0000 0.23420  0.70410  0.54380  Biso   1.000  H
  N79      1.0000 0.48366  0.37056  0.43081  Biso   1.000  N
  N80      1.0000 0.61910  0.40051  0.47926  Biso   1.000  N
  N81      1.0000 0.58081  0.33339  0.49440  Biso   1.000  N
  C105     1.0000 0.55890  0.42029  0.44109  Biso   1.000  C
  H157     1.0000 0.56720  0.46530  0.42240  Biso   1.000  H
  C106     1.0000 0.50021  0.31651  0.46572  Biso   1.000  C
  H158     1.0000 0.46080  0.27290  0.46950  Biso   1.000  H
  C107     1.0000 0.62900  0.28840  0.53585  Biso   1.000  C
  H159     1.0000 0.66220  0.32240  0.56050  Biso   1.000  H
  H160     1.0000 0.57680  0.26050  0.55480  Biso   1.000  H
  C108     1.0000 0.70680  0.23298  0.51465  Biso   1.000  C
  H161     1.0000 0.67210  0.19750  0.49170  Biso   1.000  H
  H162     1.0000 0.73420  0.20410  0.54380  Biso   1.000  H
  N82      1.0000 0.48366  0.87056  0.93081  Biso   1.000  N
  N83      1.0000 0.61910  0.90051  0.97926  Biso   1.000  N
  N84      1.0000 0.58081  0.83339  0.99440  Biso   1.000  N
  C109     1.0000 0.55890  0.92029  0.94109  Biso   1.000  C
  H163     1.0000 0.56720  0.96530  0.92240  Biso   1.000  H
  C110     1.0000 0.50021  0.81651  0.96572  Biso   1.000  C
  H164     1.0000 0.46080  0.77290  0.96950  Biso   1.000  H
  C111     1.0000 0.62900  0.78840  0.03585  Biso   1.000  C
  H165     1.0000 0.66220  0.82240  0.06050  Biso   1.000  H
  H166     1.0000 0.57680  0.76050  0.05480  Biso   1.000  H
  C112     1.0000 0.70680  0.73298  0.01465  Biso   1.000  C
  H167     1.0000 0.67210  0.69750  0.99170  Biso   1.000  H
  H168     1.0000 0.73420  0.70410  0.04380  Biso   1.000  H
  N85      1.0000 0.26634  0.87944  0.93081  Biso   1.000  N
  N86      1.0000 0.13090  0.84949  0.97926  Biso   1.000  N
  N87      1.0000 0.16919  0.91661  0.99440  Biso   1.000  N
  C113     1.0000 0.19110  0.82971  0.94109  Biso   1.000  C
  H169     1.0000 0.18280  0.78470  0.92240  Biso   1.000  H
  C114     1.0000 0.24979  0.93349  0.96572  Biso   1.000  C
  H170     1.0000 0.28920  0.97710  0.96950  Biso   1.000  H
  C115     1.0000 0.12100  0.96160  0.03585  Biso   1.000  C
  H171     1.0000 0.08780  0.92760  0.06050  Biso   1.000  H
  H172     1.0000 0.17320  0.98950  0.05480  Biso   1.000  H
  C116     1.0000 0.04320  0.01702  0.01465  Biso   1.000  C
  H173     1.0000 0.07790  0.05250  0.99170  Biso   1.000  H
  H174     1.0000 0.01580  0.04590  0.04380  Biso   1.000  H
  N88      1.0000 0.26634  0.37944  0.43081  Biso   1.000  N
  N89      1.0000 0.13090  0.34949  0.47926  Biso   1.000  N
  N90      1.0000 0.16919  0.41661  0.49440  Biso   1.000  N
  C117     1.0000 0.19110  0.32971  0.44109  Biso   1.000  C
  H175     1.0000 0.18280  0.28470  0.42240  Biso   1.000  H
  C118     1.0000 0.24979  0.43349  0.46572  Biso   1.000  C
  H176     1.0000 0.28920  0.47710  0.46950  Biso   1.000  H
  C119     1.0000 0.12100  0.46160  0.53585  Biso   1.000  C
  H177     1.0000 0.08780  0.42760  0.56050  Biso   1.000  H
  H178     1.0000 0.17320  0.48950  0.55480  Biso   1.000  H
  C120     1.0000 0.04320  0.51702  0.51465  Biso   1.000  C
  H179     1.0000 0.07790  0.55250  0.49170  Biso   1.000  H
  H180     1.0000 0.01580  0.54590  0.54380  Biso   1.000  H
  N91      1.0000 0.76634  0.87944  0.43081  Biso   1.000  N
  N92      1.0000 0.63090  0.84949  0.47926  Biso   1.000  N
  N93      1.0000 0.66919  0.91661  0.49440  Biso   1.000  N
  C121     1.0000 0.69110  0.82971  0.44109  Biso   1.000  C
  H181     1.0000 0.68280  0.78470  0.42240  Biso   1.000  H
  C122     1.0000 0.74979  0.93349  0.46572  Biso   1.000  C
  H182     1.0000 0.78920  0.97710  0.46950  Biso   1.000  H
  C123     1.0000 0.62100  0.96160  0.53585  Biso   1.000  C
  H183     1.0000 0.58780  0.92760  0.56050  Biso   1.000  H
  H184     1.0000 0.67320  0.98950  0.55480  Biso   1.000  H
  C124     1.0000 0.54320  0.01702  0.51465  Biso   1.000  C
  H185     1.0000 0.57790  0.05250  0.49170  Biso   1.000  H
  H186     1.0000 0.51580  0.04590  0.54380  Biso   1.000  H
  N94      1.0000 0.76634  0.37944  0.93081  Biso   1.000  N
  N95      1.0000 0.63090  0.34949  0.97926  Biso   1.000  N
  N96      1.0000 0.66919  0.41661  0.99440  Biso   1.000  N
  C125     1.0000 0.69110  0.32971  0.94109  Biso   1.000  C
  H187     1.0000 0.68280  0.28470  0.92240  Biso   1.000  H
  C126     1.0000 0.74979  0.43349  0.96572  Biso   1.000  C
  H188     1.0000 0.78920  0.47710  0.96950  Biso   1.000  H
  C127     1.0000 0.62100  0.46160  0.03585  Biso   1.000  C
  H189     1.0000 0.58780  0.42760  0.06050  Biso   1.000  H
  H190     1.0000 0.67320  0.48950  0.05480  Biso   1.000  H
  C128     1.0000 0.54320  0.51702  0.01465  Biso   1.000  C
  H191     1.0000 0.57790  0.55250  0.99170  Biso   1.000  H
  H192     1.0000 0.51580  0.54590  0.04380  Biso   1.000  H
  Cu1      1.0000 0.62500  0.62500  0.62500  Biso   1.000  Cu
  Cu2      1.0000 0.12500  0.12500  0.62500  Biso   1.000  Cu
  Cu3      1.0000 0.12500  0.62500  0.12500  Biso   1.000  Cu
  Cu4      1.0000 0.62500  0.12500  0.12500  Biso   1.000  Cu
  Cu5      1.0000 0.37500  0.37500  0.37500  Biso   1.000  Cu
  Cu6      1.0000 0.87500  0.87500  0.37500  Biso   1.000  Cu
  Cu7      1.0000 0.87500  0.37500  0.87500  Biso   1.000  Cu
  Cu8      1.0000 0.37500  0.87500  0.87500  Biso   1.000  Cu
