data_image0
_cell_length_a       25.054
_cell_length_b       13.2154
_cell_length_c       17.3885
_cell_angle_alpha    90
_cell_angle_beta     90
_cell_angle_gamma    90

_symmetry_space_group_name_H-M    "P 1"
_symmetry_int_tables_number       1

loop_
  _symmetry_equiv_pos_as_xyz
  'x, y, z'

loop_
  _atom_site_label
  _atom_site_occupancy
  _atom_site_fract_x
  _atom_site_fract_y
  _atom_site_fract_z
  _atom_site_thermal_displace_type
  _atom_site_B_iso_or_equiv
  _atom_site_type_symbol
  N1       1.0000 0.25390  0.08000  0.91800  Biso   1.000  N
  N2       1.0000 0.26900  0.11780  0.84900  Biso   1.000  N
  N3       1.0000 0.31790  0.98270  0.87940  Biso   1.000  N
  C1       1.0000 0.28370  0.99980  0.93520  Biso   1.000  C
  H1       1.0000 0.28070  0.96160  0.97980  Biso   1.000  H
  C2       1.0000 0.30720  0.05650  0.82840  Biso   1.000  C
  H2       1.0000 0.32560  0.06330  0.78220  Biso   1.000  H
  C3       1.0000 0.21270  0.12940  0.96440  Biso   1.000  C
  H3       1.0000 0.18750  0.16260  0.93040  Biso   1.000  H
  H4       1.0000 0.19350  0.07830  0.99330  Biso   1.000  H
  C4       1.0000 0.23540  0.20670  0.01980  Biso   1.000  C
  H5       1.0000 0.20650  0.23440  0.05040  Biso   1.000  H
  H6       1.0000 0.25990  0.17300  0.05450  Biso   1.000  H
  N4       1.0000 0.25390  0.58000  0.41800  Biso   1.000  N
  N5       1.0000 0.26900  0.61780  0.34900  Biso   1.000  N
  N6       1.0000 0.31790  0.48270  0.37940  Biso   1.000  N
  C5       1.0000 0.28370  0.49980  0.43520  Biso   1.000  C
  H7       1.0000 0.28070  0.46160  0.47980  Biso   1.000  H
  C6       1.0000 0.30720  0.55650  0.32840  Biso   1.000  C
  H8       1.0000 0.32560  0.56330  0.28220  Biso   1.000  H
  C7       1.0000 0.21270  0.62940  0.46440  Biso   1.000  C
  H9       1.0000 0.18750  0.66260  0.43040  Biso   1.000  H
  H10      1.0000 0.19350  0.57830  0.49330  Biso   1.000  H
  C8       1.0000 0.23540  0.70670  0.51980  Biso   1.000  C
  H11      1.0000 0.20650  0.73440  0.55040  Biso   1.000  H
  H12      1.0000 0.25990  0.67300  0.55450  Biso   1.000  H
  N7       1.0000 0.75390  0.08000  0.41800  Biso   1.000  N
  N8       1.0000 0.76900  0.11780  0.34900  Biso   1.000  N
  N9       1.0000 0.81790  0.98270  0.37940  Biso   1.000  N
  C9       1.0000 0.78370  0.99980  0.43520  Biso   1.000  C
  H13      1.0000 0.78070  0.96160  0.47980  Biso   1.000  H
  C10      1.0000 0.80720  0.05650  0.32840  Biso   1.000  C
  H14      1.0000 0.82560  0.06330  0.28220  Biso   1.000  H
  C11      1.0000 0.71270  0.12940  0.46440  Biso   1.000  C
  H15      1.0000 0.68750  0.16260  0.43040  Biso   1.000  H
  H16      1.0000 0.69350  0.07830  0.49330  Biso   1.000  H
  C12      1.0000 0.73540  0.20670  0.51980  Biso   1.000  C
  H17      1.0000 0.70650  0.23440  0.55040  Biso   1.000  H
  H18      1.0000 0.75990  0.17300  0.55450  Biso   1.000  H
  N10      1.0000 0.75390  0.58000  0.91800  Biso   1.000  N
  N11      1.0000 0.76900  0.61780  0.84900  Biso   1.000  N
  N12      1.0000 0.81790  0.48270  0.87940  Biso   1.000  N
  C13      1.0000 0.78370  0.49980  0.93520  Biso   1.000  C
  H19      1.0000 0.78070  0.46160  0.97980  Biso   1.000  H
  C14      1.0000 0.80720  0.55650  0.82840  Biso   1.000  C
  H20      1.0000 0.82560  0.56330  0.78220  Biso   1.000  H
  C15      1.0000 0.71270  0.62940  0.96440  Biso   1.000  C
  H21      1.0000 0.68750  0.66260  0.93040  Biso   1.000  H
  H22      1.0000 0.69350  0.57830  0.99330  Biso   1.000  H
  C16      1.0000 0.73540  0.70670  0.01980  Biso   1.000  C
  H23      1.0000 0.70650  0.73440  0.05040  Biso   1.000  H
  H24      1.0000 0.75990  0.67300  0.05450  Biso   1.000  H
  N13      1.0000 0.49610  0.67000  0.91800  Biso   1.000  N
  N14      1.0000 0.48100  0.63220  0.84900  Biso   1.000  N
  N15      1.0000 0.43210  0.76730  0.87940  Biso   1.000  N
  C17      1.0000 0.46630  0.75020  0.93520  Biso   1.000  C
  H25      1.0000 0.46930  0.78840  0.97980  Biso   1.000  H
  C18      1.0000 0.44280  0.69350  0.82840  Biso   1.000  C
  H26      1.0000 0.42440  0.68670  0.78220  Biso   1.000  H
  C19      1.0000 0.53730  0.62060  0.96440  Biso   1.000  C
  H27      1.0000 0.56250  0.58740  0.93040  Biso   1.000  H
  H28      1.0000 0.55650  0.67170  0.99330  Biso   1.000  H
  C20      1.0000 0.51460  0.54330  0.01980  Biso   1.000  C
  H29      1.0000 0.54350  0.51560  0.05040  Biso   1.000  H
  H30      1.0000 0.49010  0.57700  0.05450  Biso   1.000  H
  N16      1.0000 0.49610  0.17000  0.41800  Biso   1.000  N
  N17      1.0000 0.48100  0.13220  0.34900  Biso   1.000  N
  N18      1.0000 0.43210  0.26730  0.37940  Biso   1.000  N
  C21      1.0000 0.46630  0.25020  0.43520  Biso   1.000  C
  H31      1.0000 0.46930  0.28840  0.47980  Biso   1.000  H
  C22      1.0000 0.44280  0.19350  0.32840  Biso   1.000  C
  H32      1.0000 0.42440  0.18670  0.28220  Biso   1.000  H
  C23      1.0000 0.53730  0.12060  0.46440  Biso   1.000  C
  H33      1.0000 0.56250  0.08740  0.43040  Biso   1.000  H
  H34      1.0000 0.55650  0.17170  0.49330  Biso   1.000  H
  C24      1.0000 0.51460  0.04330  0.51980  Biso   1.000  C
  H35      1.0000 0.54350  0.01560  0.55040  Biso   1.000  H
  H36      1.0000 0.49010  0.07700  0.55450  Biso   1.000  H
  N19      1.0000 0.99610  0.67000  0.41800  Biso   1.000  N
  N20      1.0000 0.98100  0.63220  0.34900  Biso   1.000  N
  N21      1.0000 0.93210  0.76730  0.37940  Biso   1.000  N
  C25      1.0000 0.96630  0.75020  0.43520  Biso   1.000  C
  H37      1.0000 0.96930  0.78840  0.47980  Biso   1.000  H
  C26      1.0000 0.94280  0.69350  0.32840  Biso   1.000  C
  H38      1.0000 0.92440  0.68670  0.28220  Biso   1.000  H
  C27      1.0000 0.03730  0.62060  0.46440  Biso   1.000  C
  H39      1.0000 0.06250  0.58740  0.43040  Biso   1.000  H
  H40      1.0000 0.05650  0.67170  0.49330  Biso   1.000  H
  C28      1.0000 0.01460  0.54330  0.51980  Biso   1.000  C
  H41      1.0000 0.04350  0.51560  0.55040  Biso   1.000  H
  H42      1.0000 0.99010  0.57700  0.55450  Biso   1.000  H
  N22      1.0000 0.99610  0.17000  0.91800  Biso   1.000  N
  N23      1.0000 0.98100  0.13220  0.84900  Biso   1.000  N
  N24      1.0000 0.93210  0.26730  0.87940  Biso   1.000  N
  C29      1.0000 0.96630  0.25020  0.93520  Biso   1.000  C
  H43      1.0000 0.96930  0.28840  0.97980  Biso   1.000  H
  C30      1.0000 0.94280  0.19350  0.82840  Biso   1.000  C
  H44      1.0000 0.92440  0.18670  0.78220  Biso   1.000  H
  C31      1.0000 0.03730  0.12060  0.96440  Biso   1.000  C
  H45      1.0000 0.06250  0.08740  0.93040  Biso   1.000  H
  H46      1.0000 0.05650  0.17170  0.99330  Biso   1.000  H
  C32      1.0000 0.01460  0.04330  0.01980  Biso   1.000  C
  H47      1.0000 0.04350  0.01560  0.05040  Biso   1.000  H
  H48      1.0000 0.99010  0.07700  0.05450  Biso   1.000  H
  N25      1.0000 0.49610  0.08000  0.83200  Biso   1.000  N
  N26      1.0000 0.48100  0.11780  0.90100  Biso   1.000  N
  N27      1.0000 0.43210  0.98270  0.87060  Biso   1.000  N
  C33      1.0000 0.46630  0.99980  0.81480  Biso   1.000  C
  H49      1.0000 0.46930  0.96160  0.77020  Biso   1.000  H
  C34      1.0000 0.44280  0.05650  0.92160  Biso   1.000  C
  H50      1.0000 0.42440  0.06330  0.96780  Biso   1.000  H
  C35      1.0000 0.53730  0.12940  0.78560  Biso   1.000  C
  H51      1.0000 0.56250  0.16260  0.81960  Biso   1.000  H
  H52      1.0000 0.55650  0.07830  0.75670  Biso   1.000  H
  C36      1.0000 0.51460  0.20670  0.73020  Biso   1.000  C
  H53      1.0000 0.54350  0.23440  0.69960  Biso   1.000  H
  H54      1.0000 0.49010  0.17300  0.69550  Biso   1.000  H
  N28      1.0000 0.49610  0.58000  0.33200  Biso   1.000  N
  N29      1.0000 0.48100  0.61780  0.40100  Biso   1.000  N
  N30      1.0000 0.43210  0.48270  0.37060  Biso   1.000  N
  C37      1.0000 0.46630  0.49980  0.31480  Biso   1.000  C
  H55      1.0000 0.46930  0.46160  0.27020  Biso   1.000  H
  C38      1.0000 0.44280  0.55650  0.42160  Biso   1.000  C
  H56      1.0000 0.42440  0.56330  0.46780  Biso   1.000  H
  C39      1.0000 0.53730  0.62940  0.28560  Biso   1.000  C
  H57      1.0000 0.56250  0.66260  0.31960  Biso   1.000  H
  H58      1.0000 0.55650  0.57830  0.25670  Biso   1.000  H
  C40      1.0000 0.51460  0.70670  0.23020  Biso   1.000  C
  H59      1.0000 0.54350  0.73440  0.19960  Biso   1.000  H
  H60      1.0000 0.49010  0.67300  0.19550  Biso   1.000  H
  N31      1.0000 0.99610  0.08000  0.33200  Biso   1.000  N
  N32      1.0000 0.98100  0.11780  0.40100  Biso   1.000  N
  N33      1.0000 0.93210  0.98270  0.37060  Biso   1.000  N
  C41      1.0000 0.96630  0.99980  0.31480  Biso   1.000  C
  H61      1.0000 0.96930  0.96160  0.27020  Biso   1.000  H
  C42      1.0000 0.94280  0.05650  0.42160  Biso   1.000  C
  H62      1.0000 0.92440  0.06330  0.46780  Biso   1.000  H
  C43      1.0000 0.03730  0.12940  0.28560  Biso   1.000  C
  H63      1.0000 0.06250  0.16260  0.31960  Biso   1.000  H
  H64      1.0000 0.05650  0.07830  0.25670  Biso   1.000  H
  C44      1.0000 0.01460  0.20670  0.23020  Biso   1.000  C
  H65      1.0000 0.04350  0.23440  0.19960  Biso   1.000  H
  H66      1.0000 0.99010  0.17300  0.19550  Biso   1.000  H
  N34      1.0000 0.99610  0.58000  0.83200  Biso   1.000  N
  N35      1.0000 0.98100  0.61780  0.90100  Biso   1.000  N
  N36      1.0000 0.93210  0.48270  0.87060  Biso   1.000  N
  C45      1.0000 0.96630  0.49980  0.81480  Biso   1.000  C
  H67      1.0000 0.96930  0.46160  0.77020  Biso   1.000  H
  C46      1.0000 0.94280  0.55650  0.92160  Biso   1.000  C
  H68      1.0000 0.92440  0.56330  0.96780  Biso   1.000  H
  C47      1.0000 0.03730  0.62940  0.78560  Biso   1.000  C
  H69      1.0000 0.06250  0.66260  0.81960  Biso   1.000  H
  H70      1.0000 0.05650  0.57830  0.75670  Biso   1.000  H
  C48      1.0000 0.01460  0.70670  0.73020  Biso   1.000  C
  H71      1.0000 0.04350  0.73440  0.69960  Biso   1.000  H
  H72      1.0000 0.99010  0.67300  0.69550  Biso   1.000  H
  N37      1.0000 0.25390  0.67000  0.83200  Biso   1.000  N
  N38      1.0000 0.26900  0.63220  0.90100  Biso   1.000  N
  N39      1.0000 0.31790  0.76730  0.87060  Biso   1.000  N
  C49      1.0000 0.28370  0.75020  0.81480  Biso   1.000  C
  H73      1.0000 0.28070  0.78840  0.77020  Biso   1.000  H
  C50      1.0000 0.30720  0.69350  0.92160  Biso   1.000  C
  H74      1.0000 0.32560  0.68670  0.96780  Biso   1.000  H
  C51      1.0000 0.21270  0.62060  0.78560  Biso   1.000  C
  H75      1.0000 0.18750  0.58740  0.81960  Biso   1.000  H
  H76      1.0000 0.19350  0.67170  0.75670  Biso   1.000  H
  C52      1.0000 0.23540  0.54330  0.73020  Biso   1.000  C
  H77      1.0000 0.20650  0.51560  0.69960  Biso   1.000  H
  H78      1.0000 0.25990  0.57700  0.69550  Biso   1.000  H
  N40      1.0000 0.25390  0.17000  0.33200  Biso   1.000  N
  N41      1.0000 0.26900  0.13220  0.40100  Biso   1.000  N
  N42      1.0000 0.31790  0.26730  0.37060  Biso   1.000  N
  C53      1.0000 0.28370  0.25020  0.31480  Biso   1.000  C
  H79      1.0000 0.28070  0.28840  0.27020  Biso   1.000  H
  C54      1.0000 0.30720  0.19350  0.42160  Biso   1.000  C
  H80      1.0000 0.32560  0.18670  0.46780  Biso   1.000  H
  C55      1.0000 0.21270  0.12060  0.28560  Biso   1.000  C
  H81      1.0000 0.18750  0.08740  0.31960  Biso   1.000  H
  H82      1.0000 0.19350  0.17170  0.25670  Biso   1.000  H
  C56      1.0000 0.23540  0.04330  0.23020  Biso   1.000  C
  H83      1.0000 0.20650  0.01560  0.19960  Biso   1.000  H
  H84      1.0000 0.25990  0.07700  0.19550  Biso   1.000  H
  N43      1.0000 0.75390  0.67000  0.33200  Biso   1.000  N
  N44      1.0000 0.76900  0.63220  0.40100  Biso   1.000  N
  N45      1.0000 0.81790  0.76730  0.37060  Biso   1.000  N
  C57      1.0000 0.78370  0.75020  0.31480  Biso   1.000  C
  H85      1.0000 0.78070  0.78840  0.27020  Biso   1.000  H
  C58      1.0000 0.80720  0.69350  0.42160  Biso   1.000  C
  H86      1.0000 0.82560  0.68670  0.46780  Biso   1.000  H
  C59      1.0000 0.71270  0.62060  0.28560  Biso   1.000  C
  H87      1.0000 0.68750  0.58740  0.31960  Biso   1.000  H
  H88      1.0000 0.69350  0.67170  0.25670  Biso   1.000  H
  C60      1.0000 0.73540  0.54330  0.23020  Biso   1.000  C
  H89      1.0000 0.70650  0.51560  0.19960  Biso   1.000  H
  H90      1.0000 0.75990  0.57700  0.19550  Biso   1.000  H
  N46      1.0000 0.75390  0.17000  0.83200  Biso   1.000  N
  N47      1.0000 0.76900  0.13220  0.90100  Biso   1.000  N
  N48      1.0000 0.81790  0.26730  0.87060  Biso   1.000  N
  C61      1.0000 0.78370  0.25020  0.81480  Biso   1.000  C
  H91      1.0000 0.78070  0.28840  0.77020  Biso   1.000  H
  C62      1.0000 0.80720  0.19350  0.92160  Biso   1.000  C
  H92      1.0000 0.82560  0.18670  0.96780  Biso   1.000  H
  C63      1.0000 0.71270  0.12060  0.78560  Biso   1.000  C
  H93      1.0000 0.68750  0.08740  0.81960  Biso   1.000  H
  H94      1.0000 0.69350  0.17170  0.75670  Biso   1.000  H
  C64      1.0000 0.73540  0.04330  0.73020  Biso   1.000  C
  H95      1.0000 0.70650  0.01560  0.69960  Biso   1.000  H
  H96      1.0000 0.75990  0.07700  0.69550  Biso   1.000  H
  N49      1.0000 0.74610  0.92000  0.08200  Biso   1.000  N
  N50      1.0000 0.73100  0.88220  0.15100  Biso   1.000  N
  N51      1.0000 0.68210  0.01730  0.12060  Biso   1.000  N
  C65      1.0000 0.71630  0.00020  0.06480  Biso   1.000  C
  H97      1.0000 0.71930  0.03840  0.02020  Biso   1.000  H
  C66      1.0000 0.69280  0.94350  0.17160  Biso   1.000  C
  H98      1.0000 0.67440  0.93670  0.21780  Biso   1.000  H
  C67      1.0000 0.78730  0.87060  0.03560  Biso   1.000  C
  H99      1.0000 0.81250  0.83740  0.06960  Biso   1.000  H
  H100     1.0000 0.80650  0.92170  0.00670  Biso   1.000  H
  C68      1.0000 0.76460  0.79330  0.98020  Biso   1.000  C
  H101     1.0000 0.79350  0.76560  0.94960  Biso   1.000  H
  H102     1.0000 0.74010  0.82700  0.94550  Biso   1.000  H
  N52      1.0000 0.74610  0.42000  0.58200  Biso   1.000  N
  N53      1.0000 0.73100  0.38220  0.65100  Biso   1.000  N
  N54      1.0000 0.68210  0.51730  0.62060  Biso   1.000  N
  C69      1.0000 0.71630  0.50020  0.56480  Biso   1.000  C
  H103     1.0000 0.71930  0.53840  0.52020  Biso   1.000  H
  C70      1.0000 0.69280  0.44350  0.67160  Biso   1.000  C
  H104     1.0000 0.67440  0.43670  0.71780  Biso   1.000  H
  C71      1.0000 0.78730  0.37060  0.53560  Biso   1.000  C
  H105     1.0000 0.81250  0.33740  0.56960  Biso   1.000  H
  H106     1.0000 0.80650  0.42170  0.50670  Biso   1.000  H
  C72      1.0000 0.76460  0.29330  0.48020  Biso   1.000  C
  H107     1.0000 0.79350  0.26560  0.44960  Biso   1.000  H
  H108     1.0000 0.74010  0.32700  0.44550  Biso   1.000  H
  N55      1.0000 0.24610  0.92000  0.58200  Biso   1.000  N
  N56      1.0000 0.23100  0.88220  0.65100  Biso   1.000  N
  N57      1.0000 0.18210  0.01730  0.62060  Biso   1.000  N
  C73      1.0000 0.21630  0.00020  0.56480  Biso   1.000  C
  H109     1.0000 0.21930  0.03840  0.52020  Biso   1.000  H
  C74      1.0000 0.19280  0.94350  0.67160  Biso   1.000  C
  H110     1.0000 0.17440  0.93670  0.71780  Biso   1.000  H
  C75      1.0000 0.28730  0.87060  0.53560  Biso   1.000  C
  H111     1.0000 0.31250  0.83740  0.56960  Biso   1.000  H
  H112     1.0000 0.30650  0.92170  0.50670  Biso   1.000  H
  C76      1.0000 0.26460  0.79330  0.48020  Biso   1.000  C
  H113     1.0000 0.29350  0.76560  0.44960  Biso   1.000  H
  H114     1.0000 0.24010  0.82700  0.44550  Biso   1.000  H
  N58      1.0000 0.24610  0.42000  0.08200  Biso   1.000  N
  N59      1.0000 0.23100  0.38220  0.15100  Biso   1.000  N
  N60      1.0000 0.18210  0.51730  0.12060  Biso   1.000  N
  C77      1.0000 0.21630  0.50020  0.06480  Biso   1.000  C
  H115     1.0000 0.21930  0.53840  0.02020  Biso   1.000  H
  C78      1.0000 0.19280  0.44350  0.17160  Biso   1.000  C
  H116     1.0000 0.17440  0.43670  0.21780  Biso   1.000  H
  C79      1.0000 0.28730  0.37060  0.03560  Biso   1.000  C
  H117     1.0000 0.31250  0.33740  0.06960  Biso   1.000  H
  H118     1.0000 0.30650  0.42170  0.00670  Biso   1.000  H
  C80      1.0000 0.26460  0.29330  0.98020  Biso   1.000  C
  H119     1.0000 0.29350  0.26560  0.94960  Biso   1.000  H
  H120     1.0000 0.24010  0.32700  0.94550  Biso   1.000  H
  N61      1.0000 0.50390  0.33000  0.08200  Biso   1.000  N
  N62      1.0000 0.51900  0.36780  0.15100  Biso   1.000  N
  N63      1.0000 0.56790  0.23270  0.12060  Biso   1.000  N
  C81      1.0000 0.53370  0.24980  0.06480  Biso   1.000  C
  H121     1.0000 0.53070  0.21160  0.02020  Biso   1.000  H
  C82      1.0000 0.55720  0.30650  0.17160  Biso   1.000  C
  H122     1.0000 0.57560  0.31330  0.21780  Biso   1.000  H
  C83      1.0000 0.46270  0.37940  0.03560  Biso   1.000  C
  H123     1.0000 0.43750  0.41260  0.06960  Biso   1.000  H
  H124     1.0000 0.44350  0.32830  0.00670  Biso   1.000  H
  C84      1.0000 0.48540  0.45670  0.98020  Biso   1.000  C
  H125     1.0000 0.45650  0.48440  0.94960  Biso   1.000  H
  H126     1.0000 0.50990  0.42300  0.94550  Biso   1.000  H
  N64      1.0000 0.50390  0.83000  0.58200  Biso   1.000  N
  N65      1.0000 0.51900  0.86780  0.65100  Biso   1.000  N
  N66      1.0000 0.56790  0.73270  0.62060  Biso   1.000  N
  C85      1.0000 0.53370  0.74980  0.56480  Biso   1.000  C
  H127     1.0000 0.53070  0.71160  0.52020  Biso   1.000  H
  C86      1.0000 0.55720  0.80650  0.67160  Biso   1.000  C
  H128     1.0000 0.57560  0.81330  0.71780  Biso   1.000  H
  C87      1.0000 0.46270  0.87940  0.53560  Biso   1.000  C
  H129     1.0000 0.43750  0.91260  0.56960  Biso   1.000  H
  H130     1.0000 0.44350  0.82830  0.50670  Biso   1.000  H
  C88      1.0000 0.48540  0.95670  0.48020  Biso   1.000  C
  H131     1.0000 0.45650  0.98440  0.44960  Biso   1.000  H
  H132     1.0000 0.50990  0.92300  0.44550  Biso   1.000  H
  N67      1.0000 0.00390  0.33000  0.58200  Biso   1.000  N
  N68      1.0000 0.01900  0.36780  0.65100  Biso   1.000  N
  N69      1.0000 0.06790  0.23270  0.62060  Biso   1.000  N
  C89      1.0000 0.03370  0.24980  0.56480  Biso   1.000  C
  H133     1.0000 0.03070  0.21160  0.52020  Biso   1.000  H
  C90      1.0000 0.05720  0.30650  0.67160  Biso   1.000  C
  H134     1.0000 0.07560  0.31330  0.71780  Biso   1.000  H
  C91      1.0000 0.96270  0.37940  0.53560  Biso   1.000  C
  H135     1.0000 0.93750  0.41260  0.56960  Biso   1.000  H
  H136     1.0000 0.94350  0.32830  0.50670  Biso   1.000  H
  C92      1.0000 0.98540  0.45670  0.48020  Biso   1.000  C
  H137     1.0000 0.95650  0.48440  0.44960  Biso   1.000  H
  H138     1.0000 0.00990  0.42300  0.44550  Biso   1.000  H
  N70      1.0000 0.00390  0.83000  0.08200  Biso   1.000  N
  N71      1.0000 0.01900  0.86780  0.15100  Biso   1.000  N
  N72      1.0000 0.06790  0.73270  0.12060  Biso   1.000  N
  C93      1.0000 0.03370  0.74980  0.06480  Biso   1.000  C
  H139     1.0000 0.03070  0.71160  0.02020  Biso   1.000  H
  C94      1.0000 0.05720  0.80650  0.17160  Biso   1.000  C
  H140     1.0000 0.07560  0.81330  0.21780  Biso   1.000  H
  C95      1.0000 0.96270  0.87940  0.03560  Biso   1.000  C
  H141     1.0000 0.93750  0.91260  0.06960  Biso   1.000  H
  H142     1.0000 0.94350  0.82830  0.00670  Biso   1.000  H
  C96      1.0000 0.98540  0.95670  0.98020  Biso   1.000  C
  H143     1.0000 0.95650  0.98440  0.94960  Biso   1.000  H
  H144     1.0000 0.00990  0.92300  0.94550  Biso   1.000  H
  N73      1.0000 0.50390  0.92000  0.16800  Biso   1.000  N
  N74      1.0000 0.51900  0.88220  0.09900  Biso   1.000  N
  N75      1.0000 0.56790  0.01730  0.12940  Biso   1.000  N
  C97      1.0000 0.53370  0.00020  0.18520  Biso   1.000  C
  H145     1.0000 0.53070  0.03840  0.22980  Biso   1.000  H
  C98      1.0000 0.55720  0.94350  0.07840  Biso   1.000  C
  H146     1.0000 0.57560  0.93670  0.03220  Biso   1.000  H
  C99      1.0000 0.46270  0.87060  0.21440  Biso   1.000  C
  H147     1.0000 0.43750  0.83740  0.18040  Biso   1.000  H
  H148     1.0000 0.44350  0.92170  0.24330  Biso   1.000  H
  C100     1.0000 0.48540  0.79330  0.26980  Biso   1.000  C
  H149     1.0000 0.45650  0.76560  0.30040  Biso   1.000  H
  H150     1.0000 0.50990  0.82700  0.30450  Biso   1.000  H
  N76      1.0000 0.50390  0.42000  0.66800  Biso   1.000  N
  N77      1.0000 0.51900  0.38220  0.59900  Biso   1.000  N
  N78      1.0000 0.56790  0.51730  0.62940  Biso   1.000  N
  C101     1.0000 0.53370  0.50020  0.68520  Biso   1.000  C
  H151     1.0000 0.53070  0.53840  0.72980  Biso   1.000  H
  C102     1.0000 0.55720  0.44350  0.57840  Biso   1.000  C
  H152     1.0000 0.57560  0.43670  0.53220  Biso   1.000  H
  C103     1.0000 0.46270  0.37060  0.71440  Biso   1.000  C
  H153     1.0000 0.43750  0.33740  0.68040  Biso   1.000  H
  H154     1.0000 0.44350  0.42170  0.74330  Biso   1.000  H
  C104     1.0000 0.48540  0.29330  0.76980  Biso   1.000  C
  H155     1.0000 0.45650  0.26560  0.80040  Biso   1.000  H
  H156     1.0000 0.50990  0.32700  0.80450  Biso   1.000  H
  N79      1.0000 0.00390  0.92000  0.66800  Biso   1.000  N
  N80      1.0000 0.01900  0.88220  0.59900  Biso   1.000  N
  N81      1.0000 0.06790  0.01730  0.62940  Biso   1.000  N
  C105     1.0000 0.03370  0.00020  0.68520  Biso   1.000  C
  H157     1.0000 0.03070  0.03840  0.72980  Biso   1.000  H
  C106     1.0000 0.05720  0.94350  0.57840  Biso   1.000  C
  H158     1.0000 0.07560  0.93670  0.53220  Biso   1.000  H
  C107     1.0000 0.96270  0.87060  0.71440  Biso   1.000  C
  H159     1.0000 0.93750  0.83740  0.68040  Biso   1.000  H
  H160     1.0000 0.94350  0.92170  0.74330  Biso   1.000  H
  C108     1.0000 0.98540  0.79330  0.76980  Biso   1.000  C
  H161     1.0000 0.95650  0.76560  0.80040  Biso   1.000  H
  H162     1.0000 0.00990  0.82700  0.80450  Biso   1.000  H
  N82      1.0000 0.00390  0.42000  0.16800  Biso   1.000  N
  N83      1.0000 0.01900  0.38220  0.09900  Biso   1.000  N
  N84      1.0000 0.06790  0.51730  0.12940  Biso   1.000  N
  C109     1.0000 0.03370  0.50020  0.18520  Biso   1.000  C
  H163     1.0000 0.03070  0.53840  0.22980  Biso   1.000  H
  C110     1.0000 0.05720  0.44350  0.07840  Biso   1.000  C
  H164     1.0000 0.07560  0.43670  0.03220  Biso   1.000  H
  C111     1.0000 0.96270  0.37060  0.21440  Biso   1.000  C
  H165     1.0000 0.93750  0.33740  0.18040  Biso   1.000  H
  H166     1.0000 0.94350  0.42170  0.24330  Biso   1.000  H
  C112     1.0000 0.98540  0.29330  0.26980  Biso   1.000  C
  H167     1.0000 0.95650  0.26560  0.30040  Biso   1.000  H
  H168     1.0000 0.00990  0.32700  0.30450  Biso   1.000  H
  N85      1.0000 0.74610  0.33000  0.16800  Biso   1.000  N
  N86      1.0000 0.73100  0.36780  0.09900  Biso   1.000  N
  N87      1.0000 0.68210  0.23270  0.12940  Biso   1.000  N
  C113     1.0000 0.71630  0.24980  0.18520  Biso   1.000  C
  H169     1.0000 0.71930  0.21160  0.22980  Biso   1.000  H
  C114     1.0000 0.69280  0.30650  0.07840  Biso   1.000  C
  H170     1.0000 0.67440  0.31330  0.03220  Biso   1.000  H
  C115     1.0000 0.78730  0.37940  0.21440  Biso   1.000  C
  H171     1.0000 0.81250  0.41260  0.18040  Biso   1.000  H
  H172     1.0000 0.80650  0.32830  0.24330  Biso   1.000  H
  C116     1.0000 0.76460  0.45670  0.26980  Biso   1.000  C
  H173     1.0000 0.79350  0.48440  0.30040  Biso   1.000  H
  H174     1.0000 0.74010  0.42300  0.30450  Biso   1.000  H
  N88      1.0000 0.74610  0.83000  0.66800  Biso   1.000  N
  N89      1.0000 0.73100  0.86780  0.59900  Biso   1.000  N
  N90      1.0000 0.68210  0.73270  0.62940  Biso   1.000  N
  C117     1.0000 0.71630  0.74980  0.68520  Biso   1.000  C
  H175     1.0000 0.71930  0.71160  0.72980  Biso   1.000  H
  C118     1.0000 0.69280  0.80650  0.57840  Biso   1.000  C
  H176     1.0000 0.67440  0.81330  0.53220  Biso   1.000  H
  C119     1.0000 0.78730  0.87940  0.71440  Biso   1.000  C
  H177     1.0000 0.81250  0.91260  0.68040  Biso   1.000  H
  H178     1.0000 0.80650  0.82830  0.74330  Biso   1.000  H
  C120     1.0000 0.76460  0.95670  0.76980  Biso   1.000  C
  H179     1.0000 0.79350  0.98440  0.80040  Biso   1.000  H
  H180     1.0000 0.74010  0.92300  0.80450  Biso   1.000  H
  N91      1.0000 0.24610  0.33000  0.66800  Biso   1.000  N
  N92      1.0000 0.23100  0.36780  0.59900  Biso   1.000  N
  N93      1.0000 0.18210  0.23270  0.62940  Biso   1.000  N
  C121     1.0000 0.21630  0.24980  0.68520  Biso   1.000  C
  H181     1.0000 0.21930  0.21160  0.72980  Biso   1.000  H
  C122     1.0000 0.19280  0.30650  0.57840  Biso   1.000  C
  H182     1.0000 0.17440  0.31330  0.53220  Biso   1.000  H
  C123     1.0000 0.28730  0.37940  0.71440  Biso   1.000  C
  H183     1.0000 0.31250  0.41260  0.68040  Biso   1.000  H
  H184     1.0000 0.30650  0.32830  0.74330  Biso   1.000  H
  C124     1.0000 0.26460  0.45670  0.76980  Biso   1.000  C
  H185     1.0000 0.29350  0.48440  0.80040  Biso   1.000  H
  H186     1.0000 0.24010  0.42300  0.80450  Biso   1.000  H
  N94      1.0000 0.24610  0.83000  0.16800  Biso   1.000  N
  N95      1.0000 0.23100  0.86780  0.09900  Biso   1.000  N
  N96      1.0000 0.18210  0.73270  0.12940  Biso   1.000  N
  C125     1.0000 0.21630  0.74980  0.18520  Biso   1.000  C
  H187     1.0000 0.21930  0.71160  0.22980  Biso   1.000  H
  C126     1.0000 0.19280  0.80650  0.07840  Biso   1.000  C
  H188     1.0000 0.17440  0.81330  0.03220  Biso   1.000  H
  C127     1.0000 0.28730  0.87940  0.21440  Biso   1.000  C
  H189     1.0000 0.31250  0.91260  0.18040  Biso   1.000  H
  H190     1.0000 0.30650  0.82830  0.24330  Biso   1.000  H
  C128     1.0000 0.26460  0.95670  0.26980  Biso   1.000  C
  H191     1.0000 0.29350  0.98440  0.30040  Biso   1.000  H
  H192     1.0000 0.24010  0.92300  0.30450  Biso   1.000  H
  Cu1      1.0000 0.37500  0.87500  0.87500  Biso   1.000  Cu
  Cu2      1.0000 0.37500  0.37500  0.37500  Biso   1.000  Cu
  Cu3      1.0000 0.87500  0.87500  0.37500  Biso   1.000  Cu
  Cu4      1.0000 0.87500  0.37500  0.87500  Biso   1.000  Cu
  Cu5      1.0000 0.62500  0.12500  0.12500  Biso   1.000  Cu
  Cu6      1.0000 0.62500  0.62500  0.62500  Biso   1.000  Cu
  Cu7      1.0000 0.12500  0.12500  0.62500  Biso   1.000  Cu
  Cu8      1.0000 0.12500  0.62500  0.12500  Biso   1.000  Cu
