data_image0
_cell_length_a       13.143
_cell_length_b       17.513
_cell_length_c       25.348
_cell_angle_alpha    90
_cell_angle_beta     90
_cell_angle_gamma    90

_symmetry_space_group_name_H-M    "P 1"
_symmetry_int_tables_number       1

loop_
  _symmetry_equiv_pos_as_xyz
  'x, y, z'

loop_
  _atom_site_label
  _atom_site_occupancy
  _atom_site_fract_x
  _atom_site_fract_y
  _atom_site_fract_z
  _atom_site_thermal_displace_type
  _atom_site_B_iso_or_equiv
  _atom_site_type_symbol
  N1       1.0000 0.83080  0.16668  0.24523  Biso   1.000  N
  N2       1.0000 0.86860  0.09890  0.23030  Biso   1.000  N
  N3       1.0000 0.73310  0.12908  0.18110  Biso   1.000  N
  C1       1.0000 0.95670  0.26800  0.26480  Biso   1.000  C
  H1       1.0000 0.92170  0.30370  0.24120  Biso   1.000  H
  H2       1.0000 0.98480  0.29780  0.29410  Biso   1.000  H
  C2       1.0000 0.87900  0.21220  0.28675  Biso   1.000  C
  H3       1.0000 0.91260  0.17790  0.31190  Biso   1.000  H
  H4       1.0000 0.82640  0.24070  0.30590  Biso   1.000  H
  C3       1.0000 0.80810  0.07900  0.19130  Biso   1.000  C
  H5       1.0000 0.81670  0.03350  0.17210  Biso   1.000  H
  C4       1.0000 0.75030  0.18390  0.21615  Biso   1.000  C
  H6       1.0000 0.71110  0.22840  0.21980  Biso   1.000  H
  N4       1.0000 0.83080  0.66668  0.74523  Biso   1.000  N
  N5       1.0000 0.86860  0.59890  0.73030  Biso   1.000  N
  N6       1.0000 0.73310  0.62908  0.68110  Biso   1.000  N
  C5       1.0000 0.95670  0.76800  0.76480  Biso   1.000  C
  H7       1.0000 0.92170  0.80370  0.74120  Biso   1.000  H
  H8       1.0000 0.98480  0.79780  0.79410  Biso   1.000  H
  C6       1.0000 0.87900  0.71220  0.78675  Biso   1.000  C
  H9       1.0000 0.91260  0.67790  0.81190  Biso   1.000  H
  H10      1.0000 0.82640  0.74070  0.80590  Biso   1.000  H
  C7       1.0000 0.80810  0.57900  0.69130  Biso   1.000  C
  H11      1.0000 0.81670  0.53350  0.67210  Biso   1.000  H
  C8       1.0000 0.75030  0.68390  0.71615  Biso   1.000  C
  H12      1.0000 0.71110  0.72840  0.71980  Biso   1.000  H
  N7       1.0000 0.33080  0.16668  0.74523  Biso   1.000  N
  N8       1.0000 0.36860  0.09890  0.73030  Biso   1.000  N
  N9       1.0000 0.23310  0.12908  0.68110  Biso   1.000  N
  C9       1.0000 0.45670  0.26800  0.76480  Biso   1.000  C
  H13      1.0000 0.42170  0.30370  0.74120  Biso   1.000  H
  H14      1.0000 0.48480  0.29780  0.79410  Biso   1.000  H
  C10      1.0000 0.37900  0.21220  0.78675  Biso   1.000  C
  H15      1.0000 0.41260  0.17790  0.81190  Biso   1.000  H
  H16      1.0000 0.32640  0.24070  0.80590  Biso   1.000  H
  C11      1.0000 0.30810  0.07900  0.69130  Biso   1.000  C
  H17      1.0000 0.31670  0.03350  0.67210  Biso   1.000  H
  C12      1.0000 0.25030  0.18390  0.71615  Biso   1.000  C
  H18      1.0000 0.21110  0.22840  0.71980  Biso   1.000  H
  N10      1.0000 0.33080  0.66668  0.24523  Biso   1.000  N
  N11      1.0000 0.36860  0.59890  0.23030  Biso   1.000  N
  N12      1.0000 0.23310  0.62908  0.18110  Biso   1.000  N
  C13      1.0000 0.45670  0.76800  0.26480  Biso   1.000  C
  H19      1.0000 0.42170  0.80370  0.24120  Biso   1.000  H
  H20      1.0000 0.48480  0.79780  0.29410  Biso   1.000  H
  C14      1.0000 0.37900  0.71220  0.28675  Biso   1.000  C
  H21      1.0000 0.41260  0.67790  0.31190  Biso   1.000  H
  H22      1.0000 0.32640  0.74070  0.30590  Biso   1.000  H
  C15      1.0000 0.30810  0.57900  0.19130  Biso   1.000  C
  H23      1.0000 0.31670  0.53350  0.17210  Biso   1.000  H
  C16      1.0000 0.25030  0.68390  0.21615  Biso   1.000  C
  H24      1.0000 0.21110  0.72840  0.21980  Biso   1.000  H
  N13      1.0000 0.91920  0.58332  0.24523  Biso   1.000  N
  N14      1.0000 0.88140  0.65110  0.23030  Biso   1.000  N
  N15      1.0000 0.01690  0.62092  0.18110  Biso   1.000  N
  C17      1.0000 0.79330  0.48200  0.26480  Biso   1.000  C
  H25      1.0000 0.82830  0.44630  0.24120  Biso   1.000  H
  H26      1.0000 0.76520  0.45220  0.29410  Biso   1.000  H
  C18      1.0000 0.87100  0.53780  0.28675  Biso   1.000  C
  H27      1.0000 0.83740  0.57210  0.31190  Biso   1.000  H
  H28      1.0000 0.92360  0.50930  0.30590  Biso   1.000  H
  C19      1.0000 0.94190  0.67100  0.19130  Biso   1.000  C
  H29      1.0000 0.93330  0.71650  0.17210  Biso   1.000  H
  C20      1.0000 0.99970  0.56610  0.21615  Biso   1.000  C
  H30      1.0000 0.03890  0.52160  0.21980  Biso   1.000  H
  N16      1.0000 0.91920  0.08332  0.74523  Biso   1.000  N
  N17      1.0000 0.88140  0.15110  0.73030  Biso   1.000  N
  N18      1.0000 0.01690  0.12092  0.68110  Biso   1.000  N
  C21      1.0000 0.79330  0.98200  0.76480  Biso   1.000  C
  H31      1.0000 0.82830  0.94630  0.74120  Biso   1.000  H
  H32      1.0000 0.76520  0.95220  0.79410  Biso   1.000  H
  C22      1.0000 0.87100  0.03780  0.78675  Biso   1.000  C
  H33      1.0000 0.83740  0.07210  0.81190  Biso   1.000  H
  H34      1.0000 0.92360  0.00930  0.80590  Biso   1.000  H
  C23      1.0000 0.94190  0.17100  0.69130  Biso   1.000  C
  H35      1.0000 0.93330  0.21650  0.67210  Biso   1.000  H
  C24      1.0000 0.99970  0.06610  0.71615  Biso   1.000  C
  H36      1.0000 0.03890  0.02160  0.71980  Biso   1.000  H
  N19      1.0000 0.41920  0.58332  0.74523  Biso   1.000  N
  N20      1.0000 0.38140  0.65110  0.73030  Biso   1.000  N
  N21      1.0000 0.51690  0.62092  0.68110  Biso   1.000  N
  C25      1.0000 0.29330  0.48200  0.76480  Biso   1.000  C
  H37      1.0000 0.32830  0.44630  0.74120  Biso   1.000  H
  H38      1.0000 0.26520  0.45220  0.79410  Biso   1.000  H
  C26      1.0000 0.37100  0.53780  0.78675  Biso   1.000  C
  H39      1.0000 0.33740  0.57210  0.81190  Biso   1.000  H
  H40      1.0000 0.42360  0.50930  0.80590  Biso   1.000  H
  C27      1.0000 0.44190  0.67100  0.69130  Biso   1.000  C
  H41      1.0000 0.43330  0.71650  0.67210  Biso   1.000  H
  C28      1.0000 0.49970  0.56610  0.71615  Biso   1.000  C
  H42      1.0000 0.53890  0.52160  0.71980  Biso   1.000  H
  N22      1.0000 0.41920  0.08332  0.24523  Biso   1.000  N
  N23      1.0000 0.38140  0.15110  0.23030  Biso   1.000  N
  N24      1.0000 0.51690  0.12092  0.18110  Biso   1.000  N
  C29      1.0000 0.29330  0.98200  0.26480  Biso   1.000  C
  H43      1.0000 0.32830  0.94630  0.24120  Biso   1.000  H
  H44      1.0000 0.26520  0.95220  0.29410  Biso   1.000  H
  C30      1.0000 0.37100  0.03780  0.28675  Biso   1.000  C
  H45      1.0000 0.33740  0.07210  0.31190  Biso   1.000  H
  H46      1.0000 0.42360  0.00930  0.30590  Biso   1.000  H
  C31      1.0000 0.44190  0.17100  0.19130  Biso   1.000  C
  H47      1.0000 0.43330  0.21650  0.17210  Biso   1.000  H
  C32      1.0000 0.49970  0.06610  0.21615  Biso   1.000  C
  H48      1.0000 0.53890  0.02160  0.21980  Biso   1.000  H
  N25      1.0000 0.91920  0.16668  0.50477  Biso   1.000  N
  N26      1.0000 0.88140  0.09890  0.51970  Biso   1.000  N
  N27      1.0000 0.01690  0.12908  0.56890  Biso   1.000  N
  C33      1.0000 0.79330  0.26800  0.48520  Biso   1.000  C
  H49      1.0000 0.82830  0.30370  0.50880  Biso   1.000  H
  H50      1.0000 0.76520  0.29780  0.45590  Biso   1.000  H
  C34      1.0000 0.87100  0.21220  0.46325  Biso   1.000  C
  H51      1.0000 0.83740  0.17790  0.43810  Biso   1.000  H
  H52      1.0000 0.92360  0.24070  0.44410  Biso   1.000  H
  C35      1.0000 0.94190  0.07900  0.55870  Biso   1.000  C
  H53      1.0000 0.93330  0.03350  0.57790  Biso   1.000  H
  C36      1.0000 0.99970  0.18390  0.53385  Biso   1.000  C
  H54      1.0000 0.03890  0.22840  0.53020  Biso   1.000  H
  N28      1.0000 0.91920  0.66668  0.00477  Biso   1.000  N
  N29      1.0000 0.88140  0.59890  0.01970  Biso   1.000  N
  N30      1.0000 0.01690  0.62908  0.06890  Biso   1.000  N
  C37      1.0000 0.79330  0.76800  0.98520  Biso   1.000  C
  H55      1.0000 0.82830  0.80370  0.00880  Biso   1.000  H
  H56      1.0000 0.76520  0.79780  0.95590  Biso   1.000  H
  C38      1.0000 0.87100  0.71220  0.96325  Biso   1.000  C
  H57      1.0000 0.83740  0.67790  0.93810  Biso   1.000  H
  H58      1.0000 0.92360  0.74070  0.94410  Biso   1.000  H
  C39      1.0000 0.94190  0.57900  0.05870  Biso   1.000  C
  H59      1.0000 0.93330  0.53350  0.07790  Biso   1.000  H
  C40      1.0000 0.99970  0.68390  0.03385  Biso   1.000  C
  H60      1.0000 0.03890  0.72840  0.03020  Biso   1.000  H
  N31      1.0000 0.41920  0.16668  0.00477  Biso   1.000  N
  N32      1.0000 0.38140  0.09890  0.01970  Biso   1.000  N
  N33      1.0000 0.51690  0.12908  0.06890  Biso   1.000  N
  C41      1.0000 0.29330  0.26800  0.98520  Biso   1.000  C
  H61      1.0000 0.32830  0.30370  0.00880  Biso   1.000  H
  H62      1.0000 0.26520  0.29780  0.95590  Biso   1.000  H
  C42      1.0000 0.37100  0.21220  0.96325  Biso   1.000  C
  H63      1.0000 0.33740  0.17790  0.93810  Biso   1.000  H
  H64      1.0000 0.42360  0.24070  0.94410  Biso   1.000  H
  C43      1.0000 0.44190  0.07900  0.05870  Biso   1.000  C
  H65      1.0000 0.43330  0.03350  0.07790  Biso   1.000  H
  C44      1.0000 0.49970  0.18390  0.03385  Biso   1.000  C
  H66      1.0000 0.53890  0.22840  0.03020  Biso   1.000  H
  N34      1.0000 0.41920  0.66668  0.50477  Biso   1.000  N
  N35      1.0000 0.38140  0.59890  0.51970  Biso   1.000  N
  N36      1.0000 0.51690  0.62908  0.56890  Biso   1.000  N
  C45      1.0000 0.29330  0.76800  0.48520  Biso   1.000  C
  H67      1.0000 0.32830  0.80370  0.50880  Biso   1.000  H
  H68      1.0000 0.26520  0.79780  0.45590  Biso   1.000  H
  C46      1.0000 0.37100  0.71220  0.46325  Biso   1.000  C
  H69      1.0000 0.33740  0.67790  0.43810  Biso   1.000  H
  H70      1.0000 0.42360  0.74070  0.44410  Biso   1.000  H
  C47      1.0000 0.44190  0.57900  0.55870  Biso   1.000  C
  H71      1.0000 0.43330  0.53350  0.57790  Biso   1.000  H
  C48      1.0000 0.49970  0.68390  0.53385  Biso   1.000  C
  H72      1.0000 0.53890  0.72840  0.53020  Biso   1.000  H
  N37      1.0000 0.83080  0.58332  0.50477  Biso   1.000  N
  N38      1.0000 0.86860  0.65110  0.51970  Biso   1.000  N
  N39      1.0000 0.73310  0.62092  0.56890  Biso   1.000  N
  C49      1.0000 0.95670  0.48200  0.48520  Biso   1.000  C
  H73      1.0000 0.92170  0.44630  0.50880  Biso   1.000  H
  H74      1.0000 0.98480  0.45220  0.45590  Biso   1.000  H
  C50      1.0000 0.87900  0.53780  0.46325  Biso   1.000  C
  H75      1.0000 0.91260  0.57210  0.43810  Biso   1.000  H
  H76      1.0000 0.82640  0.50930  0.44410  Biso   1.000  H
  C51      1.0000 0.80810  0.67100  0.55870  Biso   1.000  C
  H77      1.0000 0.81670  0.71650  0.57790  Biso   1.000  H
  C52      1.0000 0.75030  0.56610  0.53385  Biso   1.000  C
  H78      1.0000 0.71110  0.52160  0.53020  Biso   1.000  H
  N40      1.0000 0.83080  0.08332  0.00477  Biso   1.000  N
  N41      1.0000 0.86860  0.15110  0.01970  Biso   1.000  N
  N42      1.0000 0.73310  0.12092  0.06890  Biso   1.000  N
  C53      1.0000 0.95670  0.98200  0.98520  Biso   1.000  C
  H79      1.0000 0.92170  0.94630  0.00880  Biso   1.000  H
  H80      1.0000 0.98480  0.95220  0.95590  Biso   1.000  H
  C54      1.0000 0.87900  0.03780  0.96325  Biso   1.000  C
  H81      1.0000 0.91260  0.07210  0.93810  Biso   1.000  H
  H82      1.0000 0.82640  0.00930  0.94410  Biso   1.000  H
  C55      1.0000 0.80810  0.17100  0.05870  Biso   1.000  C
  H83      1.0000 0.81670  0.21650  0.07790  Biso   1.000  H
  C56      1.0000 0.75030  0.06610  0.03385  Biso   1.000  C
  H84      1.0000 0.71110  0.02160  0.03020  Biso   1.000  H
  N43      1.0000 0.33080  0.58332  0.00477  Biso   1.000  N
  N44      1.0000 0.36860  0.65110  0.01970  Biso   1.000  N
  N45      1.0000 0.23310  0.62092  0.06890  Biso   1.000  N
  C57      1.0000 0.45670  0.48200  0.98520  Biso   1.000  C
  H85      1.0000 0.42170  0.44630  0.00880  Biso   1.000  H
  H86      1.0000 0.48480  0.45220  0.95590  Biso   1.000  H
  C58      1.0000 0.37900  0.53780  0.96325  Biso   1.000  C
  H87      1.0000 0.41260  0.57210  0.93810  Biso   1.000  H
  H88      1.0000 0.32640  0.50930  0.94410  Biso   1.000  H
  C59      1.0000 0.30810  0.67100  0.05870  Biso   1.000  C
  H89      1.0000 0.31670  0.71650  0.07790  Biso   1.000  H
  C60      1.0000 0.25030  0.56610  0.03385  Biso   1.000  C
  H90      1.0000 0.21110  0.52160  0.03020  Biso   1.000  H
  N46      1.0000 0.33080  0.08332  0.50477  Biso   1.000  N
  N47      1.0000 0.36860  0.15110  0.51970  Biso   1.000  N
  N48      1.0000 0.23310  0.12092  0.56890  Biso   1.000  N
  C61      1.0000 0.45670  0.98200  0.48520  Biso   1.000  C
  H91      1.0000 0.42170  0.94630  0.50880  Biso   1.000  H
  H92      1.0000 0.48480  0.95220  0.45590  Biso   1.000  H
  C62      1.0000 0.37900  0.03780  0.46325  Biso   1.000  C
  H93      1.0000 0.41260  0.07210  0.43810  Biso   1.000  H
  H94      1.0000 0.32640  0.00930  0.44410  Biso   1.000  H
  C63      1.0000 0.30810  0.17100  0.55870  Biso   1.000  C
  H95      1.0000 0.31670  0.21650  0.57790  Biso   1.000  H
  C64      1.0000 0.25030  0.06610  0.53385  Biso   1.000  C
  H96      1.0000 0.21110  0.02160  0.53020  Biso   1.000  H
  N49      1.0000 0.16920  0.83332  0.75477  Biso   1.000  N
  N50      1.0000 0.13140  0.90110  0.76970  Biso   1.000  N
  N51      1.0000 0.26690  0.87092  0.81890  Biso   1.000  N
  C65      1.0000 0.04330  0.73200  0.73520  Biso   1.000  C
  H97      1.0000 0.07830  0.69630  0.75880  Biso   1.000  H
  H98      1.0000 0.01520  0.70220  0.70590  Biso   1.000  H
  C66      1.0000 0.12100  0.78780  0.71325  Biso   1.000  C
  H99      1.0000 0.08740  0.82210  0.68810  Biso   1.000  H
  H100     1.0000 0.17360  0.75930  0.69410  Biso   1.000  H
  C67      1.0000 0.19190  0.92100  0.80870  Biso   1.000  C
  H101     1.0000 0.18330  0.96650  0.82790  Biso   1.000  H
  C68      1.0000 0.24970  0.81610  0.78385  Biso   1.000  C
  H102     1.0000 0.28890  0.77160  0.78020  Biso   1.000  H
  N52      1.0000 0.16920  0.33332  0.25477  Biso   1.000  N
  N53      1.0000 0.13140  0.40110  0.26970  Biso   1.000  N
  N54      1.0000 0.26690  0.37092  0.31890  Biso   1.000  N
  C69      1.0000 0.04330  0.23200  0.23520  Biso   1.000  C
  H103     1.0000 0.07830  0.19630  0.25880  Biso   1.000  H
  H104     1.0000 0.01520  0.20220  0.20590  Biso   1.000  H
  C70      1.0000 0.12100  0.28780  0.21325  Biso   1.000  C
  H105     1.0000 0.08740  0.32210  0.18810  Biso   1.000  H
  H106     1.0000 0.17360  0.25930  0.19410  Biso   1.000  H
  C71      1.0000 0.19190  0.42100  0.30870  Biso   1.000  C
  H107     1.0000 0.18330  0.46650  0.32790  Biso   1.000  H
  C72      1.0000 0.24970  0.31610  0.28385  Biso   1.000  C
  H108     1.0000 0.28890  0.27160  0.28020  Biso   1.000  H
  N55      1.0000 0.66920  0.83332  0.25477  Biso   1.000  N
  N56      1.0000 0.63140  0.90110  0.26970  Biso   1.000  N
  N57      1.0000 0.76690  0.87092  0.31890  Biso   1.000  N
  C73      1.0000 0.54330  0.73200  0.23520  Biso   1.000  C
  H109     1.0000 0.57830  0.69630  0.25880  Biso   1.000  H
  H110     1.0000 0.51520  0.70220  0.20590  Biso   1.000  H
  C74      1.0000 0.62100  0.78780  0.21325  Biso   1.000  C
  H111     1.0000 0.58740  0.82210  0.18810  Biso   1.000  H
  H112     1.0000 0.67360  0.75930  0.19410  Biso   1.000  H
  C75      1.0000 0.69190  0.92100  0.30870  Biso   1.000  C
  H113     1.0000 0.68330  0.96650  0.32790  Biso   1.000  H
  C76      1.0000 0.74970  0.81610  0.28385  Biso   1.000  C
  H114     1.0000 0.78890  0.77160  0.28020  Biso   1.000  H
  N58      1.0000 0.66920  0.33332  0.75477  Biso   1.000  N
  N59      1.0000 0.63140  0.40110  0.76970  Biso   1.000  N
  N60      1.0000 0.76690  0.37092  0.81890  Biso   1.000  N
  C77      1.0000 0.54330  0.23200  0.73520  Biso   1.000  C
  H115     1.0000 0.57830  0.19630  0.75880  Biso   1.000  H
  H116     1.0000 0.51520  0.20220  0.70590  Biso   1.000  H
  C78      1.0000 0.62100  0.28780  0.71325  Biso   1.000  C
  H117     1.0000 0.58740  0.32210  0.68810  Biso   1.000  H
  H118     1.0000 0.67360  0.25930  0.69410  Biso   1.000  H
  C79      1.0000 0.69190  0.42100  0.80870  Biso   1.000  C
  H119     1.0000 0.68330  0.46650  0.82790  Biso   1.000  H
  C80      1.0000 0.74970  0.31610  0.78385  Biso   1.000  C
  H120     1.0000 0.78890  0.27160  0.78020  Biso   1.000  H
  N61      1.0000 0.08080  0.41668  0.75477  Biso   1.000  N
  N62      1.0000 0.11860  0.34890  0.76970  Biso   1.000  N
  N63      1.0000 0.98310  0.37908  0.81890  Biso   1.000  N
  C81      1.0000 0.20670  0.51800  0.73520  Biso   1.000  C
  H121     1.0000 0.17170  0.55370  0.75880  Biso   1.000  H
  H122     1.0000 0.23480  0.54780  0.70590  Biso   1.000  H
  C82      1.0000 0.12900  0.46220  0.71325  Biso   1.000  C
  H123     1.0000 0.16260  0.42790  0.68810  Biso   1.000  H
  H124     1.0000 0.07640  0.49070  0.69410  Biso   1.000  H
  C83      1.0000 0.05810  0.32900  0.80870  Biso   1.000  C
  H125     1.0000 0.06670  0.28350  0.82790  Biso   1.000  H
  C84      1.0000 0.00030  0.43390  0.78385  Biso   1.000  C
  H126     1.0000 0.96110  0.47840  0.78020  Biso   1.000  H
  N64      1.0000 0.08080  0.91668  0.25477  Biso   1.000  N
  N65      1.0000 0.11860  0.84890  0.26970  Biso   1.000  N
  N66      1.0000 0.98310  0.87908  0.31890  Biso   1.000  N
  C85      1.0000 0.20670  0.01800  0.23520  Biso   1.000  C
  H127     1.0000 0.17170  0.05370  0.25880  Biso   1.000  H
  H128     1.0000 0.23480  0.04780  0.20590  Biso   1.000  H
  C86      1.0000 0.12900  0.96220  0.21325  Biso   1.000  C
  H129     1.0000 0.16260  0.92790  0.18810  Biso   1.000  H
  H130     1.0000 0.07640  0.99070  0.19410  Biso   1.000  H
  C87      1.0000 0.05810  0.82900  0.30870  Biso   1.000  C
  H131     1.0000 0.06670  0.78350  0.32790  Biso   1.000  H
  C88      1.0000 0.00030  0.93390  0.28385  Biso   1.000  C
  H132     1.0000 0.96110  0.97840  0.28020  Biso   1.000  H
  N67      1.0000 0.58080  0.41668  0.25477  Biso   1.000  N
  N68      1.0000 0.61860  0.34890  0.26970  Biso   1.000  N
  N69      1.0000 0.48310  0.37908  0.31890  Biso   1.000  N
  C89      1.0000 0.70670  0.51800  0.23520  Biso   1.000  C
  H133     1.0000 0.67170  0.55370  0.25880  Biso   1.000  H
  H134     1.0000 0.73480  0.54780  0.20590  Biso   1.000  H
  C90      1.0000 0.62900  0.46220  0.21325  Biso   1.000  C
  H135     1.0000 0.66260  0.42790  0.18810  Biso   1.000  H
  H136     1.0000 0.57640  0.49070  0.19410  Biso   1.000  H
  C91      1.0000 0.55810  0.32900  0.30870  Biso   1.000  C
  H137     1.0000 0.56670  0.28350  0.32790  Biso   1.000  H
  C92      1.0000 0.50030  0.43390  0.28385  Biso   1.000  C
  H138     1.0000 0.46110  0.47840  0.28020  Biso   1.000  H
  N70      1.0000 0.58080  0.91668  0.75477  Biso   1.000  N
  N71      1.0000 0.61860  0.84890  0.76970  Biso   1.000  N
  N72      1.0000 0.48310  0.87908  0.81890  Biso   1.000  N
  C93      1.0000 0.70670  0.01800  0.73520  Biso   1.000  C
  H139     1.0000 0.67170  0.05370  0.75880  Biso   1.000  H
  H140     1.0000 0.73480  0.04780  0.70590  Biso   1.000  H
  C94      1.0000 0.62900  0.96220  0.71325  Biso   1.000  C
  H141     1.0000 0.66260  0.92790  0.68810  Biso   1.000  H
  H142     1.0000 0.57640  0.99070  0.69410  Biso   1.000  H
  C95      1.0000 0.55810  0.82900  0.80870  Biso   1.000  C
  H143     1.0000 0.56670  0.78350  0.82790  Biso   1.000  H
  C96      1.0000 0.50030  0.93390  0.78385  Biso   1.000  C
  H144     1.0000 0.46110  0.97840  0.78020  Biso   1.000  H
  N73      1.0000 0.08080  0.83332  0.49523  Biso   1.000  N
  N74      1.0000 0.11860  0.90110  0.48030  Biso   1.000  N
  N75      1.0000 0.98310  0.87092  0.43110  Biso   1.000  N
  C97      1.0000 0.20670  0.73200  0.51480  Biso   1.000  C
  H145     1.0000 0.17170  0.69630  0.49120  Biso   1.000  H
  H146     1.0000 0.23480  0.70220  0.54410  Biso   1.000  H
  C98      1.0000 0.12900  0.78780  0.53675  Biso   1.000  C
  H147     1.0000 0.16260  0.82210  0.56190  Biso   1.000  H
  H148     1.0000 0.07640  0.75930  0.55590  Biso   1.000  H
  C99      1.0000 0.05810  0.92100  0.44130  Biso   1.000  C
  H149     1.0000 0.06670  0.96650  0.42210  Biso   1.000  H
  C100     1.0000 0.00030  0.81610  0.46615  Biso   1.000  C
  H150     1.0000 0.96110  0.77160  0.46980  Biso   1.000  H
  N76      1.0000 0.08080  0.33332  0.99523  Biso   1.000  N
  N77      1.0000 0.11860  0.40110  0.98030  Biso   1.000  N
  N78      1.0000 0.98310  0.37092  0.93110  Biso   1.000  N
  C101     1.0000 0.20670  0.23200  0.01480  Biso   1.000  C
  H151     1.0000 0.17170  0.19630  0.99120  Biso   1.000  H
  H152     1.0000 0.23480  0.20220  0.04410  Biso   1.000  H
  C102     1.0000 0.12900  0.28780  0.03675  Biso   1.000  C
  H153     1.0000 0.16260  0.32210  0.06190  Biso   1.000  H
  H154     1.0000 0.07640  0.25930  0.05590  Biso   1.000  H
  C103     1.0000 0.05810  0.42100  0.94130  Biso   1.000  C
  H155     1.0000 0.06670  0.46650  0.92210  Biso   1.000  H
  C104     1.0000 0.00030  0.31610  0.96615  Biso   1.000  C
  H156     1.0000 0.96110  0.27160  0.96980  Biso   1.000  H
  N79      1.0000 0.58080  0.83332  0.99523  Biso   1.000  N
  N80      1.0000 0.61860  0.90110  0.98030  Biso   1.000  N
  N81      1.0000 0.48310  0.87092  0.93110  Biso   1.000  N
  C105     1.0000 0.70670  0.73200  0.01480  Biso   1.000  C
  H157     1.0000 0.67170  0.69630  0.99120  Biso   1.000  H
  H158     1.0000 0.73480  0.70220  0.04410  Biso   1.000  H
  C106     1.0000 0.62900  0.78780  0.03675  Biso   1.000  C
  H159     1.0000 0.66260  0.82210  0.06190  Biso   1.000  H
  H160     1.0000 0.57640  0.75930  0.05590  Biso   1.000  H
  C107     1.0000 0.55810  0.92100  0.94130  Biso   1.000  C
  H161     1.0000 0.56670  0.96650  0.92210  Biso   1.000  H
  C108     1.0000 0.50030  0.81610  0.96615  Biso   1.000  C
  H162     1.0000 0.46110  0.77160  0.96980  Biso   1.000  H
  N82      1.0000 0.58080  0.33332  0.49523  Biso   1.000  N
  N83      1.0000 0.61860  0.40110  0.48030  Biso   1.000  N
  N84      1.0000 0.48310  0.37092  0.43110  Biso   1.000  N
  C109     1.0000 0.70670  0.23200  0.51480  Biso   1.000  C
  H163     1.0000 0.67170  0.19630  0.49120  Biso   1.000  H
  H164     1.0000 0.73480  0.20220  0.54410  Biso   1.000  H
  C110     1.0000 0.62900  0.28780  0.53675  Biso   1.000  C
  H165     1.0000 0.66260  0.32210  0.56190  Biso   1.000  H
  H166     1.0000 0.57640  0.25930  0.55590  Biso   1.000  H
  C111     1.0000 0.55810  0.42100  0.44130  Biso   1.000  C
  H167     1.0000 0.56670  0.46650  0.42210  Biso   1.000  H
  C112     1.0000 0.50030  0.31610  0.46615  Biso   1.000  C
  H168     1.0000 0.46110  0.27160  0.46980  Biso   1.000  H
  N85      1.0000 0.16920  0.41668  0.49523  Biso   1.000  N
  N86      1.0000 0.13140  0.34890  0.48030  Biso   1.000  N
  N87      1.0000 0.26690  0.37908  0.43110  Biso   1.000  N
  C113     1.0000 0.04330  0.51800  0.51480  Biso   1.000  C
  H169     1.0000 0.07830  0.55370  0.49120  Biso   1.000  H
  H170     1.0000 0.01520  0.54780  0.54410  Biso   1.000  H
  C114     1.0000 0.12100  0.46220  0.53675  Biso   1.000  C
  H171     1.0000 0.08740  0.42790  0.56190  Biso   1.000  H
  H172     1.0000 0.17360  0.49070  0.55590  Biso   1.000  H
  C115     1.0000 0.19190  0.32900  0.44130  Biso   1.000  C
  H173     1.0000 0.18330  0.28350  0.42210  Biso   1.000  H
  C116     1.0000 0.24970  0.43390  0.46615  Biso   1.000  C
  H174     1.0000 0.28890  0.47840  0.46980  Biso   1.000  H
  N88      1.0000 0.16920  0.91668  0.99523  Biso   1.000  N
  N89      1.0000 0.13140  0.84890  0.98030  Biso   1.000  N
  N90      1.0000 0.26690  0.87908  0.93110  Biso   1.000  N
  C117     1.0000 0.04330  0.01800  0.01480  Biso   1.000  C
  H175     1.0000 0.07830  0.05370  0.99120  Biso   1.000  H
  H176     1.0000 0.01520  0.04780  0.04410  Biso   1.000  H
  C118     1.0000 0.12100  0.96220  0.03675  Biso   1.000  C
  H177     1.0000 0.08740  0.92790  0.06190  Biso   1.000  H
  H178     1.0000 0.17360  0.99070  0.05590  Biso   1.000  H
  C119     1.0000 0.19190  0.82900  0.94130  Biso   1.000  C
  H179     1.0000 0.18330  0.78350  0.92210  Biso   1.000  H
  C120     1.0000 0.24970  0.93390  0.96615  Biso   1.000  C
  H180     1.0000 0.28890  0.97840  0.96980  Biso   1.000  H
  N91      1.0000 0.66920  0.41668  0.99523  Biso   1.000  N
  N92      1.0000 0.63140  0.34890  0.98030  Biso   1.000  N
  N93      1.0000 0.76690  0.37908  0.93110  Biso   1.000  N
  C121     1.0000 0.54330  0.51800  0.01480  Biso   1.000  C
  H181     1.0000 0.57830  0.55370  0.99120  Biso   1.000  H
  H182     1.0000 0.51520  0.54780  0.04410  Biso   1.000  H
  C122     1.0000 0.62100  0.46220  0.03675  Biso   1.000  C
  H183     1.0000 0.58740  0.42790  0.06190  Biso   1.000  H
  H184     1.0000 0.67360  0.49070  0.05590  Biso   1.000  H
  C123     1.0000 0.69190  0.32900  0.94130  Biso   1.000  C
  H185     1.0000 0.68330  0.28350  0.92210  Biso   1.000  H
  C124     1.0000 0.74970  0.43390  0.96615  Biso   1.000  C
  H186     1.0000 0.78890  0.47840  0.96980  Biso   1.000  H
  N94      1.0000 0.66920  0.91668  0.49523  Biso   1.000  N
  N95      1.0000 0.63140  0.84890  0.48030  Biso   1.000  N
  N96      1.0000 0.76690  0.87908  0.43110  Biso   1.000  N
  C125     1.0000 0.54330  0.01800  0.51480  Biso   1.000  C
  H187     1.0000 0.57830  0.05370  0.49120  Biso   1.000  H
  H188     1.0000 0.51520  0.04780  0.54410  Biso   1.000  H
  C126     1.0000 0.62100  0.96220  0.53675  Biso   1.000  C
  H189     1.0000 0.58740  0.92790  0.56190  Biso   1.000  H
  H190     1.0000 0.67360  0.99070  0.55590  Biso   1.000  H
  C127     1.0000 0.69190  0.82900  0.44130  Biso   1.000  C
  H191     1.0000 0.68330  0.78350  0.42210  Biso   1.000  H
  C128     1.0000 0.74970  0.93390  0.46615  Biso   1.000  C
  H192     1.0000 0.78890  0.97840  0.46980  Biso   1.000  H
  Cu1      1.0000 0.62500  0.12500  0.12500  Biso   1.000  Cu
  Cu2      1.0000 0.62500  0.62500  0.62500  Biso   1.000  Cu
  Cu3      1.0000 0.12500  0.62500  0.12500  Biso   1.000  Cu
  Cu4      1.0000 0.12500  0.12500  0.62500  Biso   1.000  Cu
  Cu5      1.0000 0.37500  0.87500  0.87500  Biso   1.000  Cu
  Cu6      1.0000 0.37500  0.37500  0.37500  Biso   1.000  Cu
  Cu7      1.0000 0.87500  0.37500  0.87500  Biso   1.000  Cu
  Cu8      1.0000 0.87500  0.87500  0.37500  Biso   1.000  Cu
