data_image0
_cell_length_a       10.8546
_cell_length_b       23.6261
_cell_length_c       9.6799
_cell_angle_alpha    90
_cell_angle_beta     104.14
_cell_angle_gamma    90

_symmetry_space_group_name_H-M    "P 1"
_symmetry_int_tables_number       1

loop_
  _symmetry_equiv_pos_as_xyz
  'x, y, z'

loop_
  _atom_site_label
  _atom_site_occupancy
  _atom_site_fract_x
  _atom_site_fract_y
  _atom_site_fract_z
  _atom_site_thermal_displace_type
  _atom_site_B_iso_or_equiv
  _atom_site_type_symbol
  Cd1      1.0000 0.31934  0.10554  0.47238  Biso   1.000  Cd
  O1       1.0000 0.16405  0.04458  0.36101  Biso   1.000  O
  O2       1.0000 0.23175  0.09961  0.21045  Biso   1.000  O
  C1       1.0000 0.16382  0.06030  0.23581  Biso   1.000  C
  C2       1.0000 0.07842  0.02922  0.11325  Biso   1.000  C
  C3       1.0000 0.98632  0.99202  0.13789  Biso   1.000  C
  H1       1.0000 0.97690  0.98660  0.23200  Biso   1.000  H
  C4       1.0000 0.09155  0.03711  0.97468  Biso   1.000  C
  H2       1.0000 0.15400  0.06250  0.95740  Biso   1.000  H
  O3       1.0000 0.42350  0.03360  0.61964  Biso   1.000  O
  O4       1.0000 0.33006  0.09829  0.72234  Biso   1.000  O
  C5       1.0000 0.39694  0.05461  0.72827  Biso   1.000  C
  C6       1.0000 0.44928  0.02613  0.86914  Biso   1.000  C
  C7       1.0000 0.52082  0.97671  0.87554  Biso   1.000  C
  H3       1.0000 0.53520  0.96090  0.79060  Biso   1.000  H
  C8       1.0000 0.42909  0.04940  0.99476  Biso   1.000  C
  H4       1.0000 0.38090  0.08320  0.99110  Biso   1.000  H
  N1       1.0000 0.51175  0.12191  0.43047  Biso   1.000  N
  N2       1.0000 0.70227  0.10050  0.40508  Biso   1.000  N
  N3       1.0000 0.12782  0.22991  0.91998  Biso   1.000  N
  N4       1.0000 0.24848  0.30551  0.96919  Biso   1.000  N
  C9       1.0000 0.60985  0.08712  0.46913  Biso   1.000  C
  H5       1.0000 0.61410  0.05660  0.53400  Biso   1.000  H
  C10      1.0000 0.54424  0.15923  0.33620  Biso   1.000  C
  H6       1.0000 0.49210  0.18920  0.28950  Biso   1.000  H
  C11      1.0000 0.66168  0.14680  0.31990  Biso   1.000  C
  H7       1.0000 0.70680  0.16610  0.26160  Biso   1.000  H
  C12      1.0000 0.82476  0.07157  0.42520  Biso   1.000  C
  H8       1.0000 0.83570  0.05860  0.33170  Biso   1.000  H
  H9       1.0000 0.82550  0.03780  0.48600  Biso   1.000  H
  C13      1.0000 0.93461  0.11011  0.49420  Biso   1.000  C
  H10      1.0000 0.93920  0.14160  0.42800  Biso   1.000  H
  H11      1.0000 0.01490  0.08840  0.50960  Biso   1.000  H
  C14      1.0000 0.92315  0.13472  0.63587  Biso   1.000  C
  H12      1.0000 0.91060  0.10350  0.69920  Biso   1.000  H
  H13      1.0000 0.84730  0.15940  0.61930  Biso   1.000  H
  C15      1.0000 0.04011  0.16894  0.71030  Biso   1.000  C
  H14      1.0000 0.11600  0.14420  0.73010  Biso   1.000  H
  H15      1.0000 0.05410  0.20000  0.64710  Biso   1.000  H
  C16      1.0000 0.02212  0.19343  0.84870  Biso   1.000  C
  H16      1.0000 0.94240  0.21560  0.82890  Biso   1.000  H
  H17      1.0000 0.01350  0.16210  0.91350  Biso   1.000  H
  C17      1.0000 0.22376  0.21661  0.03660  Biso   1.000  C
  H18      1.0000 0.23650  0.18160  0.08610  Biso   1.000  H
  C18      1.0000 0.29645  0.26368  0.06660  Biso   1.000  C
  H19      1.0000 0.36970  0.26730  0.14330  Biso   1.000  H
  C19      1.0000 0.14675  0.28339  0.88283  Biso   1.000  C
  H20      1.0000 0.09370  0.30280  0.80450  Biso   1.000  H
  Cd2      1.0000 0.68066  0.60554  0.02762  Biso   1.000  Cd
  O5       1.0000 0.83595  0.54458  0.13899  Biso   1.000  O
  O6       1.0000 0.76825  0.59961  0.28955  Biso   1.000  O
  C20      1.0000 0.83618  0.56030  0.26419  Biso   1.000  C
  C21      1.0000 0.92158  0.52922  0.38675  Biso   1.000  C
  C22      1.0000 0.01368  0.49202  0.36211  Biso   1.000  C
  H21      1.0000 0.02310  0.48660  0.26800  Biso   1.000  H
  C23      1.0000 0.90845  0.53711  0.52532  Biso   1.000  C
  H22      1.0000 0.84600  0.56250  0.54260  Biso   1.000  H
  O7       1.0000 0.57650  0.53360  0.88036  Biso   1.000  O
  O8       1.0000 0.66994  0.59829  0.77766  Biso   1.000  O
  C24      1.0000 0.60306  0.55461  0.77173  Biso   1.000  C
  C25      1.0000 0.55072  0.52613  0.63086  Biso   1.000  C
  C26      1.0000 0.47918  0.47671  0.62446  Biso   1.000  C
  H23      1.0000 0.46480  0.46090  0.70940  Biso   1.000  H
  C27      1.0000 0.57091  0.54940  0.50524  Biso   1.000  C
  H24      1.0000 0.61910  0.58320  0.50890  Biso   1.000  H
  N5       1.0000 0.48825  0.62191  0.06953  Biso   1.000  N
  N6       1.0000 0.29773  0.60050  0.09492  Biso   1.000  N
  N7       1.0000 0.87218  0.72991  0.58002  Biso   1.000  N
  N8       1.0000 0.75152  0.80551  0.53081  Biso   1.000  N
  C28      1.0000 0.39015  0.58712  0.03087  Biso   1.000  C
  H25      1.0000 0.38590  0.55660  0.96600  Biso   1.000  H
  C29      1.0000 0.45576  0.65923  0.16380  Biso   1.000  C
  H26      1.0000 0.50790  0.68920  0.21050  Biso   1.000  H
  C30      1.0000 0.33832  0.64680  0.18010  Biso   1.000  C
  H27      1.0000 0.29320  0.66610  0.23840  Biso   1.000  H
  C31      1.0000 0.17524  0.57157  0.07480  Biso   1.000  C
  H28      1.0000 0.16430  0.55860  0.16830  Biso   1.000  H
  H29      1.0000 0.17450  0.53780  0.01400  Biso   1.000  H
  C32      1.0000 0.06539  0.61011  0.00580  Biso   1.000  C
  H30      1.0000 0.06080  0.64160  0.07200  Biso   1.000  H
  H31      1.0000 0.98510  0.58840  0.99040  Biso   1.000  H
  C33      1.0000 0.07685  0.63472  0.86413  Biso   1.000  C
  H32      1.0000 0.08940  0.60350  0.80080  Biso   1.000  H
  H33      1.0000 0.15270  0.65940  0.88070  Biso   1.000  H
  C34      1.0000 0.95989  0.66894  0.78970  Biso   1.000  C
  H34      1.0000 0.88400  0.64420  0.76990  Biso   1.000  H
  H35      1.0000 0.94590  0.70000  0.85290  Biso   1.000  H
  C35      1.0000 0.97788  0.69343  0.65130  Biso   1.000  C
  H36      1.0000 0.05760  0.71560  0.67110  Biso   1.000  H
  H37      1.0000 0.98650  0.66210  0.58650  Biso   1.000  H
  C36      1.0000 0.77624  0.71661  0.46340  Biso   1.000  C
  H38      1.0000 0.76350  0.68160  0.41390  Biso   1.000  H
  C37      1.0000 0.70355  0.76368  0.43340  Biso   1.000  C
  H39      1.0000 0.63030  0.76730  0.35670  Biso   1.000  H
  C38      1.0000 0.85325  0.78339  0.61717  Biso   1.000  C
  H40      1.0000 0.90630  0.80280  0.69550  Biso   1.000  H
  Cd3      1.0000 0.68066  0.89446  0.52762  Biso   1.000  Cd
  O9       1.0000 0.83595  0.95542  0.63899  Biso   1.000  O
  O10      1.0000 0.76825  0.90039  0.78955  Biso   1.000  O
  C39      1.0000 0.83618  0.93970  0.76419  Biso   1.000  C
  C40      1.0000 0.92158  0.97078  0.88675  Biso   1.000  C
  C41      1.0000 0.01368  0.00798  0.86211  Biso   1.000  C
  H41      1.0000 0.02310  0.01340  0.76800  Biso   1.000  H
  C42      1.0000 0.90845  0.96289  0.02532  Biso   1.000  C
  H42      1.0000 0.84600  0.93750  0.04260  Biso   1.000  H
  O11      1.0000 0.57650  0.96640  0.38036  Biso   1.000  O
  O12      1.0000 0.66994  0.90171  0.27766  Biso   1.000  O
  C43      1.0000 0.60306  0.94539  0.27173  Biso   1.000  C
  C44      1.0000 0.55072  0.97387  0.13086  Biso   1.000  C
  C45      1.0000 0.47918  0.02329  0.12446  Biso   1.000  C
  H43      1.0000 0.46480  0.03910  0.20940  Biso   1.000  H
  C46      1.0000 0.57091  0.95060  0.00524  Biso   1.000  C
  H44      1.0000 0.61910  0.91680  0.00890  Biso   1.000  H
  N9       1.0000 0.48825  0.87809  0.56953  Biso   1.000  N
  N10      1.0000 0.29773  0.89950  0.59492  Biso   1.000  N
  N11      1.0000 0.87218  0.77009  0.08002  Biso   1.000  N
  N12      1.0000 0.75152  0.69449  0.03081  Biso   1.000  N
  C47      1.0000 0.39015  0.91288  0.53087  Biso   1.000  C
  H45      1.0000 0.38590  0.94340  0.46600  Biso   1.000  H
  C48      1.0000 0.45576  0.84077  0.66380  Biso   1.000  C
  H46      1.0000 0.50790  0.81080  0.71050  Biso   1.000  H
  C49      1.0000 0.33832  0.85320  0.68010  Biso   1.000  C
  H47      1.0000 0.29320  0.83390  0.73840  Biso   1.000  H
  C50      1.0000 0.17524  0.92843  0.57480  Biso   1.000  C
  H48      1.0000 0.16430  0.94140  0.66830  Biso   1.000  H
  H49      1.0000 0.17450  0.96220  0.51400  Biso   1.000  H
  C51      1.0000 0.06539  0.88989  0.50580  Biso   1.000  C
  H50      1.0000 0.06080  0.85840  0.57200  Biso   1.000  H
  H51      1.0000 0.98510  0.91160  0.49040  Biso   1.000  H
  C52      1.0000 0.07685  0.86528  0.36413  Biso   1.000  C
  H52      1.0000 0.08940  0.89650  0.30080  Biso   1.000  H
  H53      1.0000 0.15270  0.84060  0.38070  Biso   1.000  H
  C53      1.0000 0.95989  0.83106  0.28970  Biso   1.000  C
  H54      1.0000 0.88400  0.85580  0.26990  Biso   1.000  H
  H55      1.0000 0.94590  0.80000  0.35290  Biso   1.000  H
  C54      1.0000 0.97788  0.80657  0.15130  Biso   1.000  C
  H56      1.0000 0.05760  0.78440  0.17110  Biso   1.000  H
  H57      1.0000 0.98650  0.83790  0.08650  Biso   1.000  H
  C55      1.0000 0.77624  0.78339  0.96340  Biso   1.000  C
  H58      1.0000 0.76350  0.81840  0.91390  Biso   1.000  H
  C56      1.0000 0.70355  0.73632  0.93340  Biso   1.000  C
  H59      1.0000 0.63030  0.73270  0.85670  Biso   1.000  H
  C57      1.0000 0.85325  0.71661  0.11717  Biso   1.000  C
  H60      1.0000 0.90630  0.69720  0.19550  Biso   1.000  H
  Cd4      1.0000 0.31934  0.39446  0.97238  Biso   1.000  Cd
  O13      1.0000 0.16405  0.45542  0.86101  Biso   1.000  O
  O14      1.0000 0.23175  0.40039  0.71045  Biso   1.000  O
  C58      1.0000 0.16382  0.43970  0.73581  Biso   1.000  C
  C59      1.0000 0.07842  0.47078  0.61325  Biso   1.000  C
  C60      1.0000 0.98632  0.50798  0.63789  Biso   1.000  C
  H61      1.0000 0.97690  0.51340  0.73200  Biso   1.000  H
  C61      1.0000 0.09155  0.46289  0.47468  Biso   1.000  C
  H62      1.0000 0.15400  0.43750  0.45740  Biso   1.000  H
  O15      1.0000 0.42350  0.46640  0.11964  Biso   1.000  O
  O16      1.0000 0.33006  0.40171  0.22234  Biso   1.000  O
  C62      1.0000 0.39694  0.44539  0.22827  Biso   1.000  C
  C63      1.0000 0.44928  0.47387  0.36914  Biso   1.000  C
  C64      1.0000 0.52082  0.52329  0.37554  Biso   1.000  C
  H63      1.0000 0.53520  0.53910  0.29060  Biso   1.000  H
  C65      1.0000 0.42909  0.45060  0.49476  Biso   1.000  C
  H64      1.0000 0.38090  0.41680  0.49110  Biso   1.000  H
  N13      1.0000 0.51175  0.37809  0.93047  Biso   1.000  N
  N14      1.0000 0.70227  0.39950  0.90508  Biso   1.000  N
  N15      1.0000 0.12782  0.27009  0.41998  Biso   1.000  N
  N16      1.0000 0.24848  0.19449  0.46919  Biso   1.000  N
  C66      1.0000 0.60985  0.41288  0.96913  Biso   1.000  C
  H65      1.0000 0.61410  0.44340  0.03400  Biso   1.000  H
  C67      1.0000 0.54424  0.34077  0.83620  Biso   1.000  C
  H66      1.0000 0.49210  0.31080  0.78950  Biso   1.000  H
  C68      1.0000 0.66168  0.35320  0.81990  Biso   1.000  C
  H67      1.0000 0.70680  0.33390  0.76160  Biso   1.000  H
  C69      1.0000 0.82476  0.42843  0.92520  Biso   1.000  C
  H68      1.0000 0.83570  0.44140  0.83170  Biso   1.000  H
  H69      1.0000 0.82550  0.46220  0.98600  Biso   1.000  H
  C70      1.0000 0.93461  0.38989  0.99420  Biso   1.000  C
  H70      1.0000 0.93920  0.35840  0.92800  Biso   1.000  H
  H71      1.0000 0.01490  0.41160  0.00960  Biso   1.000  H
  C71      1.0000 0.92315  0.36528  0.13587  Biso   1.000  C
  H72      1.0000 0.91060  0.39650  0.19920  Biso   1.000  H
  H73      1.0000 0.84730  0.34060  0.11930  Biso   1.000  H
  C72      1.0000 0.04011  0.33106  0.21030  Biso   1.000  C
  H74      1.0000 0.11600  0.35580  0.23010  Biso   1.000  H
  H75      1.0000 0.05410  0.30000  0.14710  Biso   1.000  H
  C73      1.0000 0.02212  0.30657  0.34870  Biso   1.000  C
  H76      1.0000 0.94240  0.28440  0.32890  Biso   1.000  H
  H77      1.0000 0.01350  0.33790  0.41350  Biso   1.000  H
  C74      1.0000 0.22376  0.28339  0.53660  Biso   1.000  C
  H78      1.0000 0.23650  0.31840  0.58610  Biso   1.000  H
  C75      1.0000 0.29645  0.23632  0.56660  Biso   1.000  C
  H79      1.0000 0.36970  0.23270  0.64330  Biso   1.000  H
  C76      1.0000 0.14675  0.21661  0.38283  Biso   1.000  C
  H80      1.0000 0.09370  0.19720  0.30450  Biso   1.000  H
