data_image0
_cell_length_a       8.6032
_cell_length_b       13.223
_cell_length_c       13.481
_cell_angle_alpha    90
_cell_angle_beta     92.386
_cell_angle_gamma    90

_symmetry_space_group_name_H-M    "P 1"
_symmetry_int_tables_number       1

loop_
  _symmetry_equiv_pos_as_xyz
  'x, y, z'

loop_
  _atom_site_label
  _atom_site_occupancy
  _atom_site_fract_x
  _atom_site_fract_y
  _atom_site_fract_z
  _atom_site_thermal_displace_type
  _atom_site_B_iso_or_equiv
  _atom_site_type_symbol
  Be1      1.0000 0.42030  0.11960  0.75010  Biso   1.000  Be
  Be2      1.0000 0.67680  0.32630  0.90410  Biso   1.000  Be
  Be3      1.0000 0.84180  0.50390  0.25840  Biso   1.000  Be
  P1       1.0000 0.65881  0.10076  0.90597  Biso   1.000  P
  H1       1.0000 0.64270  0.07500  0.00090  Biso   1.000  H
  P2       1.0000 0.39464  0.34009  0.77125  Biso   1.000  P
  H2       1.0000 0.46600  0.38460  0.69850  Biso   1.000  H
  P3       1.0000 0.81356  0.45396  0.75046  Biso   1.000  P
  H3       1.0000 0.73770  0.41520  0.67340  Biso   1.000  H
  P4       1.0000 0.69030  0.36229  0.12333  Biso   1.000  P
  H4       1.0000 0.69840  0.26450  0.13860  Biso   1.000  H
  O1       1.0000 0.77580  0.02800  0.86510  Biso   1.000  O
  O2       1.0000 0.49810  0.09370  0.85650  Biso   1.000  O
  O3       1.0000 0.72350  0.20760  0.90850  Biso   1.000  O
  O4       1.0000 0.35770  0.23370  0.74020  Biso   1.000  O
  O5       1.0000 0.49800  0.34460  0.86460  Biso   1.000  O
  O6       1.0000 0.24380  0.39590  0.78740  Biso   1.000  O
  O7       1.0000 0.73490  0.55280  0.77130  Biso   1.000  O
  O8       1.0000 0.97690  0.47000  0.72090  Biso   1.000  O
  O9       1.0000 0.80340  0.37880  0.83310  Biso   1.000  O
  O10      1.0000 0.69990  0.37940  0.01230  Biso   1.000  O
  O11      1.0000 0.82680  0.41040  0.17980  Biso   1.000  O
  O12      1.0000 0.53460  0.39860  0.15900  Biso   1.000  O
  Be4      1.0000 0.57970  0.61960  0.74990  Biso   1.000  Be
  Be5      1.0000 0.32320  0.82630  0.59590  Biso   1.000  Be
  Be6      1.0000 0.15820  0.00390  0.24160  Biso   1.000  Be
  P5       1.0000 0.34119  0.60076  0.59403  Biso   1.000  P
  H5       1.0000 0.35730  0.57500  0.49910  Biso   1.000  H
  P6       1.0000 0.60536  0.84009  0.72875  Biso   1.000  P
  H6       1.0000 0.53400  0.88460  0.80150  Biso   1.000  H
  P7       1.0000 0.18644  0.95396  0.74954  Biso   1.000  P
  H7       1.0000 0.26230  0.91520  0.82660  Biso   1.000  H
  P8       1.0000 0.30970  0.86229  0.37667  Biso   1.000  P
  H8       1.0000 0.30160  0.76450  0.36140  Biso   1.000  H
  O13      1.0000 0.22420  0.52800  0.63490  Biso   1.000  O
  O14      1.0000 0.50190  0.59370  0.64350  Biso   1.000  O
  O15      1.0000 0.27650  0.70760  0.59150  Biso   1.000  O
  O16      1.0000 0.64230  0.73370  0.75980  Biso   1.000  O
  O17      1.0000 0.50200  0.84460  0.63540  Biso   1.000  O
  O18      1.0000 0.75620  0.89590  0.71260  Biso   1.000  O
  O19      1.0000 0.26510  0.05280  0.72870  Biso   1.000  O
  O20      1.0000 0.02310  0.97000  0.77910  Biso   1.000  O
  O21      1.0000 0.19660  0.87880  0.66690  Biso   1.000  O
  O22      1.0000 0.30010  0.87940  0.48770  Biso   1.000  O
  O23      1.0000 0.17320  0.91040  0.32020  Biso   1.000  O
  O24      1.0000 0.46540  0.89860  0.34100  Biso   1.000  O
  Be7      1.0000 0.57970  0.88040  0.24990  Biso   1.000  Be
  Be8      1.0000 0.32320  0.67370  0.09590  Biso   1.000  Be
  Be9      1.0000 0.15820  0.49610  0.74160  Biso   1.000  Be
  P9       1.0000 0.34119  0.89924  0.09403  Biso   1.000  P
  H9       1.0000 0.35730  0.92500  0.99910  Biso   1.000  H
  P10      1.0000 0.60536  0.65991  0.22875  Biso   1.000  P
  H10      1.0000 0.53400  0.61540  0.30150  Biso   1.000  H
  P11      1.0000 0.18644  0.54604  0.24954  Biso   1.000  P
  H11      1.0000 0.26230  0.58480  0.32660  Biso   1.000  H
  P12      1.0000 0.30970  0.63771  0.87667  Biso   1.000  P
  H12      1.0000 0.30160  0.73550  0.86140  Biso   1.000  H
  O25      1.0000 0.22420  0.97200  0.13490  Biso   1.000  O
  O26      1.0000 0.50190  0.90630  0.14350  Biso   1.000  O
  O27      1.0000 0.27650  0.79240  0.09150  Biso   1.000  O
  O28      1.0000 0.64230  0.76630  0.25980  Biso   1.000  O
  O29      1.0000 0.50200  0.65540  0.13540  Biso   1.000  O
  O30      1.0000 0.75620  0.60410  0.21260  Biso   1.000  O
  O31      1.0000 0.26510  0.44720  0.22870  Biso   1.000  O
  O32      1.0000 0.02310  0.53000  0.27910  Biso   1.000  O
  O33      1.0000 0.19660  0.62120  0.16690  Biso   1.000  O
  O34      1.0000 0.30010  0.62060  0.98770  Biso   1.000  O
  O35      1.0000 0.17320  0.58960  0.82020  Biso   1.000  O
  O36      1.0000 0.46540  0.60140  0.84100  Biso   1.000  O
  Be10     1.0000 0.42030  0.38040  0.25010  Biso   1.000  Be
  Be11     1.0000 0.67680  0.17370  0.40410  Biso   1.000  Be
  Be12     1.0000 0.84180  0.99610  0.75840  Biso   1.000  Be
  P13      1.0000 0.65881  0.39924  0.40597  Biso   1.000  P
  H13      1.0000 0.64270  0.42500  0.50090  Biso   1.000  H
  P14      1.0000 0.39464  0.15991  0.27125  Biso   1.000  P
  H14      1.0000 0.46600  0.11540  0.19850  Biso   1.000  H
  P15      1.0000 0.81356  0.04604  0.25046  Biso   1.000  P
  H15      1.0000 0.73770  0.08480  0.17340  Biso   1.000  H
  P16      1.0000 0.69030  0.13771  0.62333  Biso   1.000  P
  H16      1.0000 0.69840  0.23550  0.63860  Biso   1.000  H
  O37      1.0000 0.77580  0.47200  0.36510  Biso   1.000  O
  O38      1.0000 0.49810  0.40630  0.35650  Biso   1.000  O
  O39      1.0000 0.72350  0.29240  0.40850  Biso   1.000  O
  O40      1.0000 0.35770  0.26630  0.24020  Biso   1.000  O
  O41      1.0000 0.49800  0.15540  0.36460  Biso   1.000  O
  O42      1.0000 0.24380  0.10410  0.28740  Biso   1.000  O
  O43      1.0000 0.73490  0.94720  0.27130  Biso   1.000  O
  O44      1.0000 0.97690  0.03000  0.22090  Biso   1.000  O
  O45      1.0000 0.80340  0.12120  0.33310  Biso   1.000  O
  O46      1.0000 0.69990  0.12060  0.51230  Biso   1.000  O
  O47      1.0000 0.82680  0.08960  0.67980  Biso   1.000  O
  O48      1.0000 0.53460  0.10140  0.65900  Biso   1.000  O
