data_image0
_cell_length_a       16.8396
_cell_length_b       21.4863
_cell_length_c       21.4863
_cell_angle_alpha    81.1666
_cell_angle_beta     66.9292
_cell_angle_gamma    66.9291

_symmetry_space_group_name_H-M    P 1
_symmetry_int_tables_number       1

loop_
  _symmetry_equiv_pos_as_xyz
  'x, y, z'

loop_
  _atom_site_label
  _atom_site_occupancy
  _atom_site_fract_x
  _atom_site_fract_y
  _atom_site_fract_z
  _atom_site_thermal_displace_type
  _atom_site_B_iso_or_equiv
  _atom_site_type_symbol
  Co1      1.0000 0.35814  0.24238  0.53798  Biso   1.000  Co
  Co2      1.0000 0.63850  0.25762  0.96202  Biso   1.000  Co
  Co3      1.0000 0.89612  0.46202  0.74238  Biso   1.000  Co
  Co4      1.0000 0.60051  0.03799  0.75762  Biso   1.000  Co
  H1       1.0000 0.36760  0.14170  0.65330  Biso   1.000  H
  H2       1.0000 0.29910  0.12880  0.76620  Biso   1.000  H
  H3       1.0000 0.12490  0.31910  0.77470  Biso   1.000  H
  H4       1.0000 0.19970  0.32610  0.66090  Biso   1.000  H
  H5       1.0000 0.20520  0.13270  0.98770  Biso   1.000  H
  H6       1.0000 0.27650  0.14720  0.87420  Biso   1.000  H
  H7       1.0000 0.03030  0.27640  0.87300  Biso   1.000  H
  H8       1.0000 0.97060  0.25770  0.98730  Biso   1.000  H
  H9       1.0000 0.49770  0.15000  0.41420  Biso   1.000  H
  H10      1.0000 0.55140  0.15030  0.29890  Biso   1.000  H
  H11      1.0000 0.39330  0.34480  0.30580  Biso   1.000  H
  H12      1.0000 0.34520  0.33880  0.42060  Biso   1.000  H
  H13      1.0000 0.62930  0.54030  0.55630  Biso   1.000  H
  H14      1.0000 0.75160  0.50930  0.59350  Biso   1.000  H
  H15      1.0000 0.57950  0.50090  0.78450  Biso   1.000  H
  H16      1.0000 0.45700  0.53200  0.74740  Biso   1.000  H
  H17      1.0000 0.31070  0.56090  0.61570  Biso   1.000  H
  H18      1.0000 0.28660  0.47970  0.57310  Biso   1.000  H
  H19      1.0000 0.52710  0.34160  0.58000  Biso   1.000  H
  H20      1.0000 0.55130  0.42270  0.62250  Biso   1.000  H
  H21      1.0000 0.48430  0.14040  0.52080  Biso   1.000  H
  H22      1.0000 0.41770  0.12950  0.50550  Biso   1.000  H
  H23      1.0000 0.66260  0.35830  0.84670  Biso   1.000  H
  H24      1.0000 0.69410  0.37120  0.73380  Biso   1.000  H
  H25      1.0000 0.71870  0.18090  0.72530  Biso   1.000  H
  H26      1.0000 0.68670  0.17390  0.83910  Biso   1.000  H
  H27      1.0000 0.82560  0.36730  0.51230  Biso   1.000  H
  H28      1.0000 0.79790  0.35280  0.62580  Biso   1.000  H
  H29      1.0000 0.67970  0.22360  0.62700  Biso   1.000  H
  H30      1.0000 0.71560  0.24230  0.51270  Biso   1.000  H
  H31      1.0000 0.56190  0.35000  0.08580  Biso   1.000  H
  H32      1.0000 0.50060  0.34970  0.20110  Biso   1.000  H
  H33      1.0000 0.54390  0.15520  0.19420  Biso   1.000  H
  H34      1.0000 0.60460  0.16120  0.07940  Biso   1.000  H
  H35      1.0000 0.22590  0.95970  0.94370  Biso   1.000  H
  H36      1.0000 0.35440  0.99070  0.90650  Biso   1.000  H
  H37      1.0000 0.36490  0.99910  0.71550  Biso   1.000  H
  H38      1.0000 0.23640  0.96800  0.75260  Biso   1.000  H
  H39      1.0000 0.98730  0.93910  0.88430  Biso   1.000  H
  H40      1.0000 0.83940  0.02030  0.92690  Biso   1.000  H
  H41      1.0000 0.94870  0.15840  0.92000  Biso   1.000  H
  H42      1.0000 0.09650  0.07730  0.87750  Biso   1.000  H
  H43      1.0000 0.64550  0.35960  0.97920  Biso   1.000  H
  H44      1.0000 0.55270  0.37050  0.99450  Biso   1.000  H
  H45      1.0000 0.02090  0.34670  0.64170  Biso   1.000  H
  H46      1.0000 0.06530  0.23380  0.62880  Biso   1.000  H
  H47      1.0000 0.89960  0.22530  0.81910  Biso   1.000  H
  H48      1.0000 0.86060  0.33910  0.82610  Biso   1.000  H
  H49      1.0000 0.19290  0.01230  0.63270  Biso   1.000  H
  H50      1.0000 0.15070  0.12580  0.64720  Biso   1.000  H
  H51      1.0000 0.90330  0.12700  0.77640  Biso   1.000  H
  H52      1.0000 0.95790  0.01270  0.75770  Biso   1.000  H
  H53      1.0000 0.91190  0.58580  0.65000  Biso   1.000  H
  H54      1.0000 0.85030  0.70110  0.65030  Biso   1.000  H
  H55      1.0000 0.69910  0.69420  0.84480  Biso   1.000  H
  H56      1.0000 0.76580  0.57940  0.83880  Biso   1.000  H
  H57      1.0000 0.18560  0.44370  0.04030  Biso   1.000  H
  H58      1.0000 0.34510  0.40650  0.00930  Biso   1.000  H
  H59      1.0000 0.36400  0.21550  0.00090  Biso   1.000  H
  H60      1.0000 0.20440  0.25260  0.03200  Biso   1.000  H
  H61      1.0000 0.92640  0.38430  0.06090  Biso   1.000  H
  H62      1.0000 0.85970  0.42690  0.97970  Biso   1.000  H
  H63      1.0000 0.10710  0.42000  0.84160  Biso   1.000  H
  H64      1.0000 0.17380  0.37750  0.92270  Biso   1.000  H
  H65      1.0000 0.00510  0.47920  0.64040  Biso   1.000  H
  H66      1.0000 0.92320  0.49450  0.62950  Biso   1.000  H
  H67      1.0000 0.50930  0.15330  0.85830  Biso   1.000  H
  H68      1.0000 0.42790  0.26620  0.87120  Biso   1.000  H
  H69      1.0000 0.44400  0.27470  0.68090  Biso   1.000  H
  H70      1.0000 0.52580  0.16090  0.67390  Biso   1.000  H
  H71      1.0000 0.33790  0.48770  0.86730  Biso   1.000  H
  H72      1.0000 0.42370  0.37420  0.85280  Biso   1.000  H
  H73      1.0000 0.30670  0.37300  0.72360  Biso   1.000  H
  H74      1.0000 0.22830  0.48730  0.74230  Biso   1.000  H
  H75      1.0000 0.64770  0.91420  0.85000  Biso   1.000  H
  H76      1.0000 0.70170  0.79890  0.84970  Biso   1.000  H
  H77      1.0000 0.73810  0.80580  0.65520  Biso   1.000  H
  H78      1.0000 0.68400  0.92060  0.66120  Biso   1.000  H
  H79      1.0000 0.16960  0.05630  0.45970  Biso   1.000  H
  H80      1.0000 0.26090  0.09350  0.49070  Biso   1.000  H
  H81      1.0000 0.08040  0.28450  0.49910  Biso   1.000  H
  H82      1.0000 0.98900  0.24740  0.46800  Biso   1.000  H
  H83      1.0000 0.87160  0.11570  0.43910  Biso   1.000  H
  H84      1.0000 0.76630  0.07310  0.52030  Biso   1.000  H
  H85      1.0000 0.86870  0.08000  0.65840  Biso   1.000  H
  H86      1.0000 0.97400  0.12250  0.57730  Biso   1.000  H
  H87      1.0000 0.62470  0.02080  0.85960  Biso   1.000  H
  H88      1.0000 0.54720  0.00550  0.87050  Biso   1.000  H
  C1       1.0000 0.31805  0.17834  0.67796  Biso   1.000  C
  C2       1.0000 0.27730  0.17028  0.74612  Biso   1.000  C
  C3       1.0000 0.20446  0.22286  0.78502  Biso   1.000  C
  C4       1.0000 0.17501  0.28185  0.75133  Biso   1.000  C
  C5       1.0000 0.22051  0.28536  0.68242  Biso   1.000  C
  C6       1.0000 0.16920  0.16220  0.96420  Biso   1.000  C
  C7       1.0000 0.21313  0.17038  0.89556  Biso   1.000  C
  C8       1.0000 0.16079  0.21395  0.85907  Biso   1.000  C
  C9       1.0000 0.06874  0.24658  0.89454  Biso   1.000  C
  C10      1.0000 0.03340  0.23430  0.96390  Biso   1.000  C
  C11      1.0000 0.47681  0.19020  0.39198  Biso   1.000  C
  C12      1.0000 0.50973  0.19007  0.32247  Biso   1.000  C
  C13      1.0000 0.48098  0.24882  0.28782  Biso   1.000  C
  C14      1.0000 0.41719  0.30421  0.32641  Biso   1.000  C
  C15      1.0000 0.38804  0.29997  0.39575  Biso   1.000  C
  C16      1.0000 0.37970  0.35070  0.55550  Biso   1.000  C
  C17      1.0000 0.76040  0.48450  0.70770  Biso   1.000  C
  C18      1.0000 0.53100  0.53930  0.64810  Biso   1.000  C
  C19      1.0000 0.61930  0.53240  0.60200  Biso   1.000  C
  C20      1.0000 0.69260  0.51380  0.62440  Biso   1.000  C
  C21      1.0000 0.67770  0.50190  0.69270  Biso   1.000  C
  C22      1.0000 0.58940  0.50880  0.73880  Biso   1.000  C
  C23      1.0000 0.51610  0.52750  0.71650  Biso   1.000  C
  C24      1.0000 0.43340  0.49990  0.62330  Biso   1.000  C
  C25      1.0000 0.35410  0.51690  0.60850  Biso   1.000  C
  C26      1.0000 0.33960  0.46830  0.58310  Biso   1.000  C
  C27      1.0000 0.40440  0.40260  0.57240  Biso   1.000  C
  C28      1.0000 0.48380  0.38550  0.58710  Biso   1.000  C
  C29      1.0000 0.49820  0.43420  0.61260  Biso   1.000  C
  C30      1.0000 0.67435  0.32166  0.82204  Biso   1.000  C
  C31      1.0000 0.69370  0.32972  0.75388  Biso   1.000  C
  C32      1.0000 0.71234  0.27714  0.71498  Biso   1.000  C
  C33      1.0000 0.70819  0.21815  0.74867  Biso   1.000  C
  C34      1.0000 0.68829  0.21464  0.81758  Biso   1.000  C
  C35      1.0000 0.79560  0.33780  0.53580  Biso   1.000  C
  C36      1.0000 0.77907  0.32962  0.60444  Biso   1.000  C
  C37      1.0000 0.73381  0.28605  0.64093  Biso   1.000  C
  C38      1.0000 0.70986  0.25342  0.60546  Biso   1.000  C
  C39      1.0000 0.73160  0.26570  0.53610  Biso   1.000  C
  C40      1.0000 0.55899  0.30980  0.10802  Biso   1.000  C
  C41      1.0000 0.52227  0.30993  0.17753  Biso   1.000  C
  C42      1.0000 0.51762  0.25118  0.21218  Biso   1.000  C
  C43      1.0000 0.54781  0.19579  0.17359  Biso   1.000  C
  C44      1.0000 0.58376  0.20003  0.10425  Biso   1.000  C
  C45      1.0000 0.78590  0.14930  0.94450  Biso   1.000  C
  C46      1.0000 0.45260  0.01550  0.79230  Biso   1.000  C
  C47      1.0000 0.21840  0.96070  0.85190  Biso   1.000  C
  C48      1.0000 0.25370  0.96760  0.89800  Biso   1.000  C
  C49      1.0000 0.33080  0.98620  0.87560  Biso   1.000  C
  C50      1.0000 0.37230  0.99810  0.80730  Biso   1.000  C
  C51      1.0000 0.33700  0.99120  0.76120  Biso   1.000  C
  C52      1.0000 0.26010  0.97250  0.78350  Biso   1.000  C
  C53      1.0000 0.05660  0.00010  0.87670  Biso   1.000  C
  C54      1.0000 0.97950  0.98310  0.89150  Biso   1.000  C
  C55      1.0000 0.89100  0.03170  0.91690  Biso   1.000  C
  C56      1.0000 0.87940  0.09740  0.92760  Biso   1.000  C
  C57      1.0000 0.95640  0.11450  0.91290  Biso   1.000  C
  C58      1.0000 0.04500  0.06580  0.88740  Biso   1.000  C
  C59      1.0000 0.99601  0.32204  0.67834  Biso   1.000  C
  C60      1.0000 0.02342  0.25388  0.67028  Biso   1.000  C
  C61      1.0000 0.98948  0.21498  0.72286  Biso   1.000  C
  C62      1.0000 0.92634  0.24867  0.78185  Biso   1.000  C
  C63      1.0000 0.90293  0.31758  0.78536  Biso   1.000  C
  C64      1.0000 0.13340  0.03580  0.66220  Biso   1.000  C
  C65      1.0000 0.10869  0.10444  0.67038  Biso   1.000  C
  C66      1.0000 0.01986  0.14093  0.71395  Biso   1.000  C
  C67      1.0000 0.96328  0.10546  0.74658  Biso   1.000  C
  C68      1.0000 0.99730  0.03610  0.73430  Biso   1.000  C
  C69      1.0000 0.86879  0.60802  0.69020  Biso   1.000  C
  C70      1.0000 0.83220  0.67753  0.69007  Biso   1.000  C
  C71      1.0000 0.76880  0.71218  0.74882  Biso   1.000  C
  C72      1.0000 0.74360  0.67359  0.80421  Biso   1.000  C
  C73      1.0000 0.78379  0.60425  0.79997  Biso   1.000  C
  C74      1.0000 0.93520  0.44450  0.85070  Biso   1.000  C
  C75      1.0000 0.46810  0.29230  0.98450  Biso   1.000  C
  C76      1.0000 0.17910  0.35190  0.03930  Biso   1.000  C
  C77      1.0000 0.22130  0.39800  0.03240  Biso   1.000  C
  C78      1.0000 0.31700  0.37560  0.01380  Biso   1.000  C
  C79      1.0000 0.37040  0.30730  0.00190  Biso   1.000  C
  C80      1.0000 0.32820  0.26120  0.00880  Biso   1.000  C
  C81      1.0000 0.23260  0.28350  0.02750  Biso   1.000  C
  C82      1.0000 0.05670  0.37670  0.99990  Biso   1.000  C
  C83      1.0000 0.96260  0.39150  0.01690  Biso   1.000  C
  C84      1.0000 0.92270  0.41690  0.96830  Biso   1.000  C
  C85      1.0000 0.97680  0.42760  0.90260  Biso   1.000  C
  C86      1.0000 0.07090  0.41290  0.88550  Biso   1.000  C
  C87      1.0000 0.11080  0.38740  0.93420  Biso   1.000  C
  C88      1.0000 0.49639  0.17796  0.82166  Biso   1.000  C
  C89      1.0000 0.44758  0.24612  0.82972  Biso   1.000  C
  C90      1.0000 0.42732  0.28502  0.77714  Biso   1.000  C
  C91      1.0000 0.45686  0.25133  0.71815  Biso   1.000  C
  C92      1.0000 0.50587  0.18242  0.71464  Biso   1.000  C
  C93      1.0000 0.33140  0.46420  0.83780  Biso   1.000  C
  C94      1.0000 0.38351  0.39556  0.82962  Biso   1.000  C
  C95      1.0000 0.37474  0.35907  0.78605  Biso   1.000  C
  C96      1.0000 0.31532  0.39454  0.75342  Biso   1.000  C
  C97      1.0000 0.26770  0.46390  0.76570  Biso   1.000  C
  C98      1.0000 0.66701  0.89198  0.80980  Biso   1.000  C
  C99      1.0000 0.69980  0.82247  0.80993  Biso   1.000  C
  C100     1.0000 0.72980  0.78782  0.75118  Biso   1.000  C
  C101     1.0000 0.72140  0.82641  0.69579  Biso   1.000  C
  C102     1.0000 0.68801  0.89575  0.70003  Biso   1.000  C
  C103     1.0000 0.73040  0.05550  0.64930  Biso   1.000  C
  C104     1.0000 0.24490  0.20770  0.51550  Biso   1.000  C
  C105     1.0000 0.07030  0.14810  0.46070  Biso   1.000  C
  C106     1.0000 0.15170  0.10200  0.46760  Biso   1.000  C
  C107     1.0000 0.20640  0.12440  0.48620  Biso   1.000  C
  C108     1.0000 0.17960  0.19270  0.49810  Biso   1.000  C
  C109     1.0000 0.09820  0.23880  0.49120  Biso   1.000  C
  C110     1.0000 0.04360  0.21650  0.47250  Biso   1.000  C
  C111     1.0000 0.93330  0.12330  0.50010  Biso   1.000  C
  C112     1.0000 0.87100  0.10850  0.48310  Biso   1.000  C
  C113     1.0000 0.80790  0.08310  0.53170  Biso   1.000  C
  C114     1.0000 0.80700  0.07240  0.59740  Biso   1.000  C
  C115     1.0000 0.86930  0.08710  0.61450  Biso   1.000  C
  C116     1.0000 0.93240  0.11260  0.56580  Biso   1.000  C
  N1       1.0000 0.29108  0.23530  0.64514  Biso   1.000  N
  N2       1.0000 0.08080  0.19280  0.99860  Biso   1.000  N
  N3       1.0000 0.41658  0.24505  0.42899  Biso   1.000  N
  N4       1.0000 0.67152  0.26470  0.85486  Biso   1.000  N
  N5       1.0000 0.77220  0.30720  0.50140  Biso   1.000  N
  N6       1.0000 0.59062  0.25495  0.07101  Biso   1.000  N
  N7       1.0000 0.93622  0.35486  0.73530  Biso   1.000  N
  N8       1.0000 0.07940  0.00140  0.69280  Biso   1.000  N
  N9       1.0000 0.84557  0.57101  0.74505  Biso   1.000  N
  N10      1.0000 0.52638  0.14514  0.76470  Biso   1.000  N
  N11      1.0000 0.27360  0.49860  0.80720  Biso   1.000  N
  N12      1.0000 0.66163  0.92899  0.75495  Biso   1.000  N
  O1       1.0000 0.43480  0.28760  0.55040  Biso   1.000  O
  O2       1.0000 0.30810  0.36000  0.54620  Biso   1.000  O
  O3       1.0000 0.75950  0.47330  0.76650  Biso   1.000  O
  O4       1.0000 0.84570  0.47357  0.66063  Biso   1.000  O
  O5       1.0000 0.44200  0.54870  0.64970  Biso   1.000  O
  O6       1.0000 0.42690  0.14730  0.53350  Biso   1.000  O
  O7       1.0000 0.77280  0.21240  0.94960  Biso   1.000  O
  O8       1.0000 0.71430  0.14000  0.95380  Biso   1.000  O
  O9       1.0000 0.49930  0.02670  0.73350  Biso   1.000  O
  O10      1.0000 0.47990  0.02643  0.83937  Biso   1.000  O
  O11      1.0000 0.14040  0.95130  0.85030  Biso   1.000  O
  O12      1.0000 0.60770  0.35270  0.96650  Biso   1.000  O
  O13      1.0000 0.98520  0.44960  0.78760  Biso   1.000  O
  O14      1.0000 0.85430  0.45380  0.86000  Biso   1.000  O
  O15      1.0000 0.52600  0.23350  0.97330  Biso   1.000  O
  O16      1.0000 0.50633  0.33937  0.97357  Biso   1.000  O
  O17      1.0000 0.09170  0.35030  0.04870  Biso   1.000  O
  O18      1.0000 0.96040  0.46650  0.64730  Biso   1.000  O
  O19      1.0000 0.72240  0.05040  0.71240  Biso   1.000  O
  O20      1.0000 0.66810  0.04620  0.64000  Biso   1.000  O
  O21      1.0000 0.23280  0.26650  0.52670  Biso   1.000  O
  O22      1.0000 0.31927  0.16063  0.52643  Biso   1.000  O
  O23      1.0000 0.99070  0.14970  0.45130  Biso   1.000  O
  O24      1.0000 0.57420  0.03350  0.85270  Biso   1.000  O
  Co5      1.0000 0.64186  0.75762  0.46202  Biso   1.000  Co
  Co6      1.0000 0.36150  0.74238  0.03798  Biso   1.000  Co
  Co7      1.0000 0.10387  0.53799  0.25762  Biso   1.000  Co
  Co8      1.0000 0.39949  0.96201  0.24238  Biso   1.000  Co
  H89      1.0000 0.63240  0.85830  0.34670  Biso   1.000  H
  H90      1.0000 0.70090  0.87120  0.23380  Biso   1.000  H
  H91      1.0000 0.87510  0.68090  0.22530  Biso   1.000  H
  H92      1.0000 0.80030  0.67390  0.33910  Biso   1.000  H
  H93      1.0000 0.79480  0.86730  0.01230  Biso   1.000  H
  H94      1.0000 0.72350  0.85280  0.12580  Biso   1.000  H
  H95      1.0000 0.96970  0.72360  0.12700  Biso   1.000  H
  H96      1.0000 0.02940  0.74230  0.01270  Biso   1.000  H
  H97      1.0000 0.50230  0.85000  0.58580  Biso   1.000  H
  H98      1.0000 0.44860  0.84970  0.70110  Biso   1.000  H
  H99      1.0000 0.60670  0.65520  0.69420  Biso   1.000  H
  H100     1.0000 0.65480  0.66120  0.57940  Biso   1.000  H
  H101     1.0000 0.37070  0.45970  0.44370  Biso   1.000  H
  H102     1.0000 0.24840  0.49070  0.40650  Biso   1.000  H
  H103     1.0000 0.42050  0.49910  0.21550  Biso   1.000  H
  H104     1.0000 0.54300  0.46800  0.25260  Biso   1.000  H
  H105     1.0000 0.68930  0.43910  0.38430  Biso   1.000  H
  H106     1.0000 0.71340  0.52030  0.42690  Biso   1.000  H
  H107     1.0000 0.47290  0.65840  0.42000  Biso   1.000  H
  H108     1.0000 0.44870  0.57730  0.37750  Biso   1.000  H
  H109     1.0000 0.51570  0.85960  0.47920  Biso   1.000  H
  H110     1.0000 0.58230  0.87050  0.49450  Biso   1.000  H
  H111     1.0000 0.33740  0.64170  0.15330  Biso   1.000  H
  H112     1.0000 0.30590  0.62880  0.26620  Biso   1.000  H
  H113     1.0000 0.28130  0.81910  0.27470  Biso   1.000  H
  H114     1.0000 0.31330  0.82610  0.16090  Biso   1.000  H
  H115     1.0000 0.17440  0.63270  0.48770  Biso   1.000  H
  H116     1.0000 0.20210  0.64720  0.37420  Biso   1.000  H
  H117     1.0000 0.32030  0.77640  0.37300  Biso   1.000  H
  H118     1.0000 0.28440  0.75770  0.48730  Biso   1.000  H
  H119     1.0000 0.43810  0.65000  0.91420  Biso   1.000  H
  H120     1.0000 0.49940  0.65030  0.79890  Biso   1.000  H
  H121     1.0000 0.45610  0.84480  0.80580  Biso   1.000  H
  H122     1.0000 0.39540  0.83880  0.92060  Biso   1.000  H
  H123     1.0000 0.77410  0.04030  0.05630  Biso   1.000  H
  H124     1.0000 0.64560  0.00930  0.09350  Biso   1.000  H
  H125     1.0000 0.63510  0.00090  0.28450  Biso   1.000  H
  H126     1.0000 0.76360  0.03200  0.24740  Biso   1.000  H
  H127     1.0000 0.01270  0.06090  0.11570  Biso   1.000  H
  H128     1.0000 0.16060  0.97970  0.07310  Biso   1.000  H
  H129     1.0000 0.05130  0.84160  0.08000  Biso   1.000  H
  H130     1.0000 0.90350  0.92270  0.12250  Biso   1.000  H
  H131     1.0000 0.35450  0.64040  0.02080  Biso   1.000  H
  H132     1.0000 0.44730  0.62950  0.00550  Biso   1.000  H
  H133     1.0000 0.97910  0.65330  0.35830  Biso   1.000  H
  H134     1.0000 0.93470  0.76620  0.37120  Biso   1.000  H
  H135     1.0000 0.10040  0.77470  0.18090  Biso   1.000  H
  H136     1.0000 0.13940  0.66090  0.17390  Biso   1.000  H
  H137     1.0000 0.80710  0.98770  0.36730  Biso   1.000  H
  H138     1.0000 0.84930  0.87420  0.35280  Biso   1.000  H
  H139     1.0000 0.09670  0.87300  0.22360  Biso   1.000  H
  H140     1.0000 0.04210  0.98730  0.24230  Biso   1.000  H
  H141     1.0000 0.08810  0.41420  0.35000  Biso   1.000  H
  H142     1.0000 0.14970  0.29890  0.34970  Biso   1.000  H
  H143     1.0000 0.30090  0.30580  0.15520  Biso   1.000  H
  H144     1.0000 0.23420  0.42060  0.16120  Biso   1.000  H
  H145     1.0000 0.81440  0.55630  0.95970  Biso   1.000  H
  H146     1.0000 0.65490  0.59350  0.99070  Biso   1.000  H
  H147     1.0000 0.63600  0.78450  0.99910  Biso   1.000  H
  H148     1.0000 0.79560  0.74740  0.96800  Biso   1.000  H
  H149     1.0000 0.07360  0.61570  0.93910  Biso   1.000  H
  H150     1.0000 0.14030  0.57310  0.02030  Biso   1.000  H
  H151     1.0000 0.89290  0.58000  0.15840  Biso   1.000  H
  H152     1.0000 0.82620  0.62250  0.07730  Biso   1.000  H
  H153     1.0000 0.99490  0.52080  0.35960  Biso   1.000  H
  H154     1.0000 0.07680  0.50550  0.37050  Biso   1.000  H
  H155     1.0000 0.49070  0.84670  0.14170  Biso   1.000  H
  H156     1.0000 0.57210  0.73380  0.12880  Biso   1.000  H
  H157     1.0000 0.55600  0.72530  0.31910  Biso   1.000  H
  H158     1.0000 0.47420  0.83910  0.32610  Biso   1.000  H
  H159     1.0000 0.66210  0.51230  0.13270  Biso   1.000  H
  H160     1.0000 0.57630  0.62580  0.14720  Biso   1.000  H
  H161     1.0000 0.69330  0.62700  0.27640  Biso   1.000  H
  H162     1.0000 0.77170  0.51270  0.25770  Biso   1.000  H
  H163     1.0000 0.35230  0.08580  0.15000  Biso   1.000  H
  H164     1.0000 0.29830  0.20110  0.15030  Biso   1.000  H
  H165     1.0000 0.26190  0.19420  0.34480  Biso   1.000  H
  H166     1.0000 0.31600  0.07940  0.33880  Biso   1.000  H
  H167     1.0000 0.83040  0.94370  0.54030  Biso   1.000  H
  H168     1.0000 0.73910  0.90650  0.50930  Biso   1.000  H
  H169     1.0000 0.91960  0.71550  0.50090  Biso   1.000  H
  H170     1.0000 0.01100  0.75260  0.53200  Biso   1.000  H
  H171     1.0000 0.12840  0.88430  0.56090  Biso   1.000  H
  H172     1.0000 0.23370  0.92690  0.47970  Biso   1.000  H
  H173     1.0000 0.13130  0.92000  0.34160  Biso   1.000  H
  H174     1.0000 0.02600  0.87750  0.42270  Biso   1.000  H
  H175     1.0000 0.37530  0.97920  0.14040  Biso   1.000  H
  H176     1.0000 0.45280  0.99450  0.12950  Biso   1.000  H
  C117     1.0000 0.68195  0.82166  0.32204  Biso   1.000  C
  C118     1.0000 0.72270  0.82972  0.25388  Biso   1.000  C
  C119     1.0000 0.79554  0.77714  0.21498  Biso   1.000  C
  C120     1.0000 0.82499  0.71815  0.24867  Biso   1.000  C
  C121     1.0000 0.77949  0.71464  0.31758  Biso   1.000  C
  C122     1.0000 0.83080  0.83780  0.03580  Biso   1.000  C
  C123     1.0000 0.78687  0.82962  0.10444  Biso   1.000  C
  C124     1.0000 0.83921  0.78605  0.14093  Biso   1.000  C
  C125     1.0000 0.93126  0.75342  0.10546  Biso   1.000  C
  C126     1.0000 0.96660  0.76570  0.03610  Biso   1.000  C
  C127     1.0000 0.52319  0.80980  0.60802  Biso   1.000  C
  C128     1.0000 0.49027  0.80993  0.67753  Biso   1.000  C
  C129     1.0000 0.51902  0.75118  0.71218  Biso   1.000  C
  C130     1.0000 0.58281  0.69579  0.67359  Biso   1.000  C
  C131     1.0000 0.61196  0.70003  0.60425  Biso   1.000  C
  C132     1.0000 0.62030  0.64930  0.44450  Biso   1.000  C
  C133     1.0000 0.23960  0.51550  0.29230  Biso   1.000  C
  C134     1.0000 0.46900  0.46070  0.35190  Biso   1.000  C
  C135     1.0000 0.38070  0.46760  0.39800  Biso   1.000  C
  C136     1.0000 0.30740  0.48620  0.37560  Biso   1.000  C
  C137     1.0000 0.32230  0.49810  0.30730  Biso   1.000  C
  C138     1.0000 0.41060  0.49120  0.26120  Biso   1.000  C
  C139     1.0000 0.48390  0.47250  0.28350  Biso   1.000  C
  C140     1.0000 0.56660  0.50010  0.37670  Biso   1.000  C
  C141     1.0000 0.64590  0.48310  0.39150  Biso   1.000  C
  C142     1.0000 0.66040  0.53170  0.41690  Biso   1.000  C
  C143     1.0000 0.59560  0.59740  0.42760  Biso   1.000  C
  C144     1.0000 0.51620  0.61450  0.41290  Biso   1.000  C
  C145     1.0000 0.50180  0.56580  0.38740  Biso   1.000  C
  C146     1.0000 0.32565  0.67834  0.17796  Biso   1.000  C
  C147     1.0000 0.30630  0.67028  0.24612  Biso   1.000  C
  C148     1.0000 0.28766  0.72286  0.28502  Biso   1.000  C
  C149     1.0000 0.29181  0.78185  0.25133  Biso   1.000  C
  C150     1.0000 0.31171  0.78536  0.18242  Biso   1.000  C
  C151     1.0000 0.20440  0.66220  0.46420  Biso   1.000  C
  C152     1.0000 0.22093  0.67038  0.39556  Biso   1.000  C
  C153     1.0000 0.26619  0.71395  0.35907  Biso   1.000  C
  C154     1.0000 0.29014  0.74658  0.39454  Biso   1.000  C
  C155     1.0000 0.26840  0.73430  0.46390  Biso   1.000  C
  C156     1.0000 0.44101  0.69020  0.89198  Biso   1.000  C
  C157     1.0000 0.47773  0.69007  0.82247  Biso   1.000  C
  C158     1.0000 0.48238  0.74882  0.78782  Biso   1.000  C
  C159     1.0000 0.45219  0.80421  0.82641  Biso   1.000  C
  C160     1.0000 0.41624  0.79997  0.89575  Biso   1.000  C
  C161     1.0000 0.21410  0.85070  0.05550  Biso   1.000  C
  C162     1.0000 0.54740  0.98450  0.20770  Biso   1.000  C
  C163     1.0000 0.78160  0.03930  0.14810  Biso   1.000  C
  C164     1.0000 0.74630  0.03240  0.10200  Biso   1.000  C
  C165     1.0000 0.66920  0.01380  0.12440  Biso   1.000  C
  C166     1.0000 0.62770  0.00190  0.19270  Biso   1.000  C
  C167     1.0000 0.66300  0.00880  0.23880  Biso   1.000  C
  C168     1.0000 0.73990  0.02750  0.21650  Biso   1.000  C
  C169     1.0000 0.94340  0.99990  0.12330  Biso   1.000  C
  C170     1.0000 0.02050  0.01690  0.10850  Biso   1.000  C
  C171     1.0000 0.10900  0.96830  0.08310  Biso   1.000  C
  C172     1.0000 0.12060  0.90260  0.07240  Biso   1.000  C
  C173     1.0000 0.04360  0.88550  0.08710  Biso   1.000  C
  C174     1.0000 0.95500  0.93420  0.11260  Biso   1.000  C
  C175     1.0000 0.00399  0.67796  0.32166  Biso   1.000  C
  C176     1.0000 0.97658  0.74612  0.32972  Biso   1.000  C
  C177     1.0000 0.01052  0.78502  0.27714  Biso   1.000  C
  C178     1.0000 0.07366  0.75133  0.21815  Biso   1.000  C
  C179     1.0000 0.09707  0.68242  0.21464  Biso   1.000  C
  C180     1.0000 0.86660  0.96420  0.33780  Biso   1.000  C
  C181     1.0000 0.89131  0.89556  0.32962  Biso   1.000  C
  C182     1.0000 0.98014  0.85907  0.28605  Biso   1.000  C
  C183     1.0000 0.03672  0.89454  0.25342  Biso   1.000  C
  C184     1.0000 0.00270  0.96390  0.26570  Biso   1.000  C
  C185     1.0000 0.13121  0.39198  0.30980  Biso   1.000  C
  C186     1.0000 0.16780  0.32247  0.30993  Biso   1.000  C
  C187     1.0000 0.23120  0.28782  0.25118  Biso   1.000  C
  C188     1.0000 0.25640  0.32641  0.19579  Biso   1.000  C
  C189     1.0000 0.21621  0.39575  0.20003  Biso   1.000  C
  C190     1.0000 0.06480  0.55550  0.14930  Biso   1.000  C
  C191     1.0000 0.53190  0.70770  0.01550  Biso   1.000  C
  C192     1.0000 0.82090  0.64810  0.96070  Biso   1.000  C
  C193     1.0000 0.77870  0.60200  0.96760  Biso   1.000  C
  C194     1.0000 0.68300  0.62440  0.98620  Biso   1.000  C
  C195     1.0000 0.62960  0.69270  0.99810  Biso   1.000  C
  C196     1.0000 0.67180  0.73880  0.99120  Biso   1.000  C
  C197     1.0000 0.76740  0.71650  0.97250  Biso   1.000  C
  C198     1.0000 0.94330  0.62330  0.00010  Biso   1.000  C
  C199     1.0000 0.03740  0.60850  0.98310  Biso   1.000  C
  C200     1.0000 0.07730  0.58310  0.03170  Biso   1.000  C
  C201     1.0000 0.02320  0.57240  0.09740  Biso   1.000  C
  C202     1.0000 0.92910  0.58710  0.11450  Biso   1.000  C
  C203     1.0000 0.88920  0.61260  0.06580  Biso   1.000  C
  C204     1.0000 0.50361  0.82204  0.17834  Biso   1.000  C
  C205     1.0000 0.55242  0.75388  0.17028  Biso   1.000  C
  C206     1.0000 0.57268  0.71498  0.22286  Biso   1.000  C
  C207     1.0000 0.54314  0.74867  0.28185  Biso   1.000  C
  C208     1.0000 0.49413  0.81758  0.28536  Biso   1.000  C
  C209     1.0000 0.66860  0.53580  0.16220  Biso   1.000  C
  C210     1.0000 0.61649  0.60444  0.17038  Biso   1.000  C
  C211     1.0000 0.62526  0.64093  0.21395  Biso   1.000  C
  C212     1.0000 0.68468  0.60546  0.24658  Biso   1.000  C
  C213     1.0000 0.73230  0.53610  0.23430  Biso   1.000  C
  C214     1.0000 0.33299  0.10802  0.19020  Biso   1.000  C
  C215     1.0000 0.30020  0.17753  0.19007  Biso   1.000  C
  C216     1.0000 0.27020  0.21218  0.24882  Biso   1.000  C
  C217     1.0000 0.27860  0.17359  0.30421  Biso   1.000  C
  C218     1.0000 0.31199  0.10425  0.29997  Biso   1.000  C
  C219     1.0000 0.26960  0.94450  0.35070  Biso   1.000  C
  C220     1.0000 0.75510  0.79230  0.48450  Biso   1.000  C
  C221     1.0000 0.92970  0.85190  0.53930  Biso   1.000  C
  C222     1.0000 0.84830  0.89800  0.53240  Biso   1.000  C
  C223     1.0000 0.79360  0.87560  0.51380  Biso   1.000  C
  C224     1.0000 0.82040  0.80730  0.50190  Biso   1.000  C
  C225     1.0000 0.90180  0.76120  0.50880  Biso   1.000  C
  C226     1.0000 0.95640  0.78350  0.52750  Biso   1.000  C
  C227     1.0000 0.06670  0.87670  0.49990  Biso   1.000  C
  C228     1.0000 0.12900  0.89150  0.51690  Biso   1.000  C
  C229     1.0000 0.19210  0.91690  0.46830  Biso   1.000  C
  C230     1.0000 0.19300  0.92760  0.40260  Biso   1.000  C
  C231     1.0000 0.13070  0.91290  0.38550  Biso   1.000  C
  C232     1.0000 0.06760  0.88740  0.43420  Biso   1.000  C
  N13      1.0000 0.70892  0.76470  0.35486  Biso   1.000  N
  N14      1.0000 0.91920  0.80720  0.00140  Biso   1.000  N
  N15      1.0000 0.58342  0.75495  0.57101  Biso   1.000  N
  N16      1.0000 0.32848  0.73530  0.14514  Biso   1.000  N
  N17      1.0000 0.22780  0.69280  0.49860  Biso   1.000  N
  N18      1.0000 0.40938  0.74505  0.92899  Biso   1.000  N
  N19      1.0000 0.06378  0.64514  0.26470  Biso   1.000  N
  N20      1.0000 0.92060  0.99860  0.30720  Biso   1.000  N
  N21      1.0000 0.15443  0.42899  0.25495  Biso   1.000  N
  N22      1.0000 0.47362  0.85486  0.23530  Biso   1.000  N
  N23      1.0000 0.72640  0.50140  0.19280  Biso   1.000  N
  N24      1.0000 0.33837  0.07101  0.24505  Biso   1.000  N
  O25      1.0000 0.56520  0.71240  0.44960  Biso   1.000  O
  O26      1.0000 0.69190  0.64000  0.45380  Biso   1.000  O
  O27      1.0000 0.24050  0.52670  0.23350  Biso   1.000  O
  O28      1.0000 0.15430  0.52643  0.33937  Biso   1.000  O
  O29      1.0000 0.55800  0.45130  0.35030  Biso   1.000  O
  O30      1.0000 0.57310  0.85270  0.46650  Biso   1.000  O
  O31      1.0000 0.22720  0.78760  0.05040  Biso   1.000  O
  O32      1.0000 0.28570  0.86000  0.04620  Biso   1.000  O
  O33      1.0000 0.50070  0.97330  0.26650  Biso   1.000  O
  O34      1.0000 0.52010  0.97357  0.16063  Biso   1.000  O
  O35      1.0000 0.85960  0.04870  0.14970  Biso   1.000  O
  O36      1.0000 0.39230  0.64730  0.03350  Biso   1.000  O
  O37      1.0000 0.01480  0.55040  0.21240  Biso   1.000  O
  O38      1.0000 0.14570  0.54620  0.14000  Biso   1.000  O
  O39      1.0000 0.47400  0.76650  0.02670  Biso   1.000  O
  O40      1.0000 0.49367  0.66063  0.02643  Biso   1.000  O
  O41      1.0000 0.90830  0.64970  0.95130  Biso   1.000  O
  O42      1.0000 0.03960  0.53350  0.35270  Biso   1.000  O
  O43      1.0000 0.27760  0.94960  0.28760  Biso   1.000  O
  O44      1.0000 0.33190  0.95380  0.36000  Biso   1.000  O
  O45      1.0000 0.76720  0.73350  0.47330  Biso   1.000  O
  O46      1.0000 0.68073  0.83937  0.47357  Biso   1.000  O
  O47      1.0000 0.00930  0.85030  0.54870  Biso   1.000  O
  O48      1.0000 0.42580  0.96650  0.14730  Biso   1.000  O
