data_image0
_cell_length_a       7.24698
_cell_length_b       15.5873
_cell_length_c       19.337
_cell_angle_alpha    106.369
_cell_angle_beta     90
_cell_angle_gamma    103.442

_symmetry_space_group_name_H-M    P 1
_symmetry_int_tables_number       1

loop_
  _symmetry_equiv_pos_as_xyz
  'x, y, z'

loop_
  _atom_site_label
  _atom_site_occupancy
  _atom_site_fract_x
  _atom_site_fract_y
  _atom_site_fract_z
  _atom_site_thermal_displace_type
  _atom_site_B_iso_or_equiv
  _atom_site_type_symbol
  Mn1      1.0000 0.83875  0.35366  0.08992  Biso   1.000  Mn
  Mn2      1.0000 0.87062  0.58406  0.04905  Biso   1.000  Mn
  Mn3      1.0000 0.39981  0.56908  0.23072  Biso   1.000  Mn
  Mn4      1.0000 0.51491  0.35366  0.58992  Biso   1.000  Mn
  Mn5      1.0000 0.71344  0.58406  0.54905  Biso   1.000  Mn
  Mn6      1.0000 0.16927  0.56908  0.73072  Biso   1.000  Mn
  H1       1.0000 0.36850  0.21660  0.20230  Biso   1.000  H
  H2       1.0000 0.22350  0.23860  0.40580  Biso   1.000  H
  H3       1.0000 0.50200  0.46440  0.35400  Biso   1.000  H
  H4       1.0000 0.99560  0.95120  0.10750  Biso   1.000  H
  H5       1.0000 0.81710  0.80140  0.08710  Biso   1.000  H
  H6       1.0000 0.84270  0.83060  0.30010  Biso   1.000  H
  H7       1.0000 0.01920  0.98260  0.32250  Biso   1.000  H
  H8       1.0000 0.32690  0.78820  0.30620  Biso   1.000  H
  H9       1.0000 0.49040  0.93780  0.35810  Biso   1.000  H
  H10      1.0000 0.51110  0.98300  0.16210  Biso   1.000  H
  H11      1.0000 0.34010  0.83180  0.10980  Biso   1.000  H
  H12      1.0000 0.68220  0.22340  0.39740  Biso   1.000  H
  H13      1.0000 0.00180  0.45900  0.37090  Biso   1.000  H
  H14      1.0000 0.88210  0.22880  0.20280  Biso   1.000  H
  H15      1.0000 0.84810  0.21660  0.70230  Biso   1.000  H
  H16      1.0000 0.01510  0.23860  0.90580  Biso   1.000  H
  H17      1.0000 0.96240  0.46440  0.85400  Biso   1.000  H
  H18      1.0000 0.95560  0.95120  0.60750  Biso   1.000  H
  H19      1.0000 0.98430  0.80140  0.58710  Biso   1.000  H
  H20      1.0000 0.98790  0.83060  0.80010  Biso   1.000  H
  H21      1.0000 0.96340  0.98260  0.82250  Biso   1.000  H
  H22      1.0000 0.46130  0.78820  0.80620  Biso   1.000  H
  H23      1.0000 0.44740  0.93780  0.85810  Biso   1.000  H
  H24      1.0000 0.47190  0.98300  0.66210  Biso   1.000  H
  H25      1.0000 0.49170  0.83180  0.60980  Biso   1.000  H
  H26      1.0000 0.54120  0.22340  0.89740  Biso   1.000  H
  H27      1.0000 0.45720  0.45900  0.87090  Biso   1.000  H
  H28      1.0000 0.34670  0.22880  0.70280  Biso   1.000  H
  C1       1.0000 0.56010  0.39200  0.21610  Biso   1.000  C
  C2       1.0000 0.45270  0.34700  0.26970  Biso   1.000  C
  C3       1.0000 0.36560  0.25320  0.24930  Biso   1.000  C
  C4       1.0000 0.27250  0.21480  0.30200  Biso   1.000  C
  C5       1.0000 0.27770  0.26600  0.37140  Biso   1.000  C
  C6       1.0000 0.36450  0.36080  0.39190  Biso   1.000  C
  C7       1.0000 0.37160  0.41640  0.46920  Biso   1.000  C
  C8       1.0000 0.44850  0.40140  0.34100  Biso   1.000  C
  C9       1.0000 0.02100  0.98080  0.21530  Biso   1.000  C
  C10      1.0000 0.96450  0.92740  0.14610  Biso   1.000  C
  C11      1.0000 0.86020  0.83720  0.13400  Biso   1.000  C
  C12      1.0000 0.81940  0.79980  0.19090  Biso   1.000  C
  C13      1.0000 0.70310  0.70120  0.17580  Biso   1.000  C
  C14      1.0000 0.87520  0.85500  0.26170  Biso   1.000  C
  C15      1.0000 0.97890  0.94600  0.27560  Biso   1.000  C
  C16      1.0000 0.19950  0.69740  0.16850  Biso   1.000  C
  C17      1.0000 0.31610  0.79320  0.20220  Biso   1.000  C
  C18      1.0000 0.36320  0.82700  0.27740  Biso   1.000  C
  C19      1.0000 0.46170  0.91640  0.30840  Biso   1.000  C
  C20      1.0000 0.51930  0.97580  0.26580  Biso   1.000  C
  C21      1.0000 0.47360  0.94380  0.19070  Biso   1.000  C
  C22      1.0000 0.37160  0.85300  0.15930  Biso   1.000  C
  C23      1.0000 0.76860  0.20840  0.29470  Biso   1.000  C
  C24      1.0000 0.75110  0.25520  0.36800  Biso   1.000  C
  C25      1.0000 0.83870  0.35040  0.39620  Biso   1.000  C
  C26      1.0000 0.79950  0.40000  0.46940  Biso   1.000  C
  C27      1.0000 0.94310  0.39680  0.35220  Biso   1.000  C
  C28      1.0000 0.96120  0.35160  0.28040  Biso   1.000  C
  C29      1.0000 0.07180  0.40280  0.23220  Biso   1.000  C
  C30      1.0000 0.87240  0.25820  0.25130  Biso   1.000  C
  C31      1.0000 0.83190  0.39200  0.71610  Biso   1.000  C
  C32      1.0000 0.89430  0.34700  0.76970  Biso   1.000  C
  C33      1.0000 0.88760  0.25320  0.74930  Biso   1.000  C
  C34      1.0000 0.94230  0.21480  0.80200  Biso   1.000  C
  C35      1.0000 0.98830  0.26600  0.87140  Biso   1.000  C
  C36      1.0000 0.99630  0.36080  0.89190  Biso   1.000  C
  C37      1.0000 0.04480  0.41640  0.96920  Biso   1.000  C
  C38      1.0000 0.95290  0.40140  0.84100  Biso   1.000  C
  C39      1.0000 0.95980  0.98080  0.71530  Biso   1.000  C
  C40      1.0000 0.96290  0.92740  0.64610  Biso   1.000  C
  C41      1.0000 0.97700  0.83720  0.63400  Biso   1.000  C
  C42      1.0000 0.98040  0.79980  0.69090  Biso   1.000  C
  C43      1.0000 0.99810  0.70120  0.67580  Biso   1.000  C
  C44      1.0000 0.97980  0.85500  0.76170  Biso   1.000  C
  C45      1.0000 0.96710  0.94600  0.77560  Biso   1.000  C
  C46      1.0000 0.49790  0.69740  0.66850  Biso   1.000  C
  C47      1.0000 0.47710  0.79320  0.70220  Biso   1.000  C
  C48      1.0000 0.46380  0.82700  0.77740  Biso   1.000  C
  C49      1.0000 0.45470  0.91640  0.80840  Biso   1.000  C
  C50      1.0000 0.45650  0.97580  0.76580  Biso   1.000  C
  C51      1.0000 0.47020  0.94380  0.69070  Biso   1.000  C
  C52      1.0000 0.48140  0.85300  0.65930  Biso   1.000  C
  C53      1.0000 0.43980  0.20840  0.79470  Biso   1.000  C
  C54      1.0000 0.50410  0.25520  0.86800  Biso   1.000  C
  C55      1.0000 0.51170  0.35040  0.89620  Biso   1.000  C
  C56      1.0000 0.60050  0.40000  0.96940  Biso   1.000  C
  C57      1.0000 0.45370  0.39680  0.85220  Biso   1.000  C
  C58      1.0000 0.39040  0.35160  0.78040  Biso   1.000  C
  C59      1.0000 0.33100  0.40280  0.73220  Biso   1.000  C
  C60      1.0000 0.38580  0.25820  0.75130  Biso   1.000  C
  N1       1.0000 0.17990  0.11940  0.28860  Biso   1.000  N
  N2       1.0000 0.12160  0.07620  0.22510  Biso   1.000  N
  N3       1.0000 0.62020  0.06780  0.30170  Biso   1.000  N
  N4       1.0000 0.68000  0.11560  0.26110  Biso   1.000  N
  N5       1.0000 0.93950  0.11940  0.78860  Biso   1.000  N
  N6       1.0000 0.95460  0.07620  0.72510  Biso   1.000  N
  N7       1.0000 0.44760  0.06780  0.80170  Biso   1.000  N
  N8       1.0000 0.43560  0.11560  0.76110  Biso   1.000  N
  O1       1.0000 0.60273  0.33826  0.15920  Biso   1.000  O
  O2       1.0000 0.60197  0.47834  0.23200  Biso   1.000  O
  O3       1.0000 0.45431  0.50122  0.48620  Biso   1.000  O
  O4       1.0000 0.30113  0.37686  0.51640  Biso   1.000  O
  O5       1.0000 0.64556  0.67532  0.23080  Biso   1.000  O
  O6       1.0000 0.67220  0.65240  0.11270  Biso   1.000  O
  O7       1.0000 0.11784  0.68128  0.10720  Biso   1.000  O
  O8       1.0000 0.18126  0.63892  0.20400  Biso   1.000  O
  O9       1.0000 0.69879  0.35418  0.50640  Biso   1.000  O
  O10      1.0000 0.86608  0.48636  0.49140  Biso   1.000  O
  O11      1.0000 0.16657  0.48394  0.26310  Biso   1.000  O
  O12      1.0000 0.06001  0.36402  0.16490  Biso   1.000  O
  O13      1.0000 0.87413  0.50966  0.13740  Biso   1.000  O
  O14      1.0000 0.78710  0.20520  0.04690  Biso   1.000  O
  O15      1.0000 0.88218  0.66276  0.97240  Biso   1.000  O
  O16      1.0000 0.37240  0.49800  0.11600  Biso   1.000  O
  O17      1.0000 0.43220  0.64400  0.34670  Biso   1.000  O
  O18      1.0000 0.73553  0.33826  0.65920  Biso   1.000  O
  O19      1.0000 0.87637  0.47834  0.73200  Biso   1.000  O
  O20      1.0000 0.04691  0.50122  0.98620  Biso   1.000  O
  O21      1.0000 0.07573  0.37686  0.01640  Biso   1.000  O
  O22      1.0000 0.02976  0.67532  0.73080  Biso   1.000  O
  O23      1.0000 0.98020  0.65240  0.61270  Biso   1.000  O
  O24      1.0000 0.56344  0.68128  0.60720  Biso   1.000  O
  O25      1.0000 0.45766  0.63892  0.70400  Biso   1.000  O
  O26      1.0000 0.65539  0.35418  0.00640  Biso   1.000  O
  O27      1.0000 0.62028  0.48636  0.99140  Biso   1.000  O
  O28      1.0000 0.31737  0.48394  0.76310  Biso   1.000  O
  O29      1.0000 0.30401  0.36402  0.66490  Biso   1.000  O
  O30      1.0000 0.63553  0.50966  0.63740  Biso   1.000  O
  O31      1.0000 0.41810  0.20520  0.54690  Biso   1.000  O
  O32      1.0000 0.78058  0.66276  0.47240  Biso   1.000  O
  O33      1.0000 0.12560  0.49800  0.61600  Biso   1.000  O
  O34      1.0000 0.21180  0.64400  0.84670  Biso   1.000  O
