data_image0
_cell_length_a       32.249
_cell_length_b       7.77
_cell_length_c       30.641
_cell_angle_alpha    90
_cell_angle_beta     116.03
_cell_angle_gamma    90

_symmetry_space_group_name_H-M    "P 1"
_symmetry_int_tables_number       1

loop_
  _symmetry_equiv_pos_as_xyz
  'x, y, z'

loop_
  _atom_site_label
  _atom_site_occupancy
  _atom_site_fract_x
  _atom_site_fract_y
  _atom_site_fract_z
  _atom_site_thermal_displace_type
  _atom_site_B_iso_or_equiv
  _atom_site_type_symbol
  Cu1      1.0000 0.24276  0.27341  0.37707  Biso   1.000  Cu
  Br1      1.0000 0.26295  0.96862  0.38720  Biso   1.000  Br
  N1       1.0000 0.27374  0.38540  0.44299  Biso   1.000  N
  C1       1.0000 0.29371  0.29650  0.48455  Biso   1.000  C
  H1       1.0000 0.29189  0.17444  0.48305  Biso   1.000  H
  C2       1.0000 0.31695  0.37390  0.52970  Biso   1.000  C
  H2       1.0000 0.33020  0.30622  0.55840  Biso   1.000  H
  C3       1.0000 0.32047  0.55220  0.53210  Biso   1.000  C
  C4       1.0000 0.30067  0.64490  0.48929  Biso   1.000  C
  H3       1.0000 0.30304  0.76684  0.48967  Biso   1.000  H
  C5       1.0000 0.27750  0.55830  0.44617  Biso   1.000  C
  H4       1.0000 0.26339  0.62365  0.41710  Biso   1.000  H
  C6       1.0000 0.34395  0.65110  0.57838  Biso   1.000  C
  O1       1.0000 0.36293  0.54690  0.61749  Biso   1.000  O
  O2       1.0000 0.34583  0.80450  0.58055  Biso   1.000  O
  C7       1.0000 0.38540  0.62920  0.66291  Biso   1.000  C
  C8       1.0000 0.35927  0.70400  0.68357  Biso   1.000  C
  H5       1.0000 0.32651  0.70602  0.66727  Biso   1.000  H
  C9       1.0000 0.38356  0.77630  0.72959  Biso   1.000  C
  C10      1.0000 0.43111  0.77170  0.75425  Biso   1.000  C
  H6       1.0000 0.44693  0.82071  0.78570  Biso   1.000  H
  C11      1.0000 0.45495  0.69310  0.73149  Biso   1.000  C
  C12      1.0000 0.43305  0.62080  0.68564  Biso   1.000  C
  H7       1.0000 0.44996  0.56798  0.67052  Biso   1.000  H
  O3       1.0000 0.36005  0.86920  0.75133  Biso   1.000  O
  C13      1.0000 0.33299  0.77980  0.76699  Biso   1.000  C
  O4       1.0000 0.32695  0.62770  0.76244  Biso   1.000  O
  C14      1.0000 0.31127  0.89680  0.78981  Biso   1.000  C
  C15      1.0000 0.27944  0.82590  0.80392  Biso   1.000  C
  H8       1.0000 0.27178  0.70717  0.79910  Biso   1.000  H
  C16      1.0000 0.25919  0.93320  0.82521  Biso   1.000  C
  H9       1.0000 0.23711  0.88483  0.83436  Biso   1.000  H
  N2       1.0000 0.26891  0.10130  0.83365  Biso   1.000  N
  C17      1.0000 0.29947  0.16810  0.81961  Biso   1.000  C
  H10      1.0000 0.30658  0.28716  0.82498  Biso   1.000  H
  C18      1.0000 0.32127  0.07120  0.79753  Biso   1.000  C
  H11      1.0000 0.34261  0.12334  0.78792  Biso   1.000  H
  O5       1.0000 0.50296  0.68210  0.75847  Biso   1.000  O
  C19      1.0000 0.52973  0.75310  0.73937  Biso   1.000  C
  O6       1.0000 0.51531  0.82530  0.70141  Biso   1.000  O
  C20      1.0000 0.57977  0.73080  0.77347  Biso   1.000  C
  C21      1.0000 0.59466  0.63820  0.81633  Biso   1.000  C
  H12      1.0000 0.57318  0.58167  0.82492  Biso   1.000  H
  C22      1.0000 0.64182  0.62990  0.84653  Biso   1.000  C
  H13      1.0000 0.65209  0.56461  0.87562  Biso   1.000  H
  N3       1.0000 0.67360  0.71050  0.83629  Biso   1.000  N
  C23      1.0000 0.65845  0.80030  0.79464  Biso   1.000  C
  H14      1.0000 0.68055  0.85784  0.78719  Biso   1.000  H
  C24      1.0000 0.61223  0.81330  0.76199  Biso   1.000  C
  H15      1.0000 0.60290  0.87648  0.73265  Biso   1.000  H
  Cu2      1.0000 0.74214  0.72015  0.88170  Biso   1.000  Cu
  Br2      1.0000 0.76259  0.02415  0.89332  Biso   1.000  Br
  N4       1.0000 0.76526  0.60780  0.94804  Biso   1.000  N
  C25      1.0000 0.76102  0.43690  0.95153  Biso   1.000  C
  H16      1.0000 0.74220  0.37473  0.92293  Biso   1.000  H
  C26      1.0000 0.78253  0.34750  0.99434  Biso   1.000  C
  H17      1.0000 0.77925  0.22617  0.99493  Biso   1.000  H
  C27      1.0000 0.80908  0.43660  0.03669  Biso   1.000  C
  C28      1.0000 0.81330  0.61350  0.03390  Biso   1.000  C
  H18      1.0000 0.83118  0.67864  0.06221  Biso   1.000  H
  C29      1.0000 0.79098  0.69360  0.98904  Biso   1.000  C
  H19      1.0000 0.79406  0.81470  0.98733  Biso   1.000  H
  C30      1.0000 0.83144  0.33570  0.08239  Biso   1.000  C
  O7       1.0000 0.86066  0.43440  0.12015  Biso   1.000  O
  O8       1.0000 0.82546  0.18470  0.08543  Biso   1.000  O
  C31      1.0000 0.88393  0.35290  0.16510  Biso   1.000  C
  C32      1.0000 0.85934  0.27890  0.18788  Biso   1.000  C
  H20      1.0000 0.82656  0.27724  0.17304  Biso   1.000  H
  C33      1.0000 0.88522  0.20720  0.23363  Biso   1.000  C
  C34      1.0000 0.93299  0.21090  0.25660  Biso   1.000  C
  H21      1.0000 0.94983  0.16256  0.28799  Biso   1.000  H
  C35      1.0000 0.95521  0.28790  0.23194  Biso   1.000  C
  C36      1.0000 0.93181  0.36040  0.18593  Biso   1.000  C
  H22      1.0000 0.94778  0.41224  0.16963  Biso   1.000  H
  O9       1.0000 0.86276  0.11700  0.25698  Biso   1.000  O
  C37      1.0000 0.84046  0.21060  0.27727  Biso   1.000  C
  O10      1.0000 0.83845  0.36450  0.27604  Biso   1.000  O
  C38      1.0000 0.81876  0.09800  0.30119  Biso   1.000  C
  C39      1.0000 0.79154  0.17730  0.31998  Biso   1.000  C
  H23      1.0000 0.78752  0.29863  0.31823  Biso   1.000  H
  C40      1.0000 0.77039  0.07500  0.34136  Biso   1.000  C
  H24      1.0000 0.75150  0.12969  0.35385  Biso   1.000  H
  N5       1.0000 0.77493  0.90410  0.34547  Biso   1.000  N
  C41      1.0000 0.80065  0.82910  0.32666  Biso   1.000  C
  H25      1.0000 0.80377  0.70740  0.32861  Biso   1.000  H
  C42      1.0000 0.82324  0.92120  0.30419  Biso   1.000  C
  H26      1.0000 0.84131  0.86324  0.29125  Biso   1.000  H
  O11      1.0000 0.00331  0.30150  0.25708  Biso   1.000  O
  C43      1.0000 0.02953  0.22660  0.23770  Biso   1.000  C
  O12      1.0000 0.01465  0.15100  0.20024  Biso   1.000  O
  C44      1.0000 0.07972  0.25100  0.27130  Biso   1.000  C
  C45      1.0000 0.11206  0.17280  0.25911  Biso   1.000  C
  H27      1.0000 0.10261  0.11065  0.22959  Biso   1.000  H
  C46      1.0000 0.15849  0.18790  0.29119  Biso   1.000  C
  H28      1.0000 0.18059  0.13301  0.28321  Biso   1.000  H
  N6       1.0000 0.17364  0.27700  0.33313  Biso   1.000  N
  C47      1.0000 0.14181  0.35320  0.34401  Biso   1.000  C
  H29      1.0000 0.15209  0.41779  0.37322  Biso   1.000  H
  C48      1.0000 0.09472  0.34180  0.31454  Biso   1.000  C
  H30      1.0000 0.07324  0.39495  0.32377  Biso   1.000  H
  Cu3      1.0000 0.24276  0.22659  0.87707  Biso   1.000  Cu
  Br3      1.0000 0.26295  0.53138  0.88720  Biso   1.000  Br
  N7       1.0000 0.27374  0.11460  0.94299  Biso   1.000  N
  C49      1.0000 0.29371  0.20350  0.98455  Biso   1.000  C
  H31      1.0000 0.29189  0.32556  0.98305  Biso   1.000  H
  C50      1.0000 0.31695  0.12610  0.02970  Biso   1.000  C
  H32      1.0000 0.33020  0.19378  0.05840  Biso   1.000  H
  C51      1.0000 0.32047  0.94780  0.03210  Biso   1.000  C
  C52      1.0000 0.30067  0.85510  0.98929  Biso   1.000  C
  H33      1.0000 0.30304  0.73316  0.98967  Biso   1.000  H
  C53      1.0000 0.27750  0.94170  0.94617  Biso   1.000  C
  H34      1.0000 0.26339  0.87635  0.91710  Biso   1.000  H
  C54      1.0000 0.34395  0.84890  0.07838  Biso   1.000  C
  O13      1.0000 0.36293  0.95310  0.11749  Biso   1.000  O
  O14      1.0000 0.34583  0.69550  0.08055  Biso   1.000  O
  C55      1.0000 0.38540  0.87080  0.16291  Biso   1.000  C
  C56      1.0000 0.35927  0.79600  0.18357  Biso   1.000  C
  H35      1.0000 0.32651  0.79398  0.16727  Biso   1.000  H
  C57      1.0000 0.38356  0.72370  0.22959  Biso   1.000  C
  C58      1.0000 0.43111  0.72830  0.25425  Biso   1.000  C
  H36      1.0000 0.44693  0.67929  0.28570  Biso   1.000  H
  C59      1.0000 0.45495  0.80690  0.23149  Biso   1.000  C
  C60      1.0000 0.43305  0.87920  0.18564  Biso   1.000  C
  H37      1.0000 0.44996  0.93202  0.17052  Biso   1.000  H
  O15      1.0000 0.36005  0.63080  0.25133  Biso   1.000  O
  C61      1.0000 0.33299  0.72020  0.26699  Biso   1.000  C
  O16      1.0000 0.32695  0.87230  0.26244  Biso   1.000  O
  C62      1.0000 0.31127  0.60320  0.28981  Biso   1.000  C
  C63      1.0000 0.27944  0.67410  0.30392  Biso   1.000  C
  H38      1.0000 0.27178  0.79283  0.29910  Biso   1.000  H
  C64      1.0000 0.25919  0.56680  0.32521  Biso   1.000  C
  H39      1.0000 0.23711  0.61517  0.33436  Biso   1.000  H
  N8       1.0000 0.26891  0.39870  0.33365  Biso   1.000  N
  C65      1.0000 0.29947  0.33190  0.31961  Biso   1.000  C
  H40      1.0000 0.30658  0.21284  0.32498  Biso   1.000  H
  C66      1.0000 0.32127  0.42880  0.29753  Biso   1.000  C
  H41      1.0000 0.34261  0.37666  0.28792  Biso   1.000  H
  O17      1.0000 0.50296  0.81790  0.25847  Biso   1.000  O
  C67      1.0000 0.52973  0.74690  0.23937  Biso   1.000  C
  O18      1.0000 0.51531  0.67470  0.20141  Biso   1.000  O
  C68      1.0000 0.57977  0.76920  0.27347  Biso   1.000  C
  C69      1.0000 0.59466  0.86180  0.31633  Biso   1.000  C
  H42      1.0000 0.57318  0.91833  0.32492  Biso   1.000  H
  C70      1.0000 0.64182  0.87010  0.34653  Biso   1.000  C
  H43      1.0000 0.65209  0.93539  0.37562  Biso   1.000  H
  N9       1.0000 0.67360  0.78950  0.33629  Biso   1.000  N
  C71      1.0000 0.65845  0.69970  0.29464  Biso   1.000  C
  H44      1.0000 0.68055  0.64216  0.28719  Biso   1.000  H
  C72      1.0000 0.61223  0.68670  0.26199  Biso   1.000  C
  H45      1.0000 0.60290  0.62352  0.23265  Biso   1.000  H
  Cu4      1.0000 0.74214  0.77985  0.38170  Biso   1.000  Cu
  Br4      1.0000 0.76259  0.47585  0.39332  Biso   1.000  Br
  N10      1.0000 0.76526  0.89220  0.44804  Biso   1.000  N
  C73      1.0000 0.76102  0.06310  0.45153  Biso   1.000  C
  H46      1.0000 0.74220  0.12527  0.42293  Biso   1.000  H
  C74      1.0000 0.78253  0.15250  0.49434  Biso   1.000  C
  H47      1.0000 0.77925  0.27383  0.49493  Biso   1.000  H
  C75      1.0000 0.80908  0.06340  0.53669  Biso   1.000  C
  C76      1.0000 0.81330  0.88650  0.53390  Biso   1.000  C
  H48      1.0000 0.83118  0.82136  0.56221  Biso   1.000  H
  C77      1.0000 0.79098  0.80640  0.48904  Biso   1.000  C
  H49      1.0000 0.79406  0.68530  0.48733  Biso   1.000  H
  C78      1.0000 0.83144  0.16430  0.58239  Biso   1.000  C
  O19      1.0000 0.86066  0.06560  0.62015  Biso   1.000  O
  O20      1.0000 0.82546  0.31530  0.58543  Biso   1.000  O
  C79      1.0000 0.88393  0.14710  0.66510  Biso   1.000  C
  C80      1.0000 0.85934  0.22110  0.68788  Biso   1.000  C
  H50      1.0000 0.82656  0.22276  0.67304  Biso   1.000  H
  C81      1.0000 0.88522  0.29280  0.73363  Biso   1.000  C
  C82      1.0000 0.93299  0.28910  0.75660  Biso   1.000  C
  H51      1.0000 0.94983  0.33744  0.78799  Biso   1.000  H
  C83      1.0000 0.95521  0.21210  0.73194  Biso   1.000  C
  C84      1.0000 0.93181  0.13960  0.68593  Biso   1.000  C
  H52      1.0000 0.94778  0.08776  0.66963  Biso   1.000  H
  O21      1.0000 0.86276  0.38300  0.75698  Biso   1.000  O
  C85      1.0000 0.84046  0.28940  0.77727  Biso   1.000  C
  O22      1.0000 0.83845  0.13550  0.77604  Biso   1.000  O
  C86      1.0000 0.81876  0.40200  0.80119  Biso   1.000  C
  C87      1.0000 0.79154  0.32270  0.81998  Biso   1.000  C
  H53      1.0000 0.78752  0.20137  0.81823  Biso   1.000  H
  C88      1.0000 0.77039  0.42500  0.84136  Biso   1.000  C
  H54      1.0000 0.75150  0.37031  0.85385  Biso   1.000  H
  N11      1.0000 0.77493  0.59590  0.84547  Biso   1.000  N
  C89      1.0000 0.80065  0.67090  0.82666  Biso   1.000  C
  H55      1.0000 0.80377  0.79260  0.82861  Biso   1.000  H
  C90      1.0000 0.82324  0.57880  0.80419  Biso   1.000  C
  H56      1.0000 0.84131  0.63676  0.79125  Biso   1.000  H
  O23      1.0000 0.00331  0.19850  0.75708  Biso   1.000  O
  C91      1.0000 0.02953  0.27340  0.73770  Biso   1.000  C
  O24      1.0000 0.01465  0.34900  0.70024  Biso   1.000  O
  C92      1.0000 0.07972  0.24900  0.77130  Biso   1.000  C
  C93      1.0000 0.11206  0.32720  0.75911  Biso   1.000  C
  H57      1.0000 0.10261  0.38935  0.72959  Biso   1.000  H
  C94      1.0000 0.15849  0.31210  0.79119  Biso   1.000  C
  H58      1.0000 0.18059  0.36699  0.78321  Biso   1.000  H
  N12      1.0000 0.17364  0.22300  0.83313  Biso   1.000  N
  C95      1.0000 0.14181  0.14680  0.84401  Biso   1.000  C
  H59      1.0000 0.15209  0.08221  0.87322  Biso   1.000  H
  C96      1.0000 0.09472  0.15820  0.81454  Biso   1.000  C
  H60      1.0000 0.07324  0.10505  0.82377  Biso   1.000  H
  Cu5      1.0000 0.75724  0.77341  0.12293  Biso   1.000  Cu
  Br5      1.0000 0.73705  0.46862  0.11280  Biso   1.000  Br
  N13      1.0000 0.72626  0.88540  0.05701  Biso   1.000  N
  C97      1.0000 0.70629  0.79650  0.01545  Biso   1.000  C
  H61      1.0000 0.70811  0.67444  0.01695  Biso   1.000  H
  C98      1.0000 0.68305  0.87390  0.97030  Biso   1.000  C
  H62      1.0000 0.66980  0.80622  0.94160  Biso   1.000  H
  C99      1.0000 0.67953  0.05220  0.96790  Biso   1.000  C
  C100     1.0000 0.69933  0.14490  0.01071  Biso   1.000  C
  H63      1.0000 0.69696  0.26684  0.01033  Biso   1.000  H
  C101     1.0000 0.72250  0.05830  0.05383  Biso   1.000  C
  H64      1.0000 0.73661  0.12365  0.08290  Biso   1.000  H
  C102     1.0000 0.65605  0.15110  0.92162  Biso   1.000  C
  O25      1.0000 0.63707  0.04690  0.88251  Biso   1.000  O
  O26      1.0000 0.65417  0.30450  0.91945  Biso   1.000  O
  C103     1.0000 0.61460  0.12920  0.83709  Biso   1.000  C
  C104     1.0000 0.64073  0.20400  0.81643  Biso   1.000  C
  H65      1.0000 0.67349  0.20602  0.83273  Biso   1.000  H
  C105     1.0000 0.61644  0.27630  0.77041  Biso   1.000  C
  C106     1.0000 0.56889  0.27170  0.74575  Biso   1.000  C
  H66      1.0000 0.55307  0.32071  0.71430  Biso   1.000  H
  C107     1.0000 0.54505  0.19310  0.76851  Biso   1.000  C
  C108     1.0000 0.56695  0.12080  0.81436  Biso   1.000  C
  H67      1.0000 0.55004  0.06798  0.82948  Biso   1.000  H
  O27      1.0000 0.63995  0.36920  0.74867  Biso   1.000  O
  C109     1.0000 0.66701  0.27980  0.73301  Biso   1.000  C
  O28      1.0000 0.67305  0.12770  0.73756  Biso   1.000  O
  C110     1.0000 0.68873  0.39680  0.71019  Biso   1.000  C
  C111     1.0000 0.72056  0.32590  0.69608  Biso   1.000  C
  H68      1.0000 0.72822  0.20717  0.70090  Biso   1.000  H
  C112     1.0000 0.74081  0.43320  0.67479  Biso   1.000  C
  H69      1.0000 0.76289  0.38483  0.66564  Biso   1.000  H
  N14      1.0000 0.73109  0.60130  0.66635  Biso   1.000  N
  C113     1.0000 0.70053  0.66810  0.68039  Biso   1.000  C
  H70      1.0000 0.69342  0.78716  0.67502  Biso   1.000  H
  C114     1.0000 0.67873  0.57120  0.70247  Biso   1.000  C
  H71      1.0000 0.65739  0.62334  0.71208  Biso   1.000  H
  O29      1.0000 0.49704  0.18210  0.74153  Biso   1.000  O
  C115     1.0000 0.47027  0.25310  0.76063  Biso   1.000  C
  O30      1.0000 0.48469  0.32530  0.79859  Biso   1.000  O
  C116     1.0000 0.42023  0.23080  0.72653  Biso   1.000  C
  C117     1.0000 0.40534  0.13820  0.68367  Biso   1.000  C
  H72      1.0000 0.42682  0.08167  0.67508  Biso   1.000  H
  C118     1.0000 0.35818  0.12990  0.65347  Biso   1.000  C
  H73      1.0000 0.34791  0.06461  0.62438  Biso   1.000  H
  N15      1.0000 0.32640  0.21050  0.66371  Biso   1.000  N
  C119     1.0000 0.34155  0.30030  0.70536  Biso   1.000  C
  H74      1.0000 0.31945  0.35784  0.71281  Biso   1.000  H
  C120     1.0000 0.38777  0.31330  0.73801  Biso   1.000  C
  H75      1.0000 0.39710  0.37648  0.76735  Biso   1.000  H
  Cu6      1.0000 0.25786  0.22015  0.61830  Biso   1.000  Cu
  Br6      1.0000 0.23741  0.52415  0.60668  Biso   1.000  Br
  N16      1.0000 0.23474  0.10780  0.55196  Biso   1.000  N
  C121     1.0000 0.23898  0.93690  0.54847  Biso   1.000  C
  H76      1.0000 0.25780  0.87473  0.57707  Biso   1.000  H
  C122     1.0000 0.21747  0.84750  0.50566  Biso   1.000  C
  H77      1.0000 0.22075  0.72617  0.50507  Biso   1.000  H
  C123     1.0000 0.19092  0.93660  0.46331  Biso   1.000  C
  C124     1.0000 0.18670  0.11350  0.46610  Biso   1.000  C
  H78      1.0000 0.16882  0.17864  0.43779  Biso   1.000  H
  C125     1.0000 0.20902  0.19360  0.51096  Biso   1.000  C
  H79      1.0000 0.20594  0.31470  0.51267  Biso   1.000  H
  C126     1.0000 0.16856  0.83570  0.41761  Biso   1.000  C
  O31      1.0000 0.13934  0.93440  0.37985  Biso   1.000  O
  O32      1.0000 0.17454  0.68470  0.41457  Biso   1.000  O
  C127     1.0000 0.11607  0.85290  0.33490  Biso   1.000  C
  C128     1.0000 0.14066  0.77890  0.31212  Biso   1.000  C
  H80      1.0000 0.17344  0.77724  0.32696  Biso   1.000  H
  C129     1.0000 0.11478  0.70720  0.26637  Biso   1.000  C
  C130     1.0000 0.06701  0.71090  0.24340  Biso   1.000  C
  H81      1.0000 0.05017  0.66256  0.21201  Biso   1.000  H
  C131     1.0000 0.04479  0.78790  0.26806  Biso   1.000  C
  C132     1.0000 0.06819  0.86040  0.31407  Biso   1.000  C
  H82      1.0000 0.05222  0.91224  0.33037  Biso   1.000  H
  O33      1.0000 0.13724  0.61700  0.24302  Biso   1.000  O
  C133     1.0000 0.15954  0.71060  0.22273  Biso   1.000  C
  O34      1.0000 0.16155  0.86450  0.22396  Biso   1.000  O
  C134     1.0000 0.18124  0.59800  0.19881  Biso   1.000  C
  C135     1.0000 0.20846  0.67730  0.18002  Biso   1.000  C
  H83      1.0000 0.21248  0.79863  0.18177  Biso   1.000  H
  C136     1.0000 0.22961  0.57500  0.15864  Biso   1.000  C
  H84      1.0000 0.24850  0.62969  0.14615  Biso   1.000  H
  N17      1.0000 0.22507  0.40410  0.15453  Biso   1.000  N
  C137     1.0000 0.19935  0.32910  0.17334  Biso   1.000  C
  H85      1.0000 0.19623  0.20740  0.17139  Biso   1.000  H
  C138     1.0000 0.17676  0.42120  0.19581  Biso   1.000  C
  H86      1.0000 0.15869  0.36324  0.20875  Biso   1.000  H
  O35      1.0000 0.99669  0.80150  0.24292  Biso   1.000  O
  C139     1.0000 0.97047  0.72660  0.26230  Biso   1.000  C
  O36      1.0000 0.98535  0.65100  0.29976  Biso   1.000  O
  C140     1.0000 0.92028  0.75100  0.22870  Biso   1.000  C
  C141     1.0000 0.88794  0.67280  0.24089  Biso   1.000  C
  H87      1.0000 0.89739  0.61065  0.27041  Biso   1.000  H
  C142     1.0000 0.84151  0.68790  0.20881  Biso   1.000  C
  H88      1.0000 0.81941  0.63301  0.21679  Biso   1.000  H
  N18      1.0000 0.82636  0.77700  0.16687  Biso   1.000  N
  C143     1.0000 0.85819  0.85320  0.15599  Biso   1.000  C
  H89      1.0000 0.84791  0.91779  0.12678  Biso   1.000  H
  C144     1.0000 0.90528  0.84180  0.18546  Biso   1.000  C
  H90      1.0000 0.92676  0.89495  0.17623  Biso   1.000  H
  Cu7      1.0000 0.75724  0.72659  0.62293  Biso   1.000  Cu
  Br7      1.0000 0.73705  0.03138  0.61280  Biso   1.000  Br
  N19      1.0000 0.72626  0.61460  0.55701  Biso   1.000  N
  C145     1.0000 0.70629  0.70350  0.51545  Biso   1.000  C
  H91      1.0000 0.70811  0.82556  0.51695  Biso   1.000  H
  C146     1.0000 0.68305  0.62610  0.47030  Biso   1.000  C
  H92      1.0000 0.66980  0.69378  0.44160  Biso   1.000  H
  C147     1.0000 0.67953  0.44780  0.46790  Biso   1.000  C
  C148     1.0000 0.69933  0.35510  0.51071  Biso   1.000  C
  H93      1.0000 0.69696  0.23316  0.51033  Biso   1.000  H
  C149     1.0000 0.72250  0.44170  0.55383  Biso   1.000  C
  H94      1.0000 0.73661  0.37635  0.58290  Biso   1.000  H
  C150     1.0000 0.65605  0.34890  0.42162  Biso   1.000  C
  O37      1.0000 0.63707  0.45310  0.38251  Biso   1.000  O
  O38      1.0000 0.65417  0.19550  0.41945  Biso   1.000  O
  C151     1.0000 0.61460  0.37080  0.33709  Biso   1.000  C
  C152     1.0000 0.64073  0.29600  0.31643  Biso   1.000  C
  H95      1.0000 0.67349  0.29398  0.33273  Biso   1.000  H
  C153     1.0000 0.61644  0.22370  0.27041  Biso   1.000  C
  C154     1.0000 0.56889  0.22830  0.24575  Biso   1.000  C
  H96      1.0000 0.55307  0.17929  0.21430  Biso   1.000  H
  C155     1.0000 0.54505  0.30690  0.26851  Biso   1.000  C
  C156     1.0000 0.56695  0.37920  0.31436  Biso   1.000  C
  H97      1.0000 0.55004  0.43202  0.32948  Biso   1.000  H
  O39      1.0000 0.63995  0.13080  0.24867  Biso   1.000  O
  C157     1.0000 0.66701  0.22020  0.23301  Biso   1.000  C
  O40      1.0000 0.67305  0.37230  0.23756  Biso   1.000  O
  C158     1.0000 0.68873  0.10320  0.21019  Biso   1.000  C
  C159     1.0000 0.72056  0.17410  0.19608  Biso   1.000  C
  H98      1.0000 0.72822  0.29283  0.20090  Biso   1.000  H
  C160     1.0000 0.74081  0.06680  0.17479  Biso   1.000  C
  H99      1.0000 0.76289  0.11517  0.16564  Biso   1.000  H
  N20      1.0000 0.73109  0.89870  0.16635  Biso   1.000  N
  C161     1.0000 0.70053  0.83190  0.18039  Biso   1.000  C
  H100     1.0000 0.69342  0.71284  0.17502  Biso   1.000  H
  C162     1.0000 0.67873  0.92880  0.20247  Biso   1.000  C
  H101     1.0000 0.65739  0.87666  0.21208  Biso   1.000  H
  O41      1.0000 0.49704  0.31790  0.24153  Biso   1.000  O
  C163     1.0000 0.47027  0.24690  0.26063  Biso   1.000  C
  O42      1.0000 0.48469  0.17470  0.29859  Biso   1.000  O
  C164     1.0000 0.42023  0.26920  0.22653  Biso   1.000  C
  C165     1.0000 0.40534  0.36180  0.18367  Biso   1.000  C
  H102     1.0000 0.42682  0.41833  0.17508  Biso   1.000  H
  C166     1.0000 0.35818  0.37010  0.15347  Biso   1.000  C
  H103     1.0000 0.34791  0.43539  0.12438  Biso   1.000  H
  N21      1.0000 0.32640  0.28950  0.16371  Biso   1.000  N
  C167     1.0000 0.34155  0.19970  0.20536  Biso   1.000  C
  H104     1.0000 0.31945  0.14216  0.21281  Biso   1.000  H
  C168     1.0000 0.38777  0.18670  0.23801  Biso   1.000  C
  H105     1.0000 0.39710  0.12352  0.26735  Biso   1.000  H
  Cu8      1.0000 0.25786  0.27985  0.11830  Biso   1.000  Cu
  Br8      1.0000 0.23741  0.97585  0.10668  Biso   1.000  Br
  N22      1.0000 0.23474  0.39220  0.05196  Biso   1.000  N
  C169     1.0000 0.23898  0.56310  0.04847  Biso   1.000  C
  H106     1.0000 0.25780  0.62527  0.07707  Biso   1.000  H
  C170     1.0000 0.21747  0.65250  0.00566  Biso   1.000  C
  H107     1.0000 0.22075  0.77383  0.00507  Biso   1.000  H
  C171     1.0000 0.19092  0.56340  0.96331  Biso   1.000  C
  C172     1.0000 0.18670  0.38650  0.96610  Biso   1.000  C
  H108     1.0000 0.16882  0.32136  0.93779  Biso   1.000  H
  C173     1.0000 0.20902  0.30640  0.01096  Biso   1.000  C
  H109     1.0000 0.20594  0.18530  0.01267  Biso   1.000  H
  C174     1.0000 0.16856  0.66430  0.91761  Biso   1.000  C
  O43      1.0000 0.13934  0.56560  0.87985  Biso   1.000  O
  O44      1.0000 0.17454  0.81530  0.91457  Biso   1.000  O
  C175     1.0000 0.11607  0.64710  0.83490  Biso   1.000  C
  C176     1.0000 0.14066  0.72110  0.81212  Biso   1.000  C
  H110     1.0000 0.17344  0.72276  0.82696  Biso   1.000  H
  C177     1.0000 0.11478  0.79280  0.76637  Biso   1.000  C
  C178     1.0000 0.06701  0.78910  0.74340  Biso   1.000  C
  H111     1.0000 0.05017  0.83744  0.71201  Biso   1.000  H
  C179     1.0000 0.04479  0.71210  0.76806  Biso   1.000  C
  C180     1.0000 0.06819  0.63960  0.81407  Biso   1.000  C
  H112     1.0000 0.05222  0.58776  0.83037  Biso   1.000  H
  O45      1.0000 0.13724  0.88300  0.74302  Biso   1.000  O
  C181     1.0000 0.15954  0.78940  0.72273  Biso   1.000  C
  O46      1.0000 0.16155  0.63550  0.72396  Biso   1.000  O
  C182     1.0000 0.18124  0.90200  0.69881  Biso   1.000  C
  C183     1.0000 0.20846  0.82270  0.68002  Biso   1.000  C
  H113     1.0000 0.21248  0.70137  0.68177  Biso   1.000  H
  C184     1.0000 0.22961  0.92500  0.65864  Biso   1.000  C
  H114     1.0000 0.24850  0.87031  0.64615  Biso   1.000  H
  N23      1.0000 0.22507  0.09590  0.65453  Biso   1.000  N
  C185     1.0000 0.19935  0.17090  0.67334  Biso   1.000  C
  H115     1.0000 0.19623  0.29260  0.67139  Biso   1.000  H
  C186     1.0000 0.17676  0.07880  0.69581  Biso   1.000  C
  H116     1.0000 0.15869  0.13676  0.70875  Biso   1.000  H
  O47      1.0000 0.99669  0.69850  0.74292  Biso   1.000  O
  C187     1.0000 0.97047  0.77340  0.76230  Biso   1.000  C
  O48      1.0000 0.98535  0.84900  0.79976  Biso   1.000  O
  C188     1.0000 0.92028  0.74900  0.72870  Biso   1.000  C
  C189     1.0000 0.88794  0.82720  0.74089  Biso   1.000  C
  H117     1.0000 0.89739  0.88935  0.77041  Biso   1.000  H
  C190     1.0000 0.84151  0.81210  0.70881  Biso   1.000  C
  H118     1.0000 0.81941  0.86699  0.71679  Biso   1.000  H
  N24      1.0000 0.82636  0.72300  0.66687  Biso   1.000  N
  C191     1.0000 0.85819  0.64680  0.65599  Biso   1.000  C
  H119     1.0000 0.84791  0.58221  0.62678  Biso   1.000  H
  C192     1.0000 0.90528  0.65820  0.68546  Biso   1.000  C
  H120     1.0000 0.92676  0.60505  0.67623  Biso   1.000  H
