data_image0
_cell_length_a       7.7165
_cell_length_b       21.746
_cell_length_c       21.746
_cell_angle_alpha    120
_cell_angle_beta     90
_cell_angle_gamma    90

_symmetry_space_group_name_H-M    P 1
_symmetry_int_tables_number       1

loop_
  _symmetry_equiv_pos_as_xyz
  'x, y, z'

loop_
  _atom_site_label
  _atom_site_occupancy
  _atom_site_fract_x
  _atom_site_fract_y
  _atom_site_fract_z
  _atom_site_thermal_displace_type
  _atom_site_B_iso_or_equiv
  _atom_site_type_symbol
  Zn1      1.0000 0.00000  0.50000  0.50000  Biso   1.000  Zn
  Zn2      1.0000 0.00000  0.00000  0.50000  Biso   1.000  Zn
  Zn3      1.0000 0.00000  0.50000  0.00000  Biso   1.000  Zn
  H1       1.0000 0.43770  0.34520  0.38210  Biso   1.000  H
  H2       1.0000 0.32050  0.31980  0.31280  Biso   1.000  H
  H3       1.0000 0.32690  0.27360  0.35140  Biso   1.000  H
  H4       1.0000 0.08580  0.27750  0.40670  Biso   1.000  H
  H5       1.0000 0.91990  0.21130  0.41560  Biso   1.000  H
  H6       1.0000 0.71590  0.13970  0.42570  Biso   1.000  H
  H7       1.0000 0.42090  0.30870  0.54610  Biso   1.000  H
  H8       1.0000 0.61860  0.38000  0.53040  Biso   1.000  H
  H9       1.0000 0.58350  0.09180  0.48080  Biso   1.000  H
  H10      1.0000 0.37890  0.01770  0.48340  Biso   1.000  H
  H11      1.0000 0.00950  0.15230  0.51580  Biso   1.000  H
  H12      1.0000 0.20410  0.23190  0.51590  Biso   1.000  H
  H13      1.0000 0.43770  0.03690  0.65480  Biso   1.000  H
  H14      1.0000 0.32050  0.99300  0.68020  Biso   1.000  H
  H15      1.0000 0.32690  0.07780  0.72640  Biso   1.000  H
  H16      1.0000 0.08580  0.12920  0.72250  Biso   1.000  H
  H17      1.0000 0.91990  0.20430  0.78870  Biso   1.000  H
  H18      1.0000 0.71590  0.28600  0.86030  Biso   1.000  H
  H19      1.0000 0.42090  0.23740  0.69130  Biso   1.000  H
  H20      1.0000 0.61860  0.15040  0.62000  Biso   1.000  H
  H21      1.0000 0.58350  0.38900  0.90820  Biso   1.000  H
  H22      1.0000 0.37890  0.46570  0.98230  Biso   1.000  H
  H23      1.0000 0.00950  0.36350  0.84770  Biso   1.000  H
  H24      1.0000 0.20410  0.28400  0.76810  Biso   1.000  H
  H25      1.0000 0.43770  0.61790  0.96310  Biso   1.000  H
  H26      1.0000 0.32050  0.68720  0.00700  Biso   1.000  H
  H27      1.0000 0.32690  0.64860  0.92220  Biso   1.000  H
  H28      1.0000 0.08580  0.59330  0.87080  Biso   1.000  H
  H29      1.0000 0.91990  0.58440  0.79570  Biso   1.000  H
  H30      1.0000 0.71590  0.57430  0.71400  Biso   1.000  H
  H31      1.0000 0.42090  0.45390  0.76260  Biso   1.000  H
  H32      1.0000 0.61860  0.46960  0.84960  Biso   1.000  H
  H33      1.0000 0.58350  0.51920  0.61100  Biso   1.000  H
  H34      1.0000 0.37890  0.51660  0.53430  Biso   1.000  H
  H35      1.0000 0.00950  0.48420  0.63650  Biso   1.000  H
  H36      1.0000 0.20410  0.48410  0.71600  Biso   1.000  H
  H37      1.0000 0.56230  0.65480  0.61790  Biso   1.000  H
  H38      1.0000 0.67950  0.68020  0.68720  Biso   1.000  H
  H39      1.0000 0.67310  0.72640  0.64860  Biso   1.000  H
  H40      1.0000 0.91420  0.72250  0.59330  Biso   1.000  H
  H41      1.0000 0.08010  0.78870  0.58440  Biso   1.000  H
  H42      1.0000 0.28410  0.86030  0.57430  Biso   1.000  H
  H43      1.0000 0.57910  0.69130  0.45390  Biso   1.000  H
  H44      1.0000 0.38140  0.62000  0.46960  Biso   1.000  H
  H45      1.0000 0.41650  0.90820  0.51920  Biso   1.000  H
  H46      1.0000 0.62110  0.98230  0.51660  Biso   1.000  H
  H47      1.0000 0.99050  0.84770  0.48420  Biso   1.000  H
  H48      1.0000 0.79590  0.76810  0.48410  Biso   1.000  H
  H49      1.0000 0.56230  0.96310  0.34520  Biso   1.000  H
  H50      1.0000 0.67950  0.00700  0.31980  Biso   1.000  H
  H51      1.0000 0.67310  0.92220  0.27360  Biso   1.000  H
  H52      1.0000 0.91420  0.87080  0.27750  Biso   1.000  H
  H53      1.0000 0.08010  0.79570  0.21130  Biso   1.000  H
  H54      1.0000 0.28410  0.71400  0.13970  Biso   1.000  H
  H55      1.0000 0.57910  0.76260  0.30870  Biso   1.000  H
  H56      1.0000 0.38140  0.84960  0.38000  Biso   1.000  H
  H57      1.0000 0.41650  0.61100  0.09180  Biso   1.000  H
  H58      1.0000 0.62110  0.53430  0.01770  Biso   1.000  H
  H59      1.0000 0.99050  0.63650  0.15230  Biso   1.000  H
  H60      1.0000 0.79590  0.71600  0.23190  Biso   1.000  H
  H61      1.0000 0.56230  0.38210  0.03690  Biso   1.000  H
  H62      1.0000 0.67950  0.31280  0.99300  Biso   1.000  H
  H63      1.0000 0.67310  0.35140  0.07780  Biso   1.000  H
  H64      1.0000 0.91420  0.40670  0.12920  Biso   1.000  H
  H65      1.0000 0.08010  0.41560  0.20430  Biso   1.000  H
  H66      1.0000 0.28410  0.42570  0.28600  Biso   1.000  H
  H67      1.0000 0.57910  0.54610  0.23740  Biso   1.000  H
  H68      1.0000 0.38140  0.53040  0.15040  Biso   1.000  H
  H69      1.0000 0.41650  0.48080  0.38900  Biso   1.000  H
  H70      1.0000 0.62110  0.48340  0.46570  Biso   1.000  H
  H71      1.0000 0.99050  0.51580  0.36350  Biso   1.000  H
  H72      1.0000 0.79590  0.51590  0.28400  Biso   1.000  H
  C1       1.0000 0.32900  0.32188  0.35877  Biso   1.000  C
  C2       1.0000 0.17764  0.36364  0.40504  Biso   1.000  C
  C3       1.0000 0.06061  0.32617  0.42360  Biso   1.000  C
  C4       1.0000 0.91076  0.35338  0.46445  Biso   1.000  C
  C5       1.0000 0.78746  0.30382  0.47091  Biso   1.000  C
  C6       1.0000 0.81579  0.23171  0.44113  Biso   1.000  C
  C7       1.0000 0.69512  0.18938  0.44798  Biso   1.000  C
  C8       1.0000 0.54643  0.21604  0.48566  Biso   1.000  C
  C9       1.0000 0.52100  0.28798  0.51776  Biso   1.000  C
  C10      1.0000 0.64050  0.33049  0.50898  Biso   1.000  C
  C11      1.0000 0.41842  0.16820  0.49173  Biso   1.000  C
  C12      1.0000 0.46498  0.10535  0.48633  Biso   1.000  C
  C13      1.0000 0.34189  0.06181  0.48889  Biso   1.000  C
  C14      1.0000 0.12845  0.13951  0.50786  Biso   1.000  C
  C15      1.0000 0.24300  0.18665  0.50667  Biso   1.000  C
  C16      1.0000 0.32900  0.03689  0.67812  Biso   1.000  C
  C17      1.0000 0.17764  0.04140  0.63636  Biso   1.000  C
  C18      1.0000 0.06061  0.09743  0.67383  Biso   1.000  C
  C19      1.0000 0.91076  0.11107  0.64662  Biso   1.000  C
  C20      1.0000 0.78746  0.16709  0.69618  Biso   1.000  C
  C21      1.0000 0.81579  0.20942  0.76829  Biso   1.000  C
  C22      1.0000 0.69512  0.25860  0.81062  Biso   1.000  C
  C23      1.0000 0.54643  0.26962  0.78396  Biso   1.000  C
  C24      1.0000 0.52100  0.22978  0.71202  Biso   1.000  C
  C25      1.0000 0.64050  0.17849  0.66951  Biso   1.000  C
  C26      1.0000 0.41842  0.32353  0.83180  Biso   1.000  C
  C27      1.0000 0.46498  0.38098  0.89465  Biso   1.000  C
  C28      1.0000 0.34189  0.42708  0.93819  Biso   1.000  C
  C29      1.0000 0.12845  0.36835  0.86049  Biso   1.000  C
  C30      1.0000 0.24300  0.32002  0.81335  Biso   1.000  C
  C31      1.0000 0.32900  0.64123  0.96311  Biso   1.000  C
  C32      1.0000 0.17764  0.59496  0.95860  Biso   1.000  C
  C33      1.0000 0.06061  0.57640  0.90257  Biso   1.000  C
  C34      1.0000 0.91076  0.53555  0.88893  Biso   1.000  C
  C35      1.0000 0.78746  0.52909  0.83291  Biso   1.000  C
  C36      1.0000 0.81579  0.55887  0.79058  Biso   1.000  C
  C37      1.0000 0.69512  0.55202  0.74140  Biso   1.000  C
  C38      1.0000 0.54643  0.51434  0.73038  Biso   1.000  C
  C39      1.0000 0.52100  0.48224  0.77022  Biso   1.000  C
  C40      1.0000 0.64050  0.49102  0.82151  Biso   1.000  C
  C41      1.0000 0.41842  0.50827  0.67647  Biso   1.000  C
  C42      1.0000 0.46498  0.51367  0.61902  Biso   1.000  C
  C43      1.0000 0.34189  0.51111  0.57292  Biso   1.000  C
  C44      1.0000 0.12845  0.49214  0.63165  Biso   1.000  C
  C45      1.0000 0.24300  0.49333  0.67998  Biso   1.000  C
  C46      1.0000 0.67100  0.67812  0.64123  Biso   1.000  C
  C47      1.0000 0.82236  0.63636  0.59496  Biso   1.000  C
  C48      1.0000 0.93939  0.67383  0.57640  Biso   1.000  C
  C49      1.0000 0.08924  0.64662  0.53555  Biso   1.000  C
  C50      1.0000 0.21254  0.69618  0.52909  Biso   1.000  C
  C51      1.0000 0.18421  0.76829  0.55887  Biso   1.000  C
  C52      1.0000 0.30488  0.81062  0.55202  Biso   1.000  C
  C53      1.0000 0.45357  0.78396  0.51434  Biso   1.000  C
  C54      1.0000 0.47900  0.71202  0.48224  Biso   1.000  C
  C55      1.0000 0.35950  0.66951  0.49102  Biso   1.000  C
  C56      1.0000 0.58158  0.83180  0.50827  Biso   1.000  C
  C57      1.0000 0.53502  0.89465  0.51367  Biso   1.000  C
  C58      1.0000 0.65811  0.93819  0.51111  Biso   1.000  C
  C59      1.0000 0.87155  0.86049  0.49214  Biso   1.000  C
  C60      1.0000 0.75700  0.81335  0.49333  Biso   1.000  C
  C61      1.0000 0.67100  0.96311  0.32188  Biso   1.000  C
  C62      1.0000 0.82236  0.95860  0.36364  Biso   1.000  C
  C63      1.0000 0.93939  0.90257  0.32617  Biso   1.000  C
  C64      1.0000 0.08924  0.88893  0.35338  Biso   1.000  C
  C65      1.0000 0.21254  0.83291  0.30382  Biso   1.000  C
  C66      1.0000 0.18421  0.79058  0.23171  Biso   1.000  C
  C67      1.0000 0.30488  0.74140  0.18938  Biso   1.000  C
  C68      1.0000 0.45357  0.73038  0.21604  Biso   1.000  C
  C69      1.0000 0.47900  0.77022  0.28798  Biso   1.000  C
  C70      1.0000 0.35950  0.82151  0.33049  Biso   1.000  C
  C71      1.0000 0.58158  0.67647  0.16820  Biso   1.000  C
  C72      1.0000 0.53502  0.61902  0.10535  Biso   1.000  C
  C73      1.0000 0.65811  0.57292  0.06181  Biso   1.000  C
  C74      1.0000 0.87155  0.63165  0.13951  Biso   1.000  C
  C75      1.0000 0.75700  0.67998  0.18665  Biso   1.000  C
  C76      1.0000 0.67100  0.35877  0.03689  Biso   1.000  C
  C77      1.0000 0.82236  0.40504  0.04140  Biso   1.000  C
  C78      1.0000 0.93939  0.42360  0.09743  Biso   1.000  C
  C79      1.0000 0.08924  0.46445  0.11107  Biso   1.000  C
  C80      1.0000 0.21254  0.47091  0.16709  Biso   1.000  C
  C81      1.0000 0.18421  0.44113  0.20942  Biso   1.000  C
  C82      1.0000 0.30488  0.44798  0.25860  Biso   1.000  C
  C83      1.0000 0.45357  0.48566  0.26962  Biso   1.000  C
  C84      1.0000 0.47900  0.51776  0.22978  Biso   1.000  C
  C85      1.0000 0.35950  0.50898  0.17849  Biso   1.000  C
  C86      1.0000 0.58158  0.49173  0.32353  Biso   1.000  C
  C87      1.0000 0.53502  0.48633  0.38098  Biso   1.000  C
  C88      1.0000 0.65811  0.48889  0.42708  Biso   1.000  C
  C89      1.0000 0.87155  0.50786  0.36835  Biso   1.000  C
  C90      1.0000 0.75700  0.50667  0.32002  Biso   1.000  C
  N1       1.0000 0.17498  0.07658  0.49842  Biso   1.000  N
  N2       1.0000 0.17498  0.42184  0.92342  Biso   1.000  N
  N3       1.0000 0.17498  0.50158  0.57816  Biso   1.000  N
  N4       1.0000 0.82502  0.92342  0.50158  Biso   1.000  N
  N5       1.0000 0.82502  0.57816  0.07658  Biso   1.000  N
  N6       1.0000 0.82502  0.49842  0.42184  Biso   1.000  N
  O1       1.0000 0.86510  0.41800  0.49692  Biso   1.000  O
  O2       1.0000 0.16697  0.42770  0.42224  Biso   1.000  O
  O3       1.0000 0.86510  0.07892  0.58200  Biso   1.000  O
  O4       1.0000 0.16697  0.99454  0.57230  Biso   1.000  O
  O5       1.0000 0.86510  0.50308  0.92108  Biso   1.000  O
  O6       1.0000 0.16697  0.57776  0.00546  Biso   1.000  O
  O7       1.0000 0.13490  0.58200  0.50308  Biso   1.000  O
  O8       1.0000 0.83303  0.57230  0.57776  Biso   1.000  O
  O9       1.0000 0.13490  0.92108  0.41800  Biso   1.000  O
  O10      1.0000 0.83303  0.00546  0.42770  Biso   1.000  O
  O11      1.0000 0.13490  0.49692  0.07892  Biso   1.000  O
  O12      1.0000 0.83303  0.42224  0.99454  Biso   1.000  O
