data_image0
_cell_length_a       7.75538
_cell_length_b       15.6408
_cell_length_c       15.6408
_cell_angle_alpha    62.6759
_cell_angle_beta     80.4864
_cell_angle_gamma    99.5136

_symmetry_space_group_name_H-M    P 1
_symmetry_int_tables_number       1

loop_
  _symmetry_equiv_pos_as_xyz
  'x, y, z'

loop_
  _atom_site_label
  _atom_site_occupancy
  _atom_site_fract_x
  _atom_site_fract_y
  _atom_site_fract_z
  _atom_site_thermal_displace_type
  _atom_site_B_iso_or_equiv
  _atom_site_type_symbol
  Cu1      1.0000 0.50000  0.00000  0.50000  Biso   1.000  Cu
  H1       1.0000 0.81040  0.94240  0.72980  Biso   1.000  H
  H2       1.0000 0.64030  0.88740  0.82330  Biso   1.000  H
  H3       1.0000 0.69510  0.00420  0.75710  Biso   1.000  H
  H4       1.0000 0.40400  0.80290  0.80240  Biso   1.000  H
  H5       1.0000 0.19390  0.66980  0.87390  Biso   1.000  H
  H6       1.0000 0.95470  0.81590  0.66450  Biso   1.000  H
  H7       1.0000 0.68480  0.70120  0.76790  Biso   1.000  H
  H8       1.0000 0.91680  0.56070  0.96970  Biso   1.000  H
  H9       1.0000 0.18960  0.05760  0.27020  Biso   1.000  H
  H10      1.0000 0.35970  0.11260  0.17670  Biso   1.000  H
  H11      1.0000 0.30490  0.99580  0.24290  Biso   1.000  H
  H12      1.0000 0.59600  0.19710  0.19760  Biso   1.000  H
  H13      1.0000 0.80610  0.33020  0.12610  Biso   1.000  H
  H14      1.0000 0.04530  0.18410  0.33550  Biso   1.000  H
  H15      1.0000 0.31520  0.29880  0.23210  Biso   1.000  H
  H16      1.0000 0.08320  0.43930  0.03030  Biso   1.000  H
  C1       1.0000 0.69010  0.94290  0.75640  Biso   1.000  C
  C2       1.0000 0.57212  0.93432  0.69226  Biso   1.000  C
  C3       1.0000 0.41741  0.85258  0.73715  Biso   1.000  C
  C4       1.0000 0.28258  0.83920  0.69296  Biso   1.000  C
  C5       1.0000 0.10829  0.75910  0.75773  Biso   1.000  C
  C6       1.0000 0.09211  0.67918  0.85025  Biso   1.000  C
  C7       1.0000 0.95085  0.76483  0.72728  Biso   1.000  C
  C8       1.0000 0.78874  0.69514  0.78992  Biso   1.000  C
  C9       1.0000 0.92442  0.61368  0.90712  Biso   1.000  C
  C10      1.0000 0.30990  0.05710  0.24360  Biso   1.000  C
  C11      1.0000 0.42788  0.06568  0.30774  Biso   1.000  C
  C12      1.0000 0.58259  0.14742  0.26285  Biso   1.000  C
  C13      1.0000 0.71742  0.16080  0.30704  Biso   1.000  C
  C14      1.0000 0.89171  0.24090  0.24227  Biso   1.000  C
  C15      1.0000 0.90789  0.32082  0.14975  Biso   1.000  C
  C16      1.0000 0.04915  0.23517  0.27272  Biso   1.000  C
  C17      1.0000 0.21126  0.30486  0.21008  Biso   1.000  C
  C18      1.0000 0.07558  0.38632  0.09288  Biso   1.000  C
  N1       1.0000 0.77207  0.62009  0.87978  Biso   1.000  N
  N2       1.0000 0.22793  0.37991  0.12022  Biso   1.000  N
  O1       1.0000 0.28831  0.89188  0.60155  Biso   1.000  O
  O2       1.0000 0.62032  0.00246  0.60200  Biso   1.000  O
  O3       1.0000 0.71169  0.10812  0.39845  Biso   1.000  O
  O4       1.0000 0.37968  0.99754  0.39800  Biso   1.000  O
  Cu2      1.0000 0.00000  0.50000  0.50000  Biso   1.000  Cu
  H17      1.0000 0.54020  0.72980  0.32780  Biso   1.000  H
  H18      1.0000 0.46360  0.82330  0.28930  Biso   1.000  H
  H19      1.0000 0.45220  0.75710  0.23870  Biso   1.000  H
  H20      1.0000 0.20640  0.80240  0.39470  Biso   1.000  H
  H21      1.0000 0.06780  0.87390  0.45630  Biso   1.000  H
  H22      1.0000 0.61920  0.66450  0.51960  Biso   1.000  H
  H23      1.0000 0.45270  0.76790  0.53090  Biso   1.000  H
  H24      1.0000 0.88650  0.96970  0.46960  Biso   1.000  H
  H25      1.0000 0.45980  0.27020  0.67220  Biso   1.000  H
  H26      1.0000 0.53640  0.17670  0.71070  Biso   1.000  H
  H27      1.0000 0.54780  0.24290  0.76130  Biso   1.000  H
  H28      1.0000 0.79360  0.19760  0.60530  Biso   1.000  H
  H29      1.0000 0.93220  0.12610  0.54370  Biso   1.000  H
  H30      1.0000 0.38080  0.33550  0.48040  Biso   1.000  H
  H31      1.0000 0.54730  0.23210  0.46910  Biso   1.000  H
  H32      1.0000 0.11350  0.03030  0.53040  Biso   1.000  H
  C19      1.0000 0.44650  0.75640  0.30070  Biso   1.000  C
  C20      1.0000 0.26438  0.69226  0.37342  Biso   1.000  C
  C21      1.0000 0.15456  0.73715  0.41027  Biso   1.000  C
  C22      1.0000 0.97554  0.69296  0.46784  Biso   1.000  C
  C23      1.0000 0.86602  0.75773  0.48317  Biso   1.000  C
  C24      1.0000 0.94236  0.85025  0.47057  Biso   1.000  C
  C25      1.0000 0.67813  0.72728  0.50789  Biso   1.000  C
  C26      1.0000 0.57866  0.78992  0.51494  Biso   1.000  C
  C27      1.0000 0.83154  0.90712  0.47920  Biso   1.000  C
  C28      1.0000 0.55350  0.24360  0.69930  Biso   1.000  C
  C29      1.0000 0.73562  0.30774  0.62658  Biso   1.000  C
  C30      1.0000 0.84544  0.26285  0.58973  Biso   1.000  C
  C31      1.0000 0.02446  0.30704  0.53216  Biso   1.000  C
  C32      1.0000 0.13398  0.24227  0.51683  Biso   1.000  C
  C33      1.0000 0.05764  0.14975  0.52943  Biso   1.000  C
  C34      1.0000 0.32187  0.27272  0.49211  Biso   1.000  C
  C35      1.0000 0.42134  0.21008  0.48506  Biso   1.000  C
  C36      1.0000 0.16846  0.09288  0.52080  Biso   1.000  C
  N3       1.0000 0.65185  0.87978  0.50013  Biso   1.000  N
  N4       1.0000 0.34815  0.12022  0.49987  Biso   1.000  N
  O5       1.0000 0.88986  0.60155  0.50657  Biso   1.000  O
  O6       1.0000 0.22232  0.60200  0.39554  Biso   1.000  O
  O7       1.0000 0.11014  0.39845  0.49343  Biso   1.000  O
  O8       1.0000 0.77768  0.39800  0.60446  Biso   1.000  O
  Cu3      1.0000 0.50000  0.50000  0.00000  Biso   1.000  Cu
  H33      1.0000 0.86800  0.32780  0.94240  Biso   1.000  H
  H34      1.0000 0.75290  0.28930  0.88740  Biso   1.000  H
  H35      1.0000 0.69090  0.23870  0.00420  Biso   1.000  H
  H36      1.0000 0.60110  0.39470  0.80290  Biso   1.000  H
  H37      1.0000 0.52410  0.45630  0.66980  Biso   1.000  H
  H38      1.0000 0.13880  0.51960  0.81590  Biso   1.000  H
  H39      1.0000 0.98360  0.53090  0.70120  Biso   1.000  H
  H40      1.0000 0.35610  0.46960  0.56070  Biso   1.000  H
  H41      1.0000 0.13200  0.67220  0.05760  Biso   1.000  H
  H42      1.0000 0.24710  0.71070  0.11260  Biso   1.000  H
  H43      1.0000 0.30910  0.76130  0.99580  Biso   1.000  H
  H44      1.0000 0.39890  0.60530  0.19710  Biso   1.000  H
  H45      1.0000 0.47590  0.54370  0.33020  Biso   1.000  H
  H46      1.0000 0.86120  0.48040  0.18410  Biso   1.000  H
  H47      1.0000 0.01640  0.46910  0.29880  Biso   1.000  H
  H48      1.0000 0.64390  0.53040  0.43930  Biso   1.000  H
  C37      1.0000 0.74720  0.30070  0.94290  Biso   1.000  C
  C38      1.0000 0.63780  0.37342  0.93432  Biso   1.000  C
  C39      1.0000 0.56483  0.41027  0.85258  Biso   1.000  C
  C40      1.0000 0.44338  0.46784  0.83920  Biso   1.000  C
  C41      1.0000 0.34919  0.48317  0.75910  Biso   1.000  C
  C42      1.0000 0.41293  0.47057  0.67918  Biso   1.000  C
  C43      1.0000 0.18602  0.50789  0.76483  Biso   1.000  C
  C44      1.0000 0.09360  0.51494  0.69514  Biso   1.000  C
  C45      1.0000 0.31074  0.47920  0.61368  Biso   1.000  C
  C46      1.0000 0.25280  0.69930  0.05710  Biso   1.000  C
  C47      1.0000 0.36220  0.62658  0.06568  Biso   1.000  C
  C48      1.0000 0.43517  0.58973  0.14742  Biso   1.000  C
  C49      1.0000 0.55662  0.53216  0.16080  Biso   1.000  C
  C50      1.0000 0.65081  0.51683  0.24090  Biso   1.000  C
  C51      1.0000 0.58707  0.52943  0.32082  Biso   1.000  C
  C52      1.0000 0.81398  0.49211  0.23517  Biso   1.000  C
  C53      1.0000 0.90640  0.48506  0.30486  Biso   1.000  C
  C54      1.0000 0.68926  0.52080  0.38632  Biso   1.000  C
  N5       1.0000 0.15198  0.50013  0.62009  Biso   1.000  N
  N6       1.0000 0.84802  0.49987  0.37991  Biso   1.000  N
  O9       1.0000 0.39643  0.50657  0.89188  Biso   1.000  O
  O10      1.0000 0.61786  0.39554  0.00246  Biso   1.000  O
  O11      1.0000 0.60357  0.49343  0.10812  Biso   1.000  O
  O12      1.0000 0.38214  0.60446  0.99754  Biso   1.000  O
