data_image0
_cell_length_a       7.74097
_cell_length_b       15.5967
_cell_length_c       15.5967
_cell_angle_alpha    62.681
_cell_angle_beta     80.4772
_cell_angle_gamma    99.5228

_symmetry_space_group_name_H-M    P 1
_symmetry_int_tables_number       1

loop_
  _symmetry_equiv_pos_as_xyz
  'x, y, z'

loop_
  _atom_site_label
  _atom_site_occupancy
  _atom_site_fract_x
  _atom_site_fract_y
  _atom_site_fract_z
  _atom_site_thermal_displace_type
  _atom_site_B_iso_or_equiv
  _atom_site_type_symbol
  Cu1      1.0000 0.50000  0.00000  0.50000  Biso   1.000  Cu
  H1       1.0000 0.13800  0.95620  0.32130  Biso   1.000  H
  H2       1.0000 0.22120  0.88010  0.30070  Biso   1.000  H
  H3       1.0000 0.31760  0.99560  0.23500  Biso   1.000  H
  H4       1.0000 0.39190  0.80060  0.39730  Biso   1.000  H
  H5       1.0000 0.85990  0.81600  0.51980  Biso   1.000  H
  H6       1.0000 0.01610  0.70140  0.53150  Biso   1.000  H
  H7       1.0000 0.64370  0.55930  0.46920  Biso   1.000  H
  H8       1.0000 0.47300  0.66780  0.45710  Biso   1.000  H
  H9       1.0000 0.86200  0.04380  0.67870  Biso   1.000  H
  H10      1.0000 0.77880  0.11990  0.69930  Biso   1.000  H
  H11      1.0000 0.68240  0.00440  0.76500  Biso   1.000  H
  H12      1.0000 0.60810  0.19940  0.60270  Biso   1.000  H
  H13      1.0000 0.14010  0.18400  0.48020  Biso   1.000  H
  H14      1.0000 0.98390  0.29860  0.46850  Biso   1.000  H
  H15      1.0000 0.35630  0.44070  0.53080  Biso   1.000  H
  H16      1.0000 0.52700  0.33220  0.54290  Biso   1.000  H
  C1       1.0000 0.24920  0.94230  0.30110  Biso   1.000  C
  C2       1.0000 0.35990  0.93379  0.37389  Biso   1.000  C
  C3       1.0000 0.43063  0.85091  0.41182  Biso   1.000  C
  C4       1.0000 0.55406  0.83754  0.46916  Biso   1.000  C
  C5       1.0000 0.64822  0.75750  0.48404  Biso   1.000  C
  C6       1.0000 0.81315  0.76452  0.50837  Biso   1.000  C
  C7       1.0000 0.90620  0.69510  0.51530  Biso   1.000  C
  C8       1.0000 0.68820  0.61215  0.47915  Biso   1.000  C
  C9       1.0000 0.58450  0.67733  0.47113  Biso   1.000  C
  C10      1.0000 0.75080  0.05770  0.69890  Biso   1.000  C
  C11      1.0000 0.64010  0.06621  0.62611  Biso   1.000  C
  C12      1.0000 0.56937  0.14909  0.58818  Biso   1.000  C
  C13      1.0000 0.44594  0.16246  0.53084  Biso   1.000  C
  C14      1.0000 0.35178  0.24250  0.51596  Biso   1.000  C
  C15      1.0000 0.18685  0.23548  0.49163  Biso   1.000  C
  C16      1.0000 0.09380  0.30490  0.48470  Biso   1.000  C
  C17      1.0000 0.31180  0.38785  0.52085  Biso   1.000  C
  C18      1.0000 0.41550  0.32267  0.52887  Biso   1.000  C
  N1       1.0000 0.84831  0.61929  0.50006  Biso   1.000  N
  N2       1.0000 0.15169  0.38071  0.49994  Biso   1.000  N
  O1       1.0000 0.38194  0.00248  0.39536  Biso   1.000  O
  O2       1.0000 0.60265  0.89139  0.50654  Biso   1.000  O
  O3       1.0000 0.61806  0.99752  0.60464  Biso   1.000  O
  O4       1.0000 0.39735  0.10861  0.49346  Biso   1.000  O
  Cu2      1.0000 0.00000  0.50000  0.50000  Biso   1.000  Cu
  H17      1.0000 0.45930  0.32130  0.72250  Biso   1.000  H
  H18      1.0000 0.52190  0.30070  0.81920  Biso   1.000  H
  H19      1.0000 0.55260  0.23500  0.76940  Biso   1.000  H
  H20      1.0000 0.78920  0.39730  0.80210  Biso   1.000  H
  H21      1.0000 0.37970  0.51980  0.66420  Biso   1.000  H
  H22      1.0000 0.54760  0.53150  0.76710  Biso   1.000  H
  H23      1.0000 0.11290  0.46920  0.97150  Biso   1.000  H
  H24      1.0000 0.93010  0.45710  0.87510  Biso   1.000  H
  H25      1.0000 0.54070  0.67870  0.27750  Biso   1.000  H
  H26      1.0000 0.47810  0.69930  0.18080  Biso   1.000  H
  H27      1.0000 0.44740  0.76500  0.23060  Biso   1.000  H
  H28      1.0000 0.21080  0.60270  0.19790  Biso   1.000  H
  H29      1.0000 0.62030  0.48020  0.33580  Biso   1.000  H
  H30      1.0000 0.45240  0.46850  0.23290  Biso   1.000  H
  H31      1.0000 0.88710  0.53080  0.02850  Biso   1.000  H
  H32      1.0000 0.06990  0.54290  0.12490  Biso   1.000  H
  C19      1.0000 0.55030  0.30110  0.75660  Biso   1.000  C
  C20      1.0000 0.73379  0.37389  0.69232  Biso   1.000  C
  C21      1.0000 0.84245  0.41182  0.73727  Biso   1.000  C
  C22      1.0000 0.02322  0.46916  0.69330  Biso   1.000  C
  C23      1.0000 0.13226  0.48404  0.75846  Biso   1.000  C
  C24      1.0000 0.32152  0.50837  0.72711  Biso   1.000  C
  C25      1.0000 0.42150  0.51530  0.78960  Biso   1.000  C
  C26      1.0000 0.16735  0.47915  0.90870  Biso   1.000  C
  C27      1.0000 0.05563  0.47113  0.85154  Biso   1.000  C
  C28      1.0000 0.44970  0.69890  0.24340  Biso   1.000  C
  C29      1.0000 0.26621  0.62611  0.30768  Biso   1.000  C
  C30      1.0000 0.15755  0.58818  0.26273  Biso   1.000  C
  C31      1.0000 0.97678  0.53084  0.30670  Biso   1.000  C
  C32      1.0000 0.86774  0.51596  0.24154  Biso   1.000  C
  C33      1.0000 0.67848  0.49163  0.27289  Biso   1.000  C
  C34      1.0000 0.57850  0.48470  0.21040  Biso   1.000  C
  C35      1.0000 0.83265  0.52085  0.09130  Biso   1.000  C
  C36      1.0000 0.94437  0.52887  0.14846  Biso   1.000  C
  N3       1.0000 0.34837  0.50006  0.88065  Biso   1.000  N
  N4       1.0000 0.65163  0.49994  0.11935  Biso   1.000  N
  O5       1.0000 0.77730  0.39536  0.60216  Biso   1.000  O
  O6       1.0000 0.10919  0.50654  0.60207  Biso   1.000  O
  O7       1.0000 0.22270  0.60464  0.39784  Biso   1.000  O
  O8       1.0000 0.89081  0.49346  0.39793  Biso   1.000  O
  Cu3      1.0000 0.50000  0.50000  0.00000  Biso   1.000  Cu
  H33      1.0000 0.18180  0.72250  0.95620  Biso   1.000  H
  H34      1.0000 0.34110  0.81920  0.88010  Biso   1.000  H
  H35      1.0000 0.32200  0.76940  0.99560  Biso   1.000  H
  H36      1.0000 0.59130  0.80210  0.80060  Biso   1.000  H
  H37      1.0000 0.04390  0.66420  0.81600  Biso   1.000  H
  H38      1.0000 0.31470  0.76710  0.70140  Biso   1.000  H
  H39      1.0000 0.08440  0.97150  0.55930  Biso   1.000  H
  H40      1.0000 0.80520  0.87510  0.66780  Biso   1.000  H
  H41      1.0000 0.81820  0.27750  0.04380  Biso   1.000  H
  H42      1.0000 0.65890  0.18080  0.11990  Biso   1.000  H
  H43      1.0000 0.67800  0.23060  0.00440  Biso   1.000  H
  H44      1.0000 0.40870  0.19790  0.19940  Biso   1.000  H
  H45      1.0000 0.95610  0.33580  0.18400  Biso   1.000  H
  H46      1.0000 0.68530  0.23290  0.29860  Biso   1.000  H
  H47      1.0000 0.91560  0.02850  0.44070  Biso   1.000  H
  H48      1.0000 0.19480  0.12490  0.33220  Biso   1.000  H
  C37      1.0000 0.30690  0.75660  0.94230  Biso   1.000  C
  C38      1.0000 0.42611  0.69232  0.93379  Biso   1.000  C
  C39      1.0000 0.57972  0.73727  0.85091  Biso   1.000  C
  C40      1.0000 0.71652  0.69330  0.83754  Biso   1.000  C
  C41      1.0000 0.89072  0.75846  0.75750  Biso   1.000  C
  C42      1.0000 0.04863  0.72711  0.76452  Biso   1.000  C
  C43      1.0000 0.21110  0.78960  0.69510  Biso   1.000  C
  C44      1.0000 0.07605  0.90870  0.61215  Biso   1.000  C
  C45      1.0000 0.90717  0.85154  0.67733  Biso   1.000  C
  C46      1.0000 0.69310  0.24340  0.05770  Biso   1.000  C
  C47      1.0000 0.57389  0.30768  0.06621  Biso   1.000  C
  C48      1.0000 0.42028  0.26273  0.14909  Biso   1.000  C
  C49      1.0000 0.28348  0.30670  0.16246  Biso   1.000  C
  C50      1.0000 0.10928  0.24154  0.24250  Biso   1.000  C
  C51      1.0000 0.95137  0.27289  0.23548  Biso   1.000  C
  C52      1.0000 0.78890  0.21040  0.30490  Biso   1.000  C
  C53      1.0000 0.92395  0.09130  0.38785  Biso   1.000  C
  C54      1.0000 0.09283  0.14846  0.32267  Biso   1.000  C
  N5       1.0000 0.22902  0.88065  0.61929  Biso   1.000  N
  N6       1.0000 0.77098  0.11935  0.38071  Biso   1.000  N
  O9       1.0000 0.37946  0.60216  0.00248  Biso   1.000  O
  O10      1.0000 0.71126  0.60207  0.89139  Biso   1.000  O
  O11      1.0000 0.62054  0.39784  0.99752  Biso   1.000  O
  O12      1.0000 0.28874  0.39793  0.10861  Biso   1.000  O
