data_image0
_cell_length_a       7.0303
_cell_length_b       12.5619
_cell_length_c       15.6408
_cell_angle_alpha    90
_cell_angle_beta     90
_cell_angle_gamma    100.918

_symmetry_space_group_name_H-M    P 1
_symmetry_int_tables_number       1

loop_
  _symmetry_equiv_pos_as_xyz
  'x, y, z'

loop_
  _atom_site_label
  _atom_site_occupancy
  _atom_site_fract_x
  _atom_site_fract_y
  _atom_site_fract_z
  _atom_site_thermal_displace_type
  _atom_site_B_iso_or_equiv
  _atom_site_type_symbol
  Cu1      1.0000 0.50000  0.00000  0.50000  Biso   1.000  Cu
  Cu2      1.0000 0.00000  0.50000  0.00000  Biso   1.000  Cu
  Cu3      1.0000 0.00000  0.00000  0.50000  Biso   1.000  Cu
  Cu4      1.0000 0.50000  0.50000  0.00000  Biso   1.000  Cu
  P1       1.0000 0.74084  0.21636  0.41380  Biso   1.000  P
  P2       1.0000 0.26071  0.26823  0.07414  Biso   1.000  P
  P3       1.0000 0.75916  0.28364  0.91380  Biso   1.000  P
  P4       1.0000 0.23929  0.23177  0.57414  Biso   1.000  P
  P5       1.0000 0.25916  0.78364  0.58620  Biso   1.000  P
  P6       1.0000 0.73929  0.73177  0.92586  Biso   1.000  P
  P7       1.0000 0.24084  0.71636  0.08620  Biso   1.000  P
  P8       1.0000 0.76071  0.76823  0.42586  Biso   1.000  P
  H1       1.0000 0.81050  0.20240  0.23240  Biso   1.000  H
  H2       1.0000 0.63220  0.22100  0.11000  Biso   1.000  H
  H3       1.0000 0.18860  0.27690  0.25510  Biso   1.000  H
  H4       1.0000 0.36620  0.25650  0.37740  Biso   1.000  H
  H5       1.0000 0.64160  0.94590  0.32490  Biso   1.000  H
  H6       1.0000 0.57780  0.95240  0.23450  Biso   1.000  H
  H7       1.0000 0.04100  0.26900  0.41100  Biso   1.000  H
  H8       1.0000 0.98800  0.22800  0.06900  Biso   1.000  H
  H9       1.0000 0.68950  0.29760  0.73240  Biso   1.000  H
  H10      1.0000 0.86780  0.27900  0.61000  Biso   1.000  H
  H11      1.0000 0.31140  0.22310  0.75510  Biso   1.000  H
  H12      1.0000 0.13380  0.24350  0.87740  Biso   1.000  H
  H13      1.0000 0.85840  0.55410  0.82490  Biso   1.000  H
  H14      1.0000 0.92220  0.54760  0.73450  Biso   1.000  H
  H15      1.0000 0.45900  0.23100  0.91100  Biso   1.000  H
  H16      1.0000 0.51200  0.27200  0.56900  Biso   1.000  H
  H17      1.0000 0.18950  0.79760  0.76760  Biso   1.000  H
  H18      1.0000 0.36780  0.77900  0.89000  Biso   1.000  H
  H19      1.0000 0.81140  0.72310  0.74490  Biso   1.000  H
  H20      1.0000 0.63380  0.74350  0.62260  Biso   1.000  H
  H21      1.0000 0.35840  0.05410  0.67510  Biso   1.000  H
  H22      1.0000 0.42220  0.04760  0.76550  Biso   1.000  H
  H23      1.0000 0.95900  0.73100  0.58900  Biso   1.000  H
  H24      1.0000 0.01200  0.77200  0.93100  Biso   1.000  H
  H25      1.0000 0.31050  0.70240  0.26760  Biso   1.000  H
  H26      1.0000 0.13220  0.72100  0.39000  Biso   1.000  H
  H27      1.0000 0.68860  0.77690  0.24490  Biso   1.000  H
  H28      1.0000 0.86620  0.75650  0.12260  Biso   1.000  H
  H29      1.0000 0.14160  0.44590  0.17510  Biso   1.000  H
  H30      1.0000 0.07780  0.45240  0.26550  Biso   1.000  H
  H31      1.0000 0.54100  0.76900  0.08900  Biso   1.000  H
  H32      1.0000 0.48800  0.72800  0.43100  Biso   1.000  H
  C1       1.0000 0.60700  0.22820  0.31720  Biso   1.000  C
  C2       1.0000 0.68630  0.21730  0.23710  Biso   1.000  C
  C3       1.0000 0.57930  0.22870  0.16360  Biso   1.000  C
  C4       1.0000 0.39270  0.25170  0.17050  Biso   1.000  C
  C5       1.0000 0.31290  0.26200  0.25040  Biso   1.000  C
  C6       1.0000 0.41990  0.25000  0.32370  Biso   1.000  C
  C7       1.0000 0.10150  0.00590  0.31320  Biso   1.000  C
  C8       1.0000 0.39460  0.97750  0.31410  Biso   1.000  C
  C9       1.0000 0.89300  0.27180  0.81720  Biso   1.000  C
  C10      1.0000 0.81370  0.28270  0.73710  Biso   1.000  C
  C11      1.0000 0.92070  0.27130  0.66360  Biso   1.000  C
  C12      1.0000 0.10730  0.24830  0.67050  Biso   1.000  C
  C13      1.0000 0.18710  0.23800  0.75040  Biso   1.000  C
  C14      1.0000 0.08010  0.25000  0.82370  Biso   1.000  C
  C15      1.0000 0.39850  0.49410  0.81320  Biso   1.000  C
  C16      1.0000 0.10540  0.52250  0.81410  Biso   1.000  C
  C17      1.0000 0.39300  0.77180  0.68280  Biso   1.000  C
  C18      1.0000 0.31370  0.78270  0.76290  Biso   1.000  C
  C19      1.0000 0.42070  0.77130  0.83640  Biso   1.000  C
  C20      1.0000 0.60730  0.74830  0.82950  Biso   1.000  C
  C21      1.0000 0.68710  0.73800  0.74960  Biso   1.000  C
  C22      1.0000 0.58010  0.75000  0.67630  Biso   1.000  C
  C23      1.0000 0.89850  0.99410  0.68680  Biso   1.000  C
  C24      1.0000 0.60540  0.02250  0.68590  Biso   1.000  C
  C25      1.0000 0.10700  0.72820  0.18280  Biso   1.000  C
  C26      1.0000 0.18630  0.71730  0.26290  Biso   1.000  C
  C27      1.0000 0.07930  0.72870  0.33640  Biso   1.000  C
  C28      1.0000 0.89270  0.75170  0.32950  Biso   1.000  C
  C29      1.0000 0.81290  0.76200  0.24960  Biso   1.000  C
  C30      1.0000 0.91990  0.75000  0.17630  Biso   1.000  C
  C31      1.0000 0.60150  0.50590  0.18680  Biso   1.000  C
  C32      1.0000 0.89460  0.47750  0.18590  Biso   1.000  C
  N1       1.0000 0.15350  0.00210  0.39370  Biso   1.000  N
  N2       1.0000 0.34350  0.98560  0.39430  Biso   1.000  N
  N3       1.0000 0.24850  0.99020  0.26070  Biso   1.000  N
  N4       1.0000 0.55540  0.95630  0.28840  Biso   1.000  N
  N5       1.0000 0.34650  0.49790  0.89370  Biso   1.000  N
  N6       1.0000 0.15650  0.51440  0.89430  Biso   1.000  N
  N7       1.0000 0.25150  0.50980  0.76070  Biso   1.000  N
  N8       1.0000 0.94460  0.54370  0.78840  Biso   1.000  N
  N9       1.0000 0.84650  0.99790  0.60630  Biso   1.000  N
  N10      1.0000 0.65650  0.01440  0.60570  Biso   1.000  N
  N11      1.0000 0.75150  0.00980  0.73930  Biso   1.000  N
  N12      1.0000 0.44460  0.04370  0.71160  Biso   1.000  N
  N13      1.0000 0.65350  0.50210  0.10630  Biso   1.000  N
  N14      1.0000 0.84350  0.48560  0.10570  Biso   1.000  N
  N15      1.0000 0.74850  0.49020  0.23930  Biso   1.000  N
  N16      1.0000 0.05540  0.45630  0.21160  Biso   1.000  N
  O1       1.0000 0.95490  0.25150  0.38471  Biso   1.000  O
  O2       1.0000 0.68590  0.29320  0.47951  Biso   1.000  O
  O3       1.0000 0.71140  0.09870  0.44283  Biso   1.000  O
  O4       1.0000 0.29400  0.38640  0.04676  Biso   1.000  O
  O5       1.0000 0.31310  0.19180  0.00697  Biso   1.000  O
  O6       1.0000 0.04650  0.23380  0.10320  Biso   1.000  O
  O7       1.0000 0.54510  0.24850  0.88471  Biso   1.000  O
  O8       1.0000 0.81410  0.20680  0.97951  Biso   1.000  O
  O9       1.0000 0.78860  0.40130  0.94283  Biso   1.000  O
  O10      1.0000 0.20600  0.11360  0.54676  Biso   1.000  O
  O11      1.0000 0.18690  0.30820  0.50697  Biso   1.000  O
  O12      1.0000 0.45350  0.26620  0.60320  Biso   1.000  O
  O13      1.0000 0.04510  0.74850  0.61529  Biso   1.000  O
  O14      1.0000 0.31410  0.70680  0.52049  Biso   1.000  O
  O15      1.0000 0.28860  0.90130  0.55717  Biso   1.000  O
  O16      1.0000 0.70600  0.61360  0.95324  Biso   1.000  O
  O17      1.0000 0.68690  0.80820  0.99303  Biso   1.000  O
  O18      1.0000 0.95350  0.76620  0.89680  Biso   1.000  O
  O19      1.0000 0.45490  0.75150  0.11529  Biso   1.000  O
  O20      1.0000 0.18590  0.79320  0.02049  Biso   1.000  O
  O21      1.0000 0.21140  0.59870  0.05717  Biso   1.000  O
  O22      1.0000 0.79400  0.88640  0.45324  Biso   1.000  O
  O23      1.0000 0.81310  0.69180  0.49303  Biso   1.000  O
  O24      1.0000 0.54650  0.73380  0.39680  Biso   1.000  O
