data_image0
_cell_length_a       9.0656
_cell_length_b       10.229
_cell_length_c       11.764
_cell_angle_alpha    115.77
_cell_angle_beta     90.1891
_cell_angle_gamma    90

_symmetry_space_group_name_H-M    P 1
_symmetry_int_tables_number       1

loop_
  _symmetry_equiv_pos_as_xyz
  'x, y, z'

loop_
  _atom_site_label
  _atom_site_occupancy
  _atom_site_fract_x
  _atom_site_fract_y
  _atom_site_fract_z
  _atom_site_thermal_displace_type
  _atom_site_B_iso_or_equiv
  _atom_site_type_symbol
  Zn1      1.0000 0.92996  0.15376  0.44688  Biso   1.000  Zn
  Zn2      1.0000 0.57004  0.70688  0.55312  Biso   1.000  Zn
  Zn3      1.0000 0.07004  0.84624  0.55312  Biso   1.000  Zn
  Zn4      1.0000 0.42996  0.29312  0.44688  Biso   1.000  Zn
  P1       1.0000 0.73671  0.43544  0.55614  Biso   1.000  P
  P2       1.0000 0.76329  0.87930  0.44386  Biso   1.000  P
  P3       1.0000 0.26329  0.56456  0.44386  Biso   1.000  P
  P4       1.0000 0.23671  0.12070  0.55614  Biso   1.000  P
  H1       1.0000 0.88590  0.52730  0.69360  Biso   1.000  H
  H2       1.0000 0.01460  0.85590  0.24020  Biso   1.000  H
  H3       1.0000 0.15380  0.76200  0.06080  Biso   1.000  H
  H4       1.0000 0.21270  0.16540  0.09540  Biso   1.000  H
  H5       1.0000 0.06880  0.24780  0.27400  Biso   1.000  H
  H6       1.0000 0.61410  0.83370  0.30640  Biso   1.000  H
  H7       1.0000 0.48540  0.61570  0.75980  Biso   1.000  H
  H8       1.0000 0.34620  0.70120  0.93920  Biso   1.000  H
  H9       1.0000 0.28730  0.07000  0.90460  Biso   1.000  H
  H10      1.0000 0.43120  0.97380  0.72600  Biso   1.000  H
  H11      1.0000 0.11410  0.47270  0.30640  Biso   1.000  H
  H12      1.0000 0.98540  0.14410  0.75980  Biso   1.000  H
  H13      1.0000 0.84620  0.23800  0.93920  Biso   1.000  H
  H14      1.0000 0.78730  0.83460  0.90460  Biso   1.000  H
  H15      1.0000 0.93120  0.75220  0.72600  Biso   1.000  H
  H16      1.0000 0.38590  0.16630  0.69360  Biso   1.000  H
  H17      1.0000 0.51460  0.38430  0.24020  Biso   1.000  H
  H18      1.0000 0.65380  0.29880  0.06080  Biso   1.000  H
  H19      1.0000 0.71270  0.93000  0.09540  Biso   1.000  H
  H20      1.0000 0.56880  0.02620  0.27400  Biso   1.000  H
  C1       1.0000 0.05490  0.91890  0.21080  Biso   1.000  C
  C2       1.0000 0.13920  0.86172  0.10304  Biso   1.000  C
  C3       1.0000 0.20240  0.95345  0.05730  Biso   1.000  C
  C4       1.0000 0.17400  0.09999  0.12298  Biso   1.000  C
  C5       1.0000 0.08700  0.14874  0.23068  Biso   1.000  C
  C6       1.0000 0.44510  0.70810  0.78920  Biso   1.000  C
  C7       1.0000 0.36080  0.75868  0.89696  Biso   1.000  C
  C8       1.0000 0.29760  0.89615  0.94270  Biso   1.000  C
  C9       1.0000 0.32600  0.97701  0.87702  Biso   1.000  C
  C10      1.0000 0.41300  0.91806  0.76932  Biso   1.000  C
  C11      1.0000 0.94510  0.08110  0.78920  Biso   1.000  C
  C12      1.0000 0.86080  0.13828  0.89696  Biso   1.000  C
  C13      1.0000 0.79760  0.04655  0.94270  Biso   1.000  C
  C14      1.0000 0.82600  0.90001  0.87702  Biso   1.000  C
  C15      1.0000 0.91300  0.85126  0.76932  Biso   1.000  C
  C16      1.0000 0.55490  0.29190  0.21080  Biso   1.000  C
  C17      1.0000 0.63920  0.24132  0.10304  Biso   1.000  C
  C18      1.0000 0.70240  0.10385  0.05730  Biso   1.000  C
  C19      1.0000 0.67400  0.02299  0.12298  Biso   1.000  C
  C20      1.0000 0.58700  0.08194  0.23068  Biso   1.000  C
  N1       1.0000 0.02850  0.06088  0.27496  Biso   1.000  N
  N2       1.0000 0.47150  0.78592  0.72504  Biso   1.000  N
  N3       1.0000 0.97150  0.93912  0.72504  Biso   1.000  N
  N4       1.0000 0.52850  0.21408  0.27496  Biso   1.000  N
  O1       1.0000 0.84150  0.33044  0.45902  Biso   1.000  O
  O2       1.0000 0.09160  0.19983  0.56786  Biso   1.000  O
  O3       1.0000 0.71540  0.56253  0.52518  Biso   1.000  O
  O4       1.0000 0.80600  0.48871  0.69142  Biso   1.000  O
  O5       1.0000 0.65850  0.87142  0.54098  Biso   1.000  O
  O6       1.0000 0.40840  0.63197  0.43214  Biso   1.000  O
  O7       1.0000 0.78460  0.03735  0.47482  Biso   1.000  O
  O8       1.0000 0.69400  0.79729  0.30858  Biso   1.000  O
  O9       1.0000 0.15850  0.66956  0.54098  Biso   1.000  O
  O10      1.0000 0.90840  0.80017  0.43214  Biso   1.000  O
  O11      1.0000 0.28460  0.43747  0.47482  Biso   1.000  O
  O12      1.0000 0.19400  0.51129  0.30858  Biso   1.000  O
  O13      1.0000 0.34150  0.12858  0.45902  Biso   1.000  O
  O14      1.0000 0.59160  0.36803  0.56786  Biso   1.000  O
  O15      1.0000 0.21540  0.96265  0.52518  Biso   1.000  O
  O16      1.0000 0.30600  0.20271  0.69142  Biso   1.000  O
