data_image0
_cell_length_a       7.5409
_cell_length_b       12.8501
_cell_length_c       18.865
_cell_angle_alpha    90
_cell_angle_beta     90
_cell_angle_gamma    90

_symmetry_space_group_name_H-M    "P 1"
_symmetry_int_tables_number       1

loop_
  _symmetry_equiv_pos_as_xyz
  'x, y, z'

loop_
  _atom_site_label
  _atom_site_occupancy
  _atom_site_fract_x
  _atom_site_fract_y
  _atom_site_fract_z
  _atom_site_thermal_displace_type
  _atom_site_B_iso_or_equiv
  _atom_site_type_symbol
  Mn1      1.0000 0.23965  0.84457  0.38634  Biso   1.000  Mn
  N1       1.0000 0.24830  0.59280  0.39493  Biso   1.000  N
  N2       1.0000 0.95350  0.86600  0.26383  Biso   1.000  N
  N3       1.0000 0.23280  0.67557  0.37237  Biso   1.000  N
  N4       1.0000 0.52420  0.75074  0.48596  Biso   1.000  N
  N5       1.0000 0.48480  0.82642  0.45464  Biso   1.000  N
  N6       1.0000 0.99580  0.86998  0.32352  Biso   1.000  N
  N7       1.0000 0.26380  0.50894  0.41798  Biso   1.000  N
  N8       1.0000 0.56260  0.67515  0.51687  Biso   1.000  N
  N9       1.0000 0.91190  0.86576  0.20511  Biso   1.000  N
  Mn2      1.0000 0.26035  0.15543  0.88634  Biso   1.000  Mn
  N10      1.0000 0.25170  0.40720  0.89493  Biso   1.000  N
  N11      1.0000 0.54650  0.13400  0.76383  Biso   1.000  N
  N12      1.0000 0.26720  0.32443  0.87237  Biso   1.000  N
  N13      1.0000 0.97580  0.24926  0.98596  Biso   1.000  N
  N14      1.0000 0.01520  0.17358  0.95464  Biso   1.000  N
  N15      1.0000 0.50420  0.13002  0.82352  Biso   1.000  N
  N16      1.0000 0.23620  0.49106  0.91798  Biso   1.000  N
  N17      1.0000 0.93740  0.32485  0.01687  Biso   1.000  N
  N18      1.0000 0.58810  0.13424  0.70511  Biso   1.000  N
  Mn3      1.0000 0.76035  0.34457  0.11365  Biso   1.000  Mn
  N19      1.0000 0.75170  0.09280  0.10507  Biso   1.000  N
  N20      1.0000 0.04650  0.36600  0.23617  Biso   1.000  N
  N21      1.0000 0.76720  0.17557  0.12763  Biso   1.000  N
  N22      1.0000 0.47580  0.25074  0.01404  Biso   1.000  N
  N23      1.0000 0.51520  0.32642  0.04536  Biso   1.000  N
  N24      1.0000 0.00420  0.36998  0.17648  Biso   1.000  N
  N25      1.0000 0.73620  0.00894  0.08202  Biso   1.000  N
  N26      1.0000 0.43740  0.17515  0.98313  Biso   1.000  N
  N27      1.0000 0.08810  0.36576  0.29489  Biso   1.000  N
  Mn4      1.0000 0.73965  0.65543  0.61365  Biso   1.000  Mn
  N28      1.0000 0.74830  0.90720  0.60507  Biso   1.000  N
  N29      1.0000 0.45350  0.63400  0.73617  Biso   1.000  N
  N30      1.0000 0.73280  0.82443  0.62763  Biso   1.000  N
  N31      1.0000 0.02420  0.74926  0.51404  Biso   1.000  N
  N32      1.0000 0.98480  0.67358  0.54536  Biso   1.000  N
  N33      1.0000 0.49580  0.63002  0.67648  Biso   1.000  N
  N34      1.0000 0.76380  0.99106  0.58202  Biso   1.000  N
  N35      1.0000 0.06260  0.82485  0.48313  Biso   1.000  N
  N36      1.0000 0.41190  0.63424  0.79489  Biso   1.000  N
  Mn5      1.0000 0.76035  0.15543  0.61365  Biso   1.000  Mn
  N37      1.0000 0.75170  0.40720  0.60507  Biso   1.000  N
  N38      1.0000 0.04650  0.13400  0.73617  Biso   1.000  N
  N39      1.0000 0.76720  0.32443  0.62763  Biso   1.000  N
  N40      1.0000 0.47580  0.24926  0.51404  Biso   1.000  N
  N41      1.0000 0.51520  0.17358  0.54536  Biso   1.000  N
  N42      1.0000 0.00420  0.13002  0.67648  Biso   1.000  N
  N43      1.0000 0.73620  0.49106  0.58202  Biso   1.000  N
  N44      1.0000 0.43740  0.32485  0.48313  Biso   1.000  N
  N45      1.0000 0.08810  0.13424  0.79489  Biso   1.000  N
  Mn6      1.0000 0.73965  0.84457  0.11365  Biso   1.000  Mn
  N46      1.0000 0.74830  0.59280  0.10507  Biso   1.000  N
  N47      1.0000 0.45350  0.86600  0.23617  Biso   1.000  N
  N48      1.0000 0.73280  0.67557  0.12763  Biso   1.000  N
  N49      1.0000 0.02420  0.75074  0.01404  Biso   1.000  N
  N50      1.0000 0.98480  0.82642  0.04536  Biso   1.000  N
  N51      1.0000 0.49580  0.86998  0.17648  Biso   1.000  N
  N52      1.0000 0.76380  0.50894  0.08202  Biso   1.000  N
  N53      1.0000 0.06260  0.67515  0.98313  Biso   1.000  N
  N54      1.0000 0.41190  0.86576  0.29489  Biso   1.000  N
  Mn7      1.0000 0.23965  0.65543  0.88634  Biso   1.000  Mn
  N55      1.0000 0.24830  0.90720  0.89493  Biso   1.000  N
  N56      1.0000 0.95350  0.63400  0.76383  Biso   1.000  N
  N57      1.0000 0.23280  0.82443  0.87237  Biso   1.000  N
  N58      1.0000 0.52420  0.74926  0.98596  Biso   1.000  N
  N59      1.0000 0.48480  0.67358  0.95464  Biso   1.000  N
  N60      1.0000 0.99580  0.63002  0.82352  Biso   1.000  N
  N61      1.0000 0.26380  0.99106  0.91798  Biso   1.000  N
  N62      1.0000 0.56260  0.82485  0.01687  Biso   1.000  N
  N63      1.0000 0.91190  0.63424  0.70511  Biso   1.000  N
  Mn8      1.0000 0.26035  0.34457  0.38634  Biso   1.000  Mn
  N64      1.0000 0.25170  0.09280  0.39493  Biso   1.000  N
  N65      1.0000 0.54650  0.36600  0.26383  Biso   1.000  N
  N66      1.0000 0.26720  0.17557  0.37237  Biso   1.000  N
  N67      1.0000 0.97580  0.25074  0.48596  Biso   1.000  N
  N68      1.0000 0.01520  0.32642  0.45464  Biso   1.000  N
  N69      1.0000 0.50420  0.36998  0.32352  Biso   1.000  N
  N70      1.0000 0.23620  0.00894  0.41798  Biso   1.000  N
  N71      1.0000 0.93740  0.17515  0.51687  Biso   1.000  N
  N72      1.0000 0.58810  0.36576  0.20511  Biso   1.000  N
