data_image0
_cell_length_a       6.3722
_cell_length_b       9.99918
_cell_length_c       11.2234
_cell_angle_alpha    116.453
_cell_angle_beta     96.3409
_cell_angle_gamma    90

_symmetry_space_group_name_H-M    P 1
_symmetry_int_tables_number       1

loop_
  _symmetry_equiv_pos_as_xyz
  'x, y, z'

loop_
  _atom_site_label
  _atom_site_occupancy
  _atom_site_fract_x
  _atom_site_fract_y
  _atom_site_fract_z
  _atom_site_thermal_displace_type
  _atom_site_B_iso_or_equiv
  _atom_site_type_symbol
  Ni1      1.0000 0.50000  0.84882  0.00000  Biso   1.000  Ni
  Ni2      1.0000 0.50000  0.15118  0.00000  Biso   1.000  Ni
  Ni3      1.0000 0.00000  0.00000  0.00000  Biso   1.000  Ni
  H1       1.0000 0.07660  0.52030  0.65860  Biso   1.000  H
  H2       1.0000 0.78780  0.55650  0.65800  Biso   1.000  H
  H3       1.0000 0.79670  0.67040  0.59860  Biso   1.000  H
  H4       1.0000 0.28640  0.62570  0.53240  Biso   1.000  H
  H5       1.0000 0.33540  0.50600  0.58380  Biso   1.000  H
  H6       1.0000 0.92340  0.86170  0.34140  Biso   1.000  H
  H7       1.0000 0.21220  0.89850  0.34200  Biso   1.000  H
  H8       1.0000 0.20330  0.07180  0.40140  Biso   1.000  H
  H9       1.0000 0.71360  0.09330  0.46760  Biso   1.000  H
  H10      1.0000 0.66460  0.92220  0.41620  Biso   1.000  H
  H11      1.0000 0.92340  0.47970  0.34140  Biso   1.000  H
  H12      1.0000 0.21220  0.44350  0.34200  Biso   1.000  H
  H13      1.0000 0.20330  0.32960  0.40140  Biso   1.000  H
  H14      1.0000 0.71360  0.37430  0.46760  Biso   1.000  H
  H15      1.0000 0.66460  0.49400  0.41620  Biso   1.000  H
  H16      1.0000 0.07660  0.13830  0.65860  Biso   1.000  H
  H17      1.0000 0.78780  0.10150  0.65800  Biso   1.000  H
  H18      1.0000 0.79670  0.92820  0.59860  Biso   1.000  H
  H19      1.0000 0.28640  0.90670  0.53240  Biso   1.000  H
  H20      1.0000 0.33540  0.07780  0.58380  Biso   1.000  H
  C1       1.0000 0.07030  0.60417  0.63574  Biso   1.000  C
  C2       1.0000 0.85190  0.57784  0.59348  Biso   1.000  C
  C3       1.0000 0.22380  0.54401  0.54322  Biso   1.000  C
  C4       1.0000 0.14970  0.71622  0.77724  Biso   1.000  C
  C5       1.0000 0.92970  0.96843  0.36426  Biso   1.000  C
  C6       1.0000 0.14810  0.98436  0.40652  Biso   1.000  C
  C7       1.0000 0.77620  0.00079  0.45678  Biso   1.000  C
  C8       1.0000 0.85030  0.93898  0.22276  Biso   1.000  C
  C9       1.0000 0.92970  0.39583  0.36426  Biso   1.000  C
  C10      1.0000 0.14810  0.42216  0.40652  Biso   1.000  C
  C11      1.0000 0.77620  0.45599  0.45678  Biso   1.000  C
  C12      1.0000 0.85030  0.28378  0.22276  Biso   1.000  C
  C13      1.0000 0.07030  0.03157  0.63574  Biso   1.000  C
  C14      1.0000 0.85190  0.01564  0.59348  Biso   1.000  C
  C15      1.0000 0.22380  0.99921  0.54322  Biso   1.000  C
  C16      1.0000 0.14970  0.06102  0.77724  Biso   1.000  C
  O1       1.0000 0.34510  0.73959  0.80978  Biso   1.000  O
  O2       1.0000 0.01120  0.77986  0.85492  Biso   1.000  O
  O3       1.0000 0.69980  0.66494  0.93248  Biso   1.000  O
  O4       1.0000 0.65490  0.92981  0.19022  Biso   1.000  O
  O5       1.0000 0.98880  0.92494  0.14508  Biso   1.000  O
  O6       1.0000 0.30020  0.73246  0.06752  Biso   1.000  O
  O7       1.0000 0.65490  0.26041  0.19022  Biso   1.000  O
  O8       1.0000 0.98880  0.22014  0.14508  Biso   1.000  O
  O9       1.0000 0.30020  0.33506  0.06752  Biso   1.000  O
  O10      1.0000 0.34510  0.07019  0.80978  Biso   1.000  O
  O11      1.0000 0.01120  0.07506  0.85492  Biso   1.000  O
  O12      1.0000 0.69980  0.26754  0.93248  Biso   1.000  O
  O13      1.0000 0.68300  0.97101  0.94202  Biso   1.000  O
  O14      1.0000 0.31700  0.02899  0.05798  Biso   1.000  O
