data_image0
_cell_length_a       6.7802
_cell_length_b       22.0278
_cell_length_c       24.3992
_cell_angle_alpha    105.096
_cell_angle_beta     90
_cell_angle_gamma    90

_symmetry_space_group_name_H-M    P 1
_symmetry_int_tables_number       1

loop_
  _symmetry_equiv_pos_as_xyz
  'x, y, z'

loop_
  _atom_site_label
  _atom_site_occupancy
  _atom_site_fract_x
  _atom_site_fract_y
  _atom_site_fract_z
  _atom_site_thermal_displace_type
  _atom_site_B_iso_or_equiv
  _atom_site_type_symbol
  Zn1      1.0000 0.52972  0.76124  0.56330  Biso   1.000  Zn
  Zn2      1.0000 0.52504  0.73508  0.41829  Biso   1.000  Zn
  Zn3      1.0000 0.02972  0.23876  0.93670  Biso   1.000  Zn
  Zn4      1.0000 0.02504  0.26492  0.08171  Biso   1.000  Zn
  Zn5      1.0000 0.47028  0.23876  0.43670  Biso   1.000  Zn
  Zn6      1.0000 0.47496  0.26492  0.58171  Biso   1.000  Zn
  Zn7      1.0000 0.97028  0.76124  0.06330  Biso   1.000  Zn
  Zn8      1.0000 0.97496  0.73508  0.91829  Biso   1.000  Zn
  H1       1.0000 0.30910  0.59690  0.60750  Biso   1.000  H
  H2       1.0000 0.84590  0.63300  0.51620  Biso   1.000  H
  H3       1.0000 0.08490  0.90480  0.60100  Biso   1.000  H
  H4       1.0000 0.53670  0.99940  0.55710  Biso   1.000  H
  H5       1.0000 0.59150  0.80820  0.80390  Biso   1.000  H
  H6       1.0000 0.61490  0.69120  0.65260  Biso   1.000  H
  H7       1.0000 0.86870  0.67780  0.71020  Biso   1.000  H
  H8       1.0000 0.32970  0.82350  0.74830  Biso   1.000  H
  H9       1.0000 0.17370  0.63920  0.72060  Biso   1.000  H
  H10      1.0000 0.91310  0.82340  0.60650  Biso   1.000  H
  H11      1.0000 0.43970  0.62470  0.77530  Biso   1.000  H
  H12      1.0000 0.17260  0.81280  0.66240  Biso   1.000  H
  H13      1.0000 0.08010  0.13270  0.51870  Biso   1.000  H
  H14      1.0000 0.75260  0.08280  0.63900  Biso   1.000  H
  H15      1.0000 0.54510  0.16650  0.63950  Biso   1.000  H
  H16      1.0000 0.87690  0.98870  0.60420  Biso   1.000  H
  H17      1.0000 0.85860  0.21190  0.52080  Biso   1.000  H
  H18      1.0000 0.32580  0.08140  0.55410  Biso   1.000  H
  H19      1.0000 0.03420  0.41790  0.60660  Biso   1.000  H
  H20      1.0000 0.87880  0.32590  0.60810  Biso   1.000  H
  H21      1.0000 0.67970  0.54810  0.53250  Biso   1.000  H
  H22      1.0000 0.14060  0.51240  0.62430  Biso   1.000  H
  H23      1.0000 0.37130  0.38880  0.56990  Biso   1.000  H
  H24      1.0000 0.51190  0.48490  0.56840  Biso   1.000  H
  H25      1.0000 0.54000  0.78100  0.49500  Biso   1.000  H
  H26      1.0000 0.80910  0.40310  0.89250  Biso   1.000  H
  H27      1.0000 0.34590  0.36700  0.98380  Biso   1.000  H
  H28      1.0000 0.58490  0.09520  0.89900  Biso   1.000  H
  H29      1.0000 0.03670  0.00060  0.94290  Biso   1.000  H
  H30      1.0000 0.09150  0.19180  0.69610  Biso   1.000  H
  H31      1.0000 0.11490  0.30880  0.84740  Biso   1.000  H
  H32      1.0000 0.36870  0.32220  0.78980  Biso   1.000  H
  H33      1.0000 0.82970  0.17650  0.75170  Biso   1.000  H
  H34      1.0000 0.67370  0.36080  0.77940  Biso   1.000  H
  H35      1.0000 0.41310  0.17660  0.89350  Biso   1.000  H
  H36      1.0000 0.93970  0.37530  0.72470  Biso   1.000  H
  H37      1.0000 0.67260  0.18720  0.83760  Biso   1.000  H
  H38      1.0000 0.58010  0.86730  0.98130  Biso   1.000  H
  H39      1.0000 0.25260  0.91720  0.86100  Biso   1.000  H
  H40      1.0000 0.04510  0.83350  0.86050  Biso   1.000  H
  H41      1.0000 0.37690  0.01130  0.89580  Biso   1.000  H
  H42      1.0000 0.35860  0.78810  0.97920  Biso   1.000  H
  H43      1.0000 0.82580  0.91860  0.94590  Biso   1.000  H
  H44      1.0000 0.53420  0.58210  0.89340  Biso   1.000  H
  H45      1.0000 0.37880  0.67410  0.89190  Biso   1.000  H
  H46      1.0000 0.17970  0.45190  0.96750  Biso   1.000  H
  H47      1.0000 0.64060  0.48760  0.87570  Biso   1.000  H
  H48      1.0000 0.87130  0.61120  0.93010  Biso   1.000  H
  H49      1.0000 0.01190  0.51510  0.93160  Biso   1.000  H
  H50      1.0000 0.04000  0.21900  0.00500  Biso   1.000  H
  H51      1.0000 0.69090  0.40310  0.39250  Biso   1.000  H
  H52      1.0000 0.15410  0.36700  0.48380  Biso   1.000  H
  H53      1.0000 0.91510  0.09520  0.39900  Biso   1.000  H
  H54      1.0000 0.46330  0.00060  0.44290  Biso   1.000  H
  H55      1.0000 0.40850  0.19180  0.19610  Biso   1.000  H
  H56      1.0000 0.38510  0.30880  0.34740  Biso   1.000  H
  H57      1.0000 0.13130  0.32220  0.28980  Biso   1.000  H
  H58      1.0000 0.67030  0.17650  0.25170  Biso   1.000  H
  H59      1.0000 0.82630  0.36080  0.27940  Biso   1.000  H
  H60      1.0000 0.08690  0.17660  0.39350  Biso   1.000  H
  H61      1.0000 0.56030  0.37530  0.22470  Biso   1.000  H
  H62      1.0000 0.82740  0.18720  0.33760  Biso   1.000  H
  H63      1.0000 0.91990  0.86730  0.48130  Biso   1.000  H
  H64      1.0000 0.24740  0.91720  0.36100  Biso   1.000  H
  H65      1.0000 0.45490  0.83350  0.36050  Biso   1.000  H
  H66      1.0000 0.12310  0.01130  0.39580  Biso   1.000  H
  H67      1.0000 0.14140  0.78810  0.47920  Biso   1.000  H
  H68      1.0000 0.67420  0.91860  0.44590  Biso   1.000  H
  H69      1.0000 0.96580  0.58210  0.39340  Biso   1.000  H
  H70      1.0000 0.12120  0.67410  0.39190  Biso   1.000  H
  H71      1.0000 0.32030  0.45190  0.46750  Biso   1.000  H
  H72      1.0000 0.85940  0.48760  0.37570  Biso   1.000  H
  H73      1.0000 0.62870  0.61120  0.43010  Biso   1.000  H
  H74      1.0000 0.48810  0.51510  0.43160  Biso   1.000  H
  H75      1.0000 0.46000  0.21900  0.50500  Biso   1.000  H
  H76      1.0000 0.19090  0.59690  0.10750  Biso   1.000  H
  H77      1.0000 0.65410  0.63300  0.01620  Biso   1.000  H
  H78      1.0000 0.41510  0.90480  0.10100  Biso   1.000  H
  H79      1.0000 0.96330  0.99940  0.05710  Biso   1.000  H
  H80      1.0000 0.90850  0.80820  0.30390  Biso   1.000  H
  H81      1.0000 0.88510  0.69120  0.15260  Biso   1.000  H
  H82      1.0000 0.63130  0.67780  0.21020  Biso   1.000  H
  H83      1.0000 0.17030  0.82350  0.24830  Biso   1.000  H
  H84      1.0000 0.32630  0.63920  0.22060  Biso   1.000  H
  H85      1.0000 0.58690  0.82340  0.10650  Biso   1.000  H
  H86      1.0000 0.06030  0.62470  0.27530  Biso   1.000  H
  H87      1.0000 0.32740  0.81280  0.16240  Biso   1.000  H
  H88      1.0000 0.41990  0.13270  0.01870  Biso   1.000  H
  H89      1.0000 0.74740  0.08280  0.13900  Biso   1.000  H
  H90      1.0000 0.95490  0.16650  0.13950  Biso   1.000  H
  H91      1.0000 0.62310  0.98870  0.10420  Biso   1.000  H
  H92      1.0000 0.64140  0.21190  0.02080  Biso   1.000  H
  H93      1.0000 0.17420  0.08140  0.05410  Biso   1.000  H
  H94      1.0000 0.46580  0.41790  0.10660  Biso   1.000  H
  H95      1.0000 0.62120  0.32590  0.10810  Biso   1.000  H
  H96      1.0000 0.82030  0.54810  0.03250  Biso   1.000  H
  H97      1.0000 0.35940  0.51240  0.12430  Biso   1.000  H
  H98      1.0000 0.12870  0.38880  0.06990  Biso   1.000  H
  H99      1.0000 0.98810  0.48490  0.06840  Biso   1.000  H
  H100     1.0000 0.96000  0.78100  0.99500  Biso   1.000  H
  C1       1.0000 0.46630  0.88790  0.57510  Biso   1.000  C
  C2       1.0000 0.09630  0.62340  0.55990  Biso   1.000  C
  C3       1.0000 0.20340  0.67860  0.54830  Biso   1.000  C
  C4       1.0000 0.18090  0.58700  0.59210  Biso   1.000  C
  C5       1.0000 0.90680  0.60810  0.53800  Biso   1.000  C
  C6       1.0000 0.33230  0.94310  0.57810  Biso   1.000  C
  C7       1.0000 0.70080  0.70540  0.83460  Biso   1.000  C
  C8       1.0000 0.13550  0.94130  0.59200  Biso   1.000  C
  C9       1.0000 0.40080  0.99630  0.56550  Biso   1.000  C
  C10      1.0000 0.53870  0.71520  0.79600  Biso   1.000  C
  C11      1.0000 0.50650  0.77410  0.78710  Biso   1.000  C
  C12      1.0000 0.05220  0.74300  0.69250  Biso   1.000  C
  C13      1.0000 0.73070  0.71600  0.65430  Biso   1.000  C
  C14      1.0000 0.88120  0.70780  0.68870  Biso   1.000  C
  C15      1.0000 0.22180  0.73310  0.72770  Biso   1.000  C
  C16      1.0000 0.35120  0.78300  0.75390  Biso   1.000  C
  C17      1.0000 0.25780  0.67350  0.73710  Biso   1.000  C
  C18      1.0000 0.90520  0.79290  0.62760  Biso   1.000  C
  C19      1.0000 0.41480  0.66530  0.77000  Biso   1.000  C
  C20      1.0000 0.05930  0.78700  0.66080  Biso   1.000  C
  C21      1.0000 0.94360  0.09710  0.57880  Biso   1.000  C
  C22      1.0000 0.97020  0.13800  0.54360  Biso   1.000  C
  C23      1.0000 0.77910  0.10890  0.61450  Biso   1.000  C
  C24      1.0000 0.65410  0.15890  0.61420  Biso   1.000  C
  C25      1.0000 0.07880  0.04420  0.57860  Biso   1.000  C
  C26      1.0000 0.01060  0.99090  0.59330  Biso   1.000  C
  C27      1.0000 0.83770  0.18550  0.54540  Biso   1.000  C
  C28      1.0000 0.27530  0.04580  0.56460  Biso   1.000  C
  C29      1.0000 0.89700  0.41340  0.59870  Biso   1.000  C
  C30      1.0000 0.79250  0.46280  0.58580  Biso   1.000  C
  C31      1.0000 0.80310  0.35870  0.59990  Biso   1.000  C
  C32      1.0000 0.89290  0.51980  0.57940  Biso   1.000  C
  C33      1.0000 0.80840  0.55770  0.54770  Biso   1.000  C
  C34      1.0000 0.08050  0.53650  0.60170  Biso   1.000  C
  C35      1.0000 0.50800  0.39520  0.57780  Biso   1.000  C
  C36      1.0000 0.59210  0.45270  0.57620  Biso   1.000  C
  C37      1.0000 0.96630  0.11210  0.92490  Biso   1.000  C
  C38      1.0000 0.59630  0.37660  0.94010  Biso   1.000  C
  C39      1.0000 0.70340  0.32140  0.95170  Biso   1.000  C
  C40      1.0000 0.68090  0.41300  0.90790  Biso   1.000  C
  C41      1.0000 0.40680  0.39190  0.96200  Biso   1.000  C
  C42      1.0000 0.83230  0.05690  0.92190  Biso   1.000  C
  C43      1.0000 0.20080  0.29460  0.66540  Biso   1.000  C
  C44      1.0000 0.63550  0.05870  0.90800  Biso   1.000  C
  C45      1.0000 0.90080  0.00370  0.93450  Biso   1.000  C
  C46      1.0000 0.03870  0.28480  0.70400  Biso   1.000  C
  C47      1.0000 0.00650  0.22590  0.71290  Biso   1.000  C
  C48      1.0000 0.55220  0.25700  0.80750  Biso   1.000  C
  C49      1.0000 0.23070  0.28400  0.84570  Biso   1.000  C
  C50      1.0000 0.38120  0.29220  0.81130  Biso   1.000  C
  C51      1.0000 0.72180  0.26690  0.77230  Biso   1.000  C
  C52      1.0000 0.85120  0.21700  0.74610  Biso   1.000  C
  C53      1.0000 0.75780  0.32650  0.76290  Biso   1.000  C
  C54      1.0000 0.40520  0.20710  0.87240  Biso   1.000  C
  C55      1.0000 0.91480  0.33470  0.73000  Biso   1.000  C
  C56      1.0000 0.55930  0.21300  0.83920  Biso   1.000  C
  C57      1.0000 0.44360  0.90290  0.92120  Biso   1.000  C
  C58      1.0000 0.47020  0.86200  0.95640  Biso   1.000  C
  C59      1.0000 0.27910  0.89110  0.88550  Biso   1.000  C
  C60      1.0000 0.15410  0.84110  0.88580  Biso   1.000  C
  C61      1.0000 0.57880  0.95580  0.92140  Biso   1.000  C
  C62      1.0000 0.51060  0.00910  0.90670  Biso   1.000  C
  C63      1.0000 0.33770  0.81450  0.95460  Biso   1.000  C
  C64      1.0000 0.77530  0.95420  0.93540  Biso   1.000  C
  C65      1.0000 0.39700  0.58660  0.90130  Biso   1.000  C
  C66      1.0000 0.29250  0.53720  0.91420  Biso   1.000  C
  C67      1.0000 0.30310  0.64130  0.90010  Biso   1.000  C
  C68      1.0000 0.39290  0.48020  0.92060  Biso   1.000  C
  C69      1.0000 0.30840  0.44230  0.95230  Biso   1.000  C
  C70      1.0000 0.58050  0.46350  0.89830  Biso   1.000  C
  C71      1.0000 0.00800  0.60480  0.92220  Biso   1.000  C
  C72      1.0000 0.09210  0.54730  0.92380  Biso   1.000  C
  C73      1.0000 0.53370  0.11210  0.42490  Biso   1.000  C
  C74      1.0000 0.90370  0.37660  0.44010  Biso   1.000  C
  C75      1.0000 0.79660  0.32140  0.45170  Biso   1.000  C
  C76      1.0000 0.81910  0.41300  0.40790  Biso   1.000  C
  C77      1.0000 0.09320  0.39190  0.46200  Biso   1.000  C
  C78      1.0000 0.66770  0.05690  0.42190  Biso   1.000  C
  C79      1.0000 0.29920  0.29460  0.16540  Biso   1.000  C
  C80      1.0000 0.86450  0.05870  0.40800  Biso   1.000  C
  C81      1.0000 0.59920  0.00370  0.43450  Biso   1.000  C
  C82      1.0000 0.46130  0.28480  0.20400  Biso   1.000  C
  C83      1.0000 0.49350  0.22590  0.21290  Biso   1.000  C
  C84      1.0000 0.94780  0.25700  0.30750  Biso   1.000  C
  C85      1.0000 0.26930  0.28400  0.34570  Biso   1.000  C
  C86      1.0000 0.11880  0.29220  0.31130  Biso   1.000  C
  C87      1.0000 0.77820  0.26690  0.27230  Biso   1.000  C
  C88      1.0000 0.64880  0.21700  0.24610  Biso   1.000  C
  C89      1.0000 0.74220  0.32650  0.26290  Biso   1.000  C
  C90      1.0000 0.09480  0.20710  0.37240  Biso   1.000  C
  C91      1.0000 0.58520  0.33470  0.23000  Biso   1.000  C
  C92      1.0000 0.94070  0.21300  0.33920  Biso   1.000  C
  C93      1.0000 0.05640  0.90290  0.42120  Biso   1.000  C
  C94      1.0000 0.02980  0.86200  0.45640  Biso   1.000  C
  C95      1.0000 0.22090  0.89110  0.38550  Biso   1.000  C
  C96      1.0000 0.34590  0.84110  0.38580  Biso   1.000  C
  C97      1.0000 0.92120  0.95580  0.42140  Biso   1.000  C
  C98      1.0000 0.98940  0.00910  0.40670  Biso   1.000  C
  C99      1.0000 0.16230  0.81450  0.45460  Biso   1.000  C
  C100     1.0000 0.72470  0.95420  0.43540  Biso   1.000  C
  C101     1.0000 0.10300  0.58660  0.40130  Biso   1.000  C
  C102     1.0000 0.20750  0.53720  0.41420  Biso   1.000  C
  C103     1.0000 0.19690  0.64130  0.40010  Biso   1.000  C
  C104     1.0000 0.10710  0.48020  0.42060  Biso   1.000  C
  C105     1.0000 0.19160  0.44230  0.45230  Biso   1.000  C
  C106     1.0000 0.91950  0.46350  0.39830  Biso   1.000  C
  C107     1.0000 0.49200  0.60480  0.42220  Biso   1.000  C
  C108     1.0000 0.40790  0.54730  0.42380  Biso   1.000  C
  C109     1.0000 0.03370  0.88790  0.07510  Biso   1.000  C
  C110     1.0000 0.40370  0.62340  0.05990  Biso   1.000  C
  C111     1.0000 0.29660  0.67860  0.04830  Biso   1.000  C
  C112     1.0000 0.31910  0.58700  0.09210  Biso   1.000  C
  C113     1.0000 0.59320  0.60810  0.03800  Biso   1.000  C
  C114     1.0000 0.16770  0.94310  0.07810  Biso   1.000  C
  C115     1.0000 0.79920  0.70540  0.33460  Biso   1.000  C
  C116     1.0000 0.36450  0.94130  0.09200  Biso   1.000  C
  C117     1.0000 0.09920  0.99630  0.06550  Biso   1.000  C
  C118     1.0000 0.96130  0.71520  0.29600  Biso   1.000  C
  C119     1.0000 0.99350  0.77410  0.28710  Biso   1.000  C
  C120     1.0000 0.44780  0.74300  0.19250  Biso   1.000  C
  C121     1.0000 0.76930  0.71600  0.15430  Biso   1.000  C
  C122     1.0000 0.61880  0.70780  0.18870  Biso   1.000  C
  C123     1.0000 0.27820  0.73310  0.22770  Biso   1.000  C
  C124     1.0000 0.14880  0.78300  0.25390  Biso   1.000  C
  C125     1.0000 0.24220  0.67350  0.23710  Biso   1.000  C
  C126     1.0000 0.59480  0.79290  0.12760  Biso   1.000  C
  C127     1.0000 0.08520  0.66530  0.27000  Biso   1.000  C
  C128     1.0000 0.44070  0.78700  0.16080  Biso   1.000  C
  C129     1.0000 0.55640  0.09710  0.07880  Biso   1.000  C
  C130     1.0000 0.52980  0.13800  0.04360  Biso   1.000  C
  C131     1.0000 0.72090  0.10890  0.11450  Biso   1.000  C
  C132     1.0000 0.84590  0.15890  0.11420  Biso   1.000  C
  C133     1.0000 0.42120  0.04420  0.07860  Biso   1.000  C
  C134     1.0000 0.48940  0.99090  0.09330  Biso   1.000  C
  C135     1.0000 0.66230  0.18550  0.04540  Biso   1.000  C
  C136     1.0000 0.22470  0.04580  0.06460  Biso   1.000  C
  C137     1.0000 0.60300  0.41340  0.09870  Biso   1.000  C
  C138     1.0000 0.70750  0.46280  0.08580  Biso   1.000  C
  C139     1.0000 0.69690  0.35870  0.09990  Biso   1.000  C
  C140     1.0000 0.60710  0.51980  0.07940  Biso   1.000  C
  C141     1.0000 0.69160  0.55770  0.04770  Biso   1.000  C
  C142     1.0000 0.41950  0.53650  0.10170  Biso   1.000  C
  C143     1.0000 0.99200  0.39520  0.07780  Biso   1.000  C
  C144     1.0000 0.90790  0.45270  0.07620  Biso   1.000  C
  N1       1.0000 0.73990  0.75750  0.62292  Biso   1.000  N
  N2       1.0000 0.68060  0.19670  0.57978  Biso   1.000  N
  N3       1.0000 0.61080  0.34930  0.59002  Biso   1.000  N
  N4       1.0000 0.23990  0.24250  0.87708  Biso   1.000  N
  N5       1.0000 0.18060  0.80330  0.92022  Biso   1.000  N
  N6       1.0000 0.11080  0.65070  0.90998  Biso   1.000  N
  N7       1.0000 0.26010  0.24250  0.37708  Biso   1.000  N
  N8       1.0000 0.31940  0.80330  0.42022  Biso   1.000  N
  N9       1.0000 0.38920  0.65070  0.40998  Biso   1.000  N
  N10      1.0000 0.76010  0.75750  0.12292  Biso   1.000  N
  N11      1.0000 0.81940  0.19670  0.07978  Biso   1.000  N
  N12      1.0000 0.88920  0.34930  0.09002  Biso   1.000  N
  O1       1.0000 0.37340  0.68927  0.57129  Biso   1.000  O
  O2       1.0000 0.38100  0.83893  0.58191  Biso   1.000  O
  O3       1.0000 0.65850  0.74425  0.48963  Biso   1.000  O
  O4       1.0000 0.80090  0.75280  0.86038  Biso   1.000  O
  O5       1.0000 0.12330  0.71036  0.51939  Biso   1.000  O
  O6       1.0000 0.72800  0.65150  0.84090  Biso   1.000  O
  O7       1.0000 0.64380  0.89110  0.56540  Biso   1.000  O
  O8       1.0000 0.87340  0.31073  0.92871  Biso   1.000  O
  O9       1.0000 0.88100  0.16107  0.91809  Biso   1.000  O
  O10      1.0000 0.15850  0.25575  0.01037  Biso   1.000  O
  O11      1.0000 0.30090  0.24720  0.63962  Biso   1.000  O
  O12      1.0000 0.62330  0.28964  0.98061  Biso   1.000  O
  O13      1.0000 0.22800  0.34850  0.65910  Biso   1.000  O
  O14      1.0000 0.14380  0.10890  0.93460  Biso   1.000  O
  O15      1.0000 0.62660  0.31073  0.42871  Biso   1.000  O
  O16      1.0000 0.61900  0.16107  0.41809  Biso   1.000  O
  O17      1.0000 0.34150  0.25575  0.51037  Biso   1.000  O
  O18      1.0000 0.19910  0.24720  0.13962  Biso   1.000  O
  O19      1.0000 0.87670  0.28964  0.48061  Biso   1.000  O
  O20      1.0000 0.27200  0.34850  0.15910  Biso   1.000  O
  O21      1.0000 0.35620  0.10890  0.43460  Biso   1.000  O
  O22      1.0000 0.12660  0.68927  0.07129  Biso   1.000  O
  O23      1.0000 0.11900  0.83893  0.08191  Biso   1.000  O
  O24      1.0000 0.84150  0.74425  0.98963  Biso   1.000  O
  O25      1.0000 0.69910  0.75280  0.36038  Biso   1.000  O
  O26      1.0000 0.37670  0.71036  0.01939  Biso   1.000  O
  O27      1.0000 0.77200  0.65150  0.34090  Biso   1.000  O
  O28      1.0000 0.85620  0.89110  0.06540  Biso   1.000  O
