data_image0
_cell_length_a       13.678
_cell_length_b       10.318
_cell_length_c       17.357
_cell_angle_alpha    90
_cell_angle_beta     90
_cell_angle_gamma    90

_symmetry_space_group_name_H-M    "P 1"
_symmetry_int_tables_number       1

loop_
  _symmetry_equiv_pos_as_xyz
  'x, y, z'

loop_
  _atom_site_label
  _atom_site_occupancy
  _atom_site_fract_x
  _atom_site_fract_y
  _atom_site_fract_z
  _atom_site_thermal_displace_type
  _atom_site_B_iso_or_equiv
  _atom_site_type_symbol
  P1       1.0000 0.93297  0.63141  0.42190  Biso   1.000  P
  P2       1.0000 0.96420  0.12616  0.33245  Biso   1.000  P
  P3       1.0000 0.25318  0.37177  0.29446  Biso   1.000  P
  Al1      1.0000 0.06149  0.37418  0.39302  Biso   1.000  Al
  Al2      1.0000 0.98219  0.32760  0.19928  Biso   1.000  Al
  Al3      1.0000 0.73927  0.12920  0.30503  Biso   1.000  Al
  O1       1.0000 0.01260  0.40310  0.29170  Biso   1.000  O
  O2       1.0000 0.85370  0.13550  0.34750  Biso   1.000  O
  O3       1.0000 0.01280  0.21410  0.39224  Biso   1.000  O
  O4       1.0000 0.35320  0.32260  0.31750  Biso   1.000  O
  O5       1.0000 0.18810  0.37030  0.36510  Biso   1.000  O
  O6       1.0000 0.84280  0.58540  0.37680  Biso   1.000  O
  O7       1.0000 0.01260  0.52960  0.41620  Biso   1.000  O
  O8       1.0000 0.90230  0.65230  0.50490  Biso   1.000  O
  O9       1.0000 0.96750  0.75900  0.38800  Biso   1.000  O
  O10      1.0000 0.99840  0.98910  0.34710  Biso   1.000  O
  O11      1.0000 0.20940  0.28250  0.23180  Biso   1.000  O
  O12      1.0000 0.26030  0.51010  0.26490  Biso   1.000  O
  O13      1.0000 0.98900  0.16700  0.24970  Biso   1.000  O
  P4       1.0000 0.56703  0.36859  0.92190  Biso   1.000  P
  P5       1.0000 0.53580  0.87384  0.83245  Biso   1.000  P
  P6       1.0000 0.24682  0.62823  0.79446  Biso   1.000  P
  Al4      1.0000 0.43851  0.62582  0.89302  Biso   1.000  Al
  Al5      1.0000 0.51781  0.67240  0.69928  Biso   1.000  Al
  Al6      1.0000 0.76073  0.87080  0.80503  Biso   1.000  Al
  O14      1.0000 0.48740  0.59690  0.79170  Biso   1.000  O
  O15      1.0000 0.64630  0.86450  0.84750  Biso   1.000  O
  O16      1.0000 0.48720  0.78590  0.89224  Biso   1.000  O
  O17      1.0000 0.14680  0.67740  0.81750  Biso   1.000  O
  O18      1.0000 0.31190  0.62970  0.86510  Biso   1.000  O
  O19      1.0000 0.65720  0.41460  0.87680  Biso   1.000  O
  O20      1.0000 0.48740  0.47040  0.91620  Biso   1.000  O
  O21      1.0000 0.59770  0.34770  0.00490  Biso   1.000  O
  O22      1.0000 0.53250  0.24100  0.88800  Biso   1.000  O
  O23      1.0000 0.50160  0.01090  0.84710  Biso   1.000  O
  O24      1.0000 0.29060  0.71750  0.73180  Biso   1.000  O
  O25      1.0000 0.23970  0.48990  0.76490  Biso   1.000  O
  O26      1.0000 0.51100  0.83300  0.74970  Biso   1.000  O
  P7       1.0000 0.06703  0.13141  0.07810  Biso   1.000  P
  P8       1.0000 0.03580  0.62616  0.16755  Biso   1.000  P
  P9       1.0000 0.74682  0.87177  0.20554  Biso   1.000  P
  Al7      1.0000 0.93851  0.87418  0.10698  Biso   1.000  Al
  Al8      1.0000 0.01781  0.82760  0.30072  Biso   1.000  Al
  Al9      1.0000 0.26073  0.62920  0.19497  Biso   1.000  Al
  O27      1.0000 0.98740  0.90310  0.20830  Biso   1.000  O
  O28      1.0000 0.14630  0.63550  0.15250  Biso   1.000  O
  O29      1.0000 0.98720  0.71410  0.10776  Biso   1.000  O
  O30      1.0000 0.64680  0.82260  0.18250  Biso   1.000  O
  O31      1.0000 0.81190  0.87030  0.13490  Biso   1.000  O
  O32      1.0000 0.15720  0.08540  0.12320  Biso   1.000  O
  O33      1.0000 0.98740  0.02960  0.08380  Biso   1.000  O
  O34      1.0000 0.09770  0.15230  0.99510  Biso   1.000  O
  O35      1.0000 0.03250  0.25900  0.11200  Biso   1.000  O
  O36      1.0000 0.00160  0.48910  0.15290  Biso   1.000  O
  O37      1.0000 0.79060  0.78250  0.26820  Biso   1.000  O
  O38      1.0000 0.73970  0.01010  0.23510  Biso   1.000  O
  O39      1.0000 0.01100  0.66700  0.25030  Biso   1.000  O
  P10      1.0000 0.43297  0.86859  0.57810  Biso   1.000  P
  P11      1.0000 0.46420  0.37384  0.66755  Biso   1.000  P
  P12      1.0000 0.75318  0.12823  0.70554  Biso   1.000  P
  Al10     1.0000 0.56149  0.12582  0.60698  Biso   1.000  Al
  Al11     1.0000 0.48219  0.17240  0.80072  Biso   1.000  Al
  Al12     1.0000 0.23927  0.37080  0.69497  Biso   1.000  Al
  O40      1.0000 0.51260  0.09690  0.70830  Biso   1.000  O
  O41      1.0000 0.35370  0.36450  0.65250  Biso   1.000  O
  O42      1.0000 0.51280  0.28590  0.60776  Biso   1.000  O
  O43      1.0000 0.85320  0.17740  0.68250  Biso   1.000  O
  O44      1.0000 0.68810  0.12970  0.63490  Biso   1.000  O
  O45      1.0000 0.34280  0.91460  0.62320  Biso   1.000  O
  O46      1.0000 0.51260  0.97040  0.58380  Biso   1.000  O
  O47      1.0000 0.40230  0.84770  0.49510  Biso   1.000  O
  O48      1.0000 0.46750  0.74100  0.61200  Biso   1.000  O
  O49      1.0000 0.49840  0.51090  0.65290  Biso   1.000  O
  O50      1.0000 0.70940  0.21750  0.76820  Biso   1.000  O
  O51      1.0000 0.76030  0.98990  0.73510  Biso   1.000  O
  O52      1.0000 0.48900  0.33300  0.75030  Biso   1.000  O
  P13      1.0000 0.06703  0.36859  0.57810  Biso   1.000  P
  P14      1.0000 0.03580  0.87384  0.66755  Biso   1.000  P
  P15      1.0000 0.74682  0.62823  0.70554  Biso   1.000  P
  Al13     1.0000 0.93851  0.62582  0.60698  Biso   1.000  Al
  Al14     1.0000 0.01781  0.67240  0.80072  Biso   1.000  Al
  Al15     1.0000 0.26073  0.87080  0.69497  Biso   1.000  Al
  O53      1.0000 0.98740  0.59690  0.70830  Biso   1.000  O
  O54      1.0000 0.14630  0.86450  0.65250  Biso   1.000  O
  O55      1.0000 0.98720  0.78590  0.60776  Biso   1.000  O
  O56      1.0000 0.64680  0.67740  0.68250  Biso   1.000  O
  O57      1.0000 0.81190  0.62970  0.63490  Biso   1.000  O
  O58      1.0000 0.15720  0.41460  0.62320  Biso   1.000  O
  O59      1.0000 0.98740  0.47040  0.58380  Biso   1.000  O
  O60      1.0000 0.09770  0.34770  0.49510  Biso   1.000  O
  O61      1.0000 0.03250  0.24100  0.61200  Biso   1.000  O
  O62      1.0000 0.00160  0.01090  0.65290  Biso   1.000  O
  O63      1.0000 0.79060  0.71750  0.76820  Biso   1.000  O
  O64      1.0000 0.73970  0.48990  0.73510  Biso   1.000  O
  O65      1.0000 0.01100  0.83300  0.75030  Biso   1.000  O
  P16      1.0000 0.43297  0.63141  0.07810  Biso   1.000  P
  P17      1.0000 0.46420  0.12616  0.16755  Biso   1.000  P
  P18      1.0000 0.75318  0.37177  0.20554  Biso   1.000  P
  Al16     1.0000 0.56149  0.37418  0.10698  Biso   1.000  Al
  Al17     1.0000 0.48219  0.32760  0.30072  Biso   1.000  Al
  Al18     1.0000 0.23927  0.12920  0.19497  Biso   1.000  Al
  O66      1.0000 0.51260  0.40310  0.20830  Biso   1.000  O
  O67      1.0000 0.35370  0.13550  0.15250  Biso   1.000  O
  O68      1.0000 0.51280  0.21410  0.10776  Biso   1.000  O
  O69      1.0000 0.85320  0.32260  0.18250  Biso   1.000  O
  O70      1.0000 0.68810  0.37030  0.13490  Biso   1.000  O
  O71      1.0000 0.34280  0.58540  0.12320  Biso   1.000  O
  O72      1.0000 0.51260  0.52960  0.08380  Biso   1.000  O
  O73      1.0000 0.40230  0.65230  0.99510  Biso   1.000  O
  O74      1.0000 0.46750  0.75900  0.11200  Biso   1.000  O
  O75      1.0000 0.49840  0.98910  0.15290  Biso   1.000  O
  O76      1.0000 0.70940  0.28250  0.26820  Biso   1.000  O
  O77      1.0000 0.76030  0.51010  0.23510  Biso   1.000  O
  O78      1.0000 0.48900  0.16700  0.25030  Biso   1.000  O
  P19      1.0000 0.93297  0.86859  0.92190  Biso   1.000  P
  P20      1.0000 0.96420  0.37384  0.83245  Biso   1.000  P
  P21      1.0000 0.25318  0.12823  0.79446  Biso   1.000  P
  Al19     1.0000 0.06149  0.12582  0.89302  Biso   1.000  Al
  Al20     1.0000 0.98219  0.17240  0.69928  Biso   1.000  Al
  Al21     1.0000 0.73927  0.37080  0.80503  Biso   1.000  Al
  O79      1.0000 0.01260  0.09690  0.79170  Biso   1.000  O
  O80      1.0000 0.85370  0.36450  0.84750  Biso   1.000  O
  O81      1.0000 0.01280  0.28590  0.89224  Biso   1.000  O
  O82      1.0000 0.35320  0.17740  0.81750  Biso   1.000  O
  O83      1.0000 0.18810  0.12970  0.86510  Biso   1.000  O
  O84      1.0000 0.84280  0.91460  0.87680  Biso   1.000  O
  O85      1.0000 0.01260  0.97040  0.91620  Biso   1.000  O
  O86      1.0000 0.90230  0.84770  0.00490  Biso   1.000  O
  O87      1.0000 0.96750  0.74100  0.88800  Biso   1.000  O
  O88      1.0000 0.99840  0.51090  0.84710  Biso   1.000  O
  O89      1.0000 0.20940  0.21750  0.73180  Biso   1.000  O
  O90      1.0000 0.26030  0.98990  0.76490  Biso   1.000  O
  O91      1.0000 0.98900  0.33300  0.74970  Biso   1.000  O
  P22      1.0000 0.56703  0.13141  0.42190  Biso   1.000  P
  P23      1.0000 0.53580  0.62616  0.33245  Biso   1.000  P
  P24      1.0000 0.24682  0.87177  0.29446  Biso   1.000  P
  Al22     1.0000 0.43851  0.87418  0.39302  Biso   1.000  Al
  Al23     1.0000 0.51781  0.82760  0.19928  Biso   1.000  Al
  Al24     1.0000 0.76073  0.62920  0.30503  Biso   1.000  Al
  O92      1.0000 0.48740  0.90310  0.29170  Biso   1.000  O
  O93      1.0000 0.64630  0.63550  0.34750  Biso   1.000  O
  O94      1.0000 0.48720  0.71410  0.39224  Biso   1.000  O
  O95      1.0000 0.14680  0.82260  0.31750  Biso   1.000  O
  O96      1.0000 0.31190  0.87030  0.36510  Biso   1.000  O
  O97      1.0000 0.65720  0.08540  0.37680  Biso   1.000  O
  O98      1.0000 0.48740  0.02960  0.41620  Biso   1.000  O
  O99      1.0000 0.59770  0.15230  0.50490  Biso   1.000  O
  O100     1.0000 0.53250  0.25900  0.38800  Biso   1.000  O
  O101     1.0000 0.50160  0.48910  0.34710  Biso   1.000  O
  O102     1.0000 0.29060  0.78250  0.23180  Biso   1.000  O
  O103     1.0000 0.23970  0.01010  0.26490  Biso   1.000  O
  O104     1.0000 0.51100  0.66700  0.24970  Biso   1.000  O
