data_image0
_cell_length_a       12.389
_cell_length_b       13.259
_cell_length_c       14.146
_cell_angle_alpha    90
_cell_angle_beta     90
_cell_angle_gamma    112.676

_symmetry_space_group_name_H-M    P 1
_symmetry_int_tables_number       1

loop_
  _symmetry_equiv_pos_as_xyz
  'x, y, z'

loop_
  _atom_site_label
  _atom_site_occupancy
  _atom_site_fract_x
  _atom_site_fract_y
  _atom_site_fract_z
  _atom_site_thermal_displace_type
  _atom_site_B_iso_or_equiv
  _atom_site_type_symbol
  Cu1      1.0000 0.16466  0.42159  0.59262  Biso   1.000  Cu
  Cu2      1.0000 0.52629  0.09291  0.93184  Biso   1.000  Cu
  Cu3      1.0000 0.33534  0.07841  0.09262  Biso   1.000  Cu
  Cu4      1.0000 0.97371  0.40709  0.43184  Biso   1.000  Cu
  Cu5      1.0000 0.83534  0.57841  0.40738  Biso   1.000  Cu
  Cu6      1.0000 0.47371  0.90709  0.06816  Biso   1.000  Cu
  Cu7      1.0000 0.66466  0.92159  0.90738  Biso   1.000  Cu
  Cu8      1.0000 0.02629  0.59291  0.56816  Biso   1.000  Cu
  H1       1.0000 0.56670  0.07630  0.73010  Biso   1.000  H
  H2       1.0000 0.70610  0.14890  0.61750  Biso   1.000  H
  H3       1.0000 0.91550  0.33890  0.81640  Biso   1.000  H
  H4       1.0000 0.76990  0.25890  0.92530  Biso   1.000  H
  H5       1.0000 0.31320  0.29700  0.60030  Biso   1.000  H
  H6       1.0000 0.38710  0.20890  0.70550  Biso   1.000  H
  H7       1.0000 0.21770  0.29520  0.91070  Biso   1.000  H
  H8       1.0000 0.14680  0.37710  0.79870  Biso   1.000  H
  H9       1.0000 0.37580  0.66790  0.39010  Biso   1.000  H
  H10      1.0000 0.26610  0.63620  0.45620  Biso   1.000  H
  H11      1.0000 0.28370  0.54720  0.39230  Biso   1.000  H
  H12      1.0000 0.43690  0.55690  0.47280  Biso   1.000  H
  H13      1.0000 0.43510  0.65610  0.53040  Biso   1.000  H
  H14      1.0000 0.93330  0.42370  0.23010  Biso   1.000  H
  H15      1.0000 0.79390  0.35110  0.11750  Biso   1.000  H
  H16      1.0000 0.58450  0.16110  0.31640  Biso   1.000  H
  H17      1.0000 0.73010  0.24110  0.42530  Biso   1.000  H
  H18      1.0000 0.18680  0.20300  0.10030  Biso   1.000  H
  H19      1.0000 0.11290  0.29110  0.20550  Biso   1.000  H
  H20      1.0000 0.28230  0.20480  0.41070  Biso   1.000  H
  H21      1.0000 0.35320  0.12290  0.29870  Biso   1.000  H
  H22      1.0000 0.12420  0.83210  0.89010  Biso   1.000  H
  H23      1.0000 0.23390  0.86380  0.95620  Biso   1.000  H
  H24      1.0000 0.21630  0.95280  0.89230  Biso   1.000  H
  H25      1.0000 0.06310  0.94310  0.97280  Biso   1.000  H
  H26      1.0000 0.06490  0.84390  0.03040  Biso   1.000  H
  H27      1.0000 0.43330  0.92370  0.26990  Biso   1.000  H
  H28      1.0000 0.29390  0.85110  0.38250  Biso   1.000  H
  H29      1.0000 0.08450  0.66110  0.18360  Biso   1.000  H
  H30      1.0000 0.23010  0.74110  0.07470  Biso   1.000  H
  H31      1.0000 0.68680  0.70300  0.39970  Biso   1.000  H
  H32      1.0000 0.61290  0.79110  0.29450  Biso   1.000  H
  H33      1.0000 0.78230  0.70480  0.08930  Biso   1.000  H
  H34      1.0000 0.85320  0.62290  0.20130  Biso   1.000  H
  H35      1.0000 0.62420  0.33210  0.60990  Biso   1.000  H
  H36      1.0000 0.73390  0.36380  0.54380  Biso   1.000  H
  H37      1.0000 0.71630  0.45280  0.60770  Biso   1.000  H
  H38      1.0000 0.56310  0.44310  0.52720  Biso   1.000  H
  H39      1.0000 0.56490  0.34390  0.46960  Biso   1.000  H
  H40      1.0000 0.06670  0.57630  0.76990  Biso   1.000  H
  H41      1.0000 0.20610  0.64890  0.88250  Biso   1.000  H
  H42      1.0000 0.41550  0.83890  0.68360  Biso   1.000  H
  H43      1.0000 0.26990  0.75890  0.57470  Biso   1.000  H
  H44      1.0000 0.81320  0.79700  0.89970  Biso   1.000  H
  H45      1.0000 0.88710  0.70890  0.79450  Biso   1.000  H
  H46      1.0000 0.71770  0.79520  0.58930  Biso   1.000  H
  H47      1.0000 0.64680  0.87710  0.70130  Biso   1.000  H
  H48      1.0000 0.87580  0.16790  0.10990  Biso   1.000  H
  H49      1.0000 0.76610  0.13620  0.04380  Biso   1.000  H
  H50      1.0000 0.78370  0.04720  0.10770  Biso   1.000  H
  H51      1.0000 0.93690  0.05690  0.02720  Biso   1.000  H
  H52      1.0000 0.93510  0.15610  0.96960  Biso   1.000  H
  C1       1.0000 0.63820  0.12990  0.74740  Biso   1.000  C
  C2       1.0000 0.72080  0.17340  0.67960  Biso   1.000  C
  C3       1.0000 0.82560  0.25340  0.70360  Biso   1.000  C
  C4       1.0000 0.84460  0.28550  0.79750  Biso   1.000  C
  C5       1.0000 0.75660  0.23700  0.86250  Biso   1.000  C
  C6       1.0000 0.91990  0.30520  0.62944  Biso   1.000  C
  C7       1.0000 0.29260  0.29540  0.66370  Biso   1.000  C
  C8       1.0000 0.33870  0.24310  0.72660  Biso   1.000  C
  C9       1.0000 0.31180  0.24230  0.82080  Biso   1.000  C
  C10      1.0000 0.23810  0.29380  0.84760  Biso   1.000  C
  C11      1.0000 0.19580  0.34260  0.77980  Biso   1.000  C
  C12      1.0000 0.36170  0.18970  0.89390  Biso   1.000  C
  C13      1.0000 0.32280  0.61150  0.42950  Biso   1.000  C
  C14      1.0000 0.38540  0.58710  0.50230  Biso   1.000  C
  C15      1.0000 0.86180  0.37010  0.24740  Biso   1.000  C
  C16      1.0000 0.77920  0.32660  0.17960  Biso   1.000  C
  C17      1.0000 0.67440  0.24660  0.20360  Biso   1.000  C
  C18      1.0000 0.65540  0.21450  0.29750  Biso   1.000  C
  C19      1.0000 0.74340  0.26300  0.36250  Biso   1.000  C
  C20      1.0000 0.58010  0.19480  0.12944  Biso   1.000  C
  C21      1.0000 0.20740  0.20460  0.16370  Biso   1.000  C
  C22      1.0000 0.16130  0.25690  0.22660  Biso   1.000  C
  C23      1.0000 0.18820  0.25770  0.32080  Biso   1.000  C
  C24      1.0000 0.26190  0.20620  0.34760  Biso   1.000  C
  C25      1.0000 0.30420  0.15740  0.27980  Biso   1.000  C
  C26      1.0000 0.13830  0.31030  0.39390  Biso   1.000  C
  C27      1.0000 0.17720  0.88850  0.92950  Biso   1.000  C
  C28      1.0000 0.11460  0.91290  0.00230  Biso   1.000  C
  C29      1.0000 0.36180  0.87010  0.25260  Biso   1.000  C
  C30      1.0000 0.27920  0.82660  0.32040  Biso   1.000  C
  C31      1.0000 0.17440  0.74660  0.29640  Biso   1.000  C
  C32      1.0000 0.15540  0.71450  0.20250  Biso   1.000  C
  C33      1.0000 0.24340  0.76300  0.13750  Biso   1.000  C
  C34      1.0000 0.08010  0.69480  0.37056  Biso   1.000  C
  C35      1.0000 0.70740  0.70460  0.33630  Biso   1.000  C
  C36      1.0000 0.66130  0.75690  0.27340  Biso   1.000  C
  C37      1.0000 0.68820  0.75770  0.17920  Biso   1.000  C
  C38      1.0000 0.76190  0.70620  0.15240  Biso   1.000  C
  C39      1.0000 0.80420  0.65740  0.22020  Biso   1.000  C
  C40      1.0000 0.63830  0.81030  0.10610  Biso   1.000  C
  C41      1.0000 0.67720  0.38850  0.57050  Biso   1.000  C
  C42      1.0000 0.61460  0.41290  0.49770  Biso   1.000  C
  C43      1.0000 0.13820  0.62990  0.75260  Biso   1.000  C
  C44      1.0000 0.22080  0.67340  0.82040  Biso   1.000  C
  C45      1.0000 0.32560  0.75340  0.79640  Biso   1.000  C
  C46      1.0000 0.34460  0.78550  0.70250  Biso   1.000  C
  C47      1.0000 0.25660  0.73700  0.63750  Biso   1.000  C
  C48      1.0000 0.41990  0.80520  0.87056  Biso   1.000  C
  C49      1.0000 0.79260  0.79540  0.83630  Biso   1.000  C
  C50      1.0000 0.83870  0.74310  0.77340  Biso   1.000  C
  C51      1.0000 0.81180  0.74230  0.67920  Biso   1.000  C
  C52      1.0000 0.73810  0.79380  0.65240  Biso   1.000  C
  C53      1.0000 0.69580  0.84260  0.72020  Biso   1.000  C
  C54      1.0000 0.86170  0.68970  0.60610  Biso   1.000  C
  C55      1.0000 0.82280  0.11150  0.07050  Biso   1.000  C
  C56      1.0000 0.88540  0.08710  0.99770  Biso   1.000  C
  N1       1.0000 0.65530  0.16136  0.83954  Biso   1.000  N
  N2       1.0000 0.22100  0.34330  0.68816  Biso   1.000  N
  N3       1.0000 0.84470  0.33864  0.33954  Biso   1.000  N
  N4       1.0000 0.27900  0.15670  0.18816  Biso   1.000  N
  N5       1.0000 0.34470  0.83864  0.16046  Biso   1.000  N
  N6       1.0000 0.77900  0.65670  0.31184  Biso   1.000  N
  N7       1.0000 0.15530  0.66136  0.66046  Biso   1.000  N
  N8       1.0000 0.72100  0.84330  0.81184  Biso   1.000  N
  O1       1.0000 0.01664  0.37684  0.66159  Biso   1.000  O
  O2       1.0000 0.89859  0.28079  0.54633  Biso   1.000  O
  O3       1.0000 0.33420  0.19025  0.97758  Biso   1.000  O
  O4       1.0000 0.43077  0.14826  0.85972  Biso   1.000  O
  O5       1.0000 0.10859  0.50698  0.50653  Biso   1.000  O
  O6       1.0000 0.33120  0.51990  0.57384  Biso   1.000  O
  O7       1.0000 0.48336  0.12316  0.16159  Biso   1.000  O
  O8       1.0000 0.60141  0.21921  0.04633  Biso   1.000  O
  O9       1.0000 0.16580  0.30975  0.47758  Biso   1.000  O
  O10      1.0000 0.06923  0.35174  0.35972  Biso   1.000  O
  O11      1.0000 0.39141  0.99302  0.00653  Biso   1.000  O
  O12      1.0000 0.16880  0.98010  0.07384  Biso   1.000  O
  O13      1.0000 0.98336  0.62316  0.33841  Biso   1.000  O
  O14      1.0000 0.10141  0.71921  0.45367  Biso   1.000  O
  O15      1.0000 0.66580  0.80975  0.02242  Biso   1.000  O
  O16      1.0000 0.56923  0.85174  0.14028  Biso   1.000  O
  O17      1.0000 0.89141  0.49302  0.49347  Biso   1.000  O
  O18      1.0000 0.66880  0.48010  0.42616  Biso   1.000  O
  O19      1.0000 0.51664  0.87684  0.83841  Biso   1.000  O
  O20      1.0000 0.39859  0.78079  0.95367  Biso   1.000  O
  O21      1.0000 0.83420  0.69025  0.52242  Biso   1.000  O
  O22      1.0000 0.93077  0.64826  0.64028  Biso   1.000  O
  O23      1.0000 0.60859  0.00698  0.99347  Biso   1.000  O
  O24      1.0000 0.83120  0.01990  0.92616  Biso   1.000  O
