data_image0
_cell_length_a       12.741
_cell_length_b       12.068
_cell_length_c       11.988
_cell_angle_alpha    90
_cell_angle_beta     94.902
_cell_angle_gamma    90

_symmetry_space_group_name_H-M    "P 1"
_symmetry_int_tables_number       1

loop_
  _symmetry_equiv_pos_as_xyz
  'x, y, z'

loop_
  _atom_site_label
  _atom_site_occupancy
  _atom_site_fract_x
  _atom_site_fract_y
  _atom_site_fract_z
  _atom_site_thermal_displace_type
  _atom_site_B_iso_or_equiv
  _atom_site_type_symbol
  Ga1      1.0000 0.24672  0.95967  0.20602  Biso   1.000  Ga
  P1       1.0000 0.20215  0.22384  0.17758  Biso   1.000  P
  P2       1.0000 0.17271  0.02016  0.44609  Biso   1.000  P
  F1       1.0000 0.09250  0.97280  0.20260  Biso   1.000  F
  F2       1.0000 0.39340  0.95380  0.20560  Biso   1.000  F
  O1       1.0000 0.26400  0.11740  0.16870  Biso   1.000  O
  O2       1.0000 0.22440  0.08060  0.54760  Biso   1.000  O
  O3       1.0000 0.25430  0.99430  0.36470  Biso   1.000  O
  O4       1.0000 0.07950  0.08680  0.39490  Biso   1.000  O
  O5       1.0000 0.08760  0.20440  0.19300  Biso   1.000  O
  O6       1.0000 0.25810  0.30120  0.26360  Biso   1.000  O
  H1       1.0000 0.13800  0.92300  0.48000  Biso   1.000  H
  H2       1.0000 0.20100  0.27600  0.07900  Biso   1.000  H
  Ga2      1.0000 0.74672  0.45967  0.20602  Biso   1.000  Ga
  P3       1.0000 0.70215  0.72384  0.17758  Biso   1.000  P
  P4       1.0000 0.67271  0.52016  0.44609  Biso   1.000  P
  F3       1.0000 0.59250  0.47280  0.20260  Biso   1.000  F
  F4       1.0000 0.89340  0.45380  0.20560  Biso   1.000  F
  O7       1.0000 0.76400  0.61740  0.16870  Biso   1.000  O
  O8       1.0000 0.72440  0.58060  0.54760  Biso   1.000  O
  O9       1.0000 0.75430  0.49430  0.36470  Biso   1.000  O
  O10      1.0000 0.57950  0.58680  0.39490  Biso   1.000  O
  O11      1.0000 0.58760  0.70440  0.19300  Biso   1.000  O
  O12      1.0000 0.75810  0.80120  0.26360  Biso   1.000  O
  H3       1.0000 0.63800  0.42300  0.48000  Biso   1.000  H
  H4       1.0000 0.70100  0.77600  0.07900  Biso   1.000  H
  Ga3      1.0000 0.75328  0.95967  0.29398  Biso   1.000  Ga
  P5       1.0000 0.79785  0.22384  0.32242  Biso   1.000  P
  P6       1.0000 0.82729  0.02016  0.05391  Biso   1.000  P
  F5       1.0000 0.90750  0.97280  0.29740  Biso   1.000  F
  F6       1.0000 0.60660  0.95380  0.29440  Biso   1.000  F
  O13      1.0000 0.73600  0.11740  0.33130  Biso   1.000  O
  O14      1.0000 0.77560  0.08060  0.95240  Biso   1.000  O
  O15      1.0000 0.74570  0.99430  0.13530  Biso   1.000  O
  O16      1.0000 0.92050  0.08680  0.10510  Biso   1.000  O
  O17      1.0000 0.91240  0.20440  0.30700  Biso   1.000  O
  O18      1.0000 0.74190  0.30120  0.23640  Biso   1.000  O
  H5       1.0000 0.86200  0.92300  0.02000  Biso   1.000  H
  H6       1.0000 0.79900  0.27600  0.42100  Biso   1.000  H
  Ga4      1.0000 0.25328  0.45967  0.29398  Biso   1.000  Ga
  P7       1.0000 0.29785  0.72384  0.32242  Biso   1.000  P
  P8       1.0000 0.32729  0.52016  0.05391  Biso   1.000  P
  F7       1.0000 0.40750  0.47280  0.29740  Biso   1.000  F
  F8       1.0000 0.10660  0.45380  0.29440  Biso   1.000  F
  O19      1.0000 0.23600  0.61740  0.33130  Biso   1.000  O
  O20      1.0000 0.27560  0.58060  0.95240  Biso   1.000  O
  O21      1.0000 0.24570  0.49430  0.13530  Biso   1.000  O
  O22      1.0000 0.42050  0.58680  0.10510  Biso   1.000  O
  O23      1.0000 0.41240  0.70440  0.30700  Biso   1.000  O
  O24      1.0000 0.24190  0.80120  0.23640  Biso   1.000  O
  H7       1.0000 0.36200  0.42300  0.02000  Biso   1.000  H
  H8       1.0000 0.29900  0.77600  0.42100  Biso   1.000  H
  Ga5      1.0000 0.75328  0.04033  0.79398  Biso   1.000  Ga
  P9       1.0000 0.79785  0.77616  0.82242  Biso   1.000  P
  P10      1.0000 0.82729  0.97984  0.55391  Biso   1.000  P
  F9       1.0000 0.90750  0.02720  0.79740  Biso   1.000  F
  F10      1.0000 0.60660  0.04620  0.79440  Biso   1.000  F
  O25      1.0000 0.73600  0.88260  0.83130  Biso   1.000  O
  O26      1.0000 0.77560  0.91940  0.45240  Biso   1.000  O
  O27      1.0000 0.74570  0.00570  0.63530  Biso   1.000  O
  O28      1.0000 0.92050  0.91320  0.60510  Biso   1.000  O
  O29      1.0000 0.91240  0.79560  0.80700  Biso   1.000  O
  O30      1.0000 0.74190  0.69880  0.73640  Biso   1.000  O
  H9       1.0000 0.86200  0.07700  0.52000  Biso   1.000  H
  H10      1.0000 0.79900  0.72400  0.92100  Biso   1.000  H
  Ga6      1.0000 0.25328  0.54033  0.79398  Biso   1.000  Ga
  P11      1.0000 0.29785  0.27616  0.82242  Biso   1.000  P
  P12      1.0000 0.32729  0.47984  0.55391  Biso   1.000  P
  F11      1.0000 0.40750  0.52720  0.79740  Biso   1.000  F
  F12      1.0000 0.10660  0.54620  0.79440  Biso   1.000  F
  O31      1.0000 0.23600  0.38260  0.83130  Biso   1.000  O
  O32      1.0000 0.27560  0.41940  0.45240  Biso   1.000  O
  O33      1.0000 0.24570  0.50570  0.63530  Biso   1.000  O
  O34      1.0000 0.42050  0.41320  0.60510  Biso   1.000  O
  O35      1.0000 0.41240  0.29560  0.80700  Biso   1.000  O
  O36      1.0000 0.24190  0.19880  0.73640  Biso   1.000  O
  H11      1.0000 0.36200  0.57700  0.52000  Biso   1.000  H
  H12      1.0000 0.29900  0.22400  0.92100  Biso   1.000  H
  Ga7      1.0000 0.24672  0.04033  0.70602  Biso   1.000  Ga
  P13      1.0000 0.20215  0.77616  0.67758  Biso   1.000  P
  P14      1.0000 0.17271  0.97984  0.94609  Biso   1.000  P
  F13      1.0000 0.09250  0.02720  0.70260  Biso   1.000  F
  F14      1.0000 0.39340  0.04620  0.70560  Biso   1.000  F
  O37      1.0000 0.26400  0.88260  0.66870  Biso   1.000  O
  O38      1.0000 0.22440  0.91940  0.04760  Biso   1.000  O
  O39      1.0000 0.25430  0.00570  0.86470  Biso   1.000  O
  O40      1.0000 0.07950  0.91320  0.89490  Biso   1.000  O
  O41      1.0000 0.08760  0.79560  0.69300  Biso   1.000  O
  O42      1.0000 0.25810  0.69880  0.76360  Biso   1.000  O
  H13      1.0000 0.13800  0.07700  0.98000  Biso   1.000  H
  H14      1.0000 0.20100  0.72400  0.57900  Biso   1.000  H
  Ga8      1.0000 0.74672  0.54033  0.70602  Biso   1.000  Ga
  P15      1.0000 0.70215  0.27616  0.67758  Biso   1.000  P
  P16      1.0000 0.67271  0.47984  0.94609  Biso   1.000  P
  F15      1.0000 0.59250  0.52720  0.70260  Biso   1.000  F
  F16      1.0000 0.89340  0.54620  0.70560  Biso   1.000  F
  O43      1.0000 0.76400  0.38260  0.66870  Biso   1.000  O
  O44      1.0000 0.72440  0.41940  0.04760  Biso   1.000  O
  O45      1.0000 0.75430  0.50570  0.86470  Biso   1.000  O
  O46      1.0000 0.57950  0.41320  0.89490  Biso   1.000  O
  O47      1.0000 0.58760  0.29560  0.69300  Biso   1.000  O
  O48      1.0000 0.75810  0.19880  0.76360  Biso   1.000  O
  H15      1.0000 0.63800  0.57700  0.98000  Biso   1.000  H
  H16      1.0000 0.70100  0.22400  0.57900  Biso   1.000  H
  Ga9      1.0000 0.00000  0.08896  0.25000  Biso   1.000  Ga
  Ga10     1.0000 0.50000  0.58896  0.25000  Biso   1.000  Ga
  Ga11     1.0000 0.00000  0.91104  0.75000  Biso   1.000  Ga
  Ga12     1.0000 0.50000  0.41104  0.75000  Biso   1.000  Ga
