data_image0
_cell_length_a       8.303
_cell_length_b       8.303
_cell_length_c       20.334
_cell_angle_alpha    90
_cell_angle_beta     90
_cell_angle_gamma    120

_symmetry_space_group_name_H-M    P 1
_symmetry_int_tables_number       1

loop_
  _symmetry_equiv_pos_as_xyz
  'x, y, z'

loop_
  _atom_site_label
  _atom_site_occupancy
  _atom_site_fract_x
  _atom_site_fract_y
  _atom_site_fract_z
  _atom_site_thermal_displace_type
  _atom_site_B_iso_or_equiv
  _atom_site_type_symbol
  Co1      1.0000 0.42224  0.28532  0.00066  Biso   1.000  Co
  Co2      1.0000 0.86308  0.57776  0.00066  Biso   1.000  Co
  Co3      1.0000 0.71468  0.13692  0.00066  Biso   1.000  Co
  Co4      1.0000 0.13692  0.71468  0.49934  Biso   1.000  Co
  Co5      1.0000 0.28532  0.42224  0.49934  Biso   1.000  Co
  Co6      1.0000 0.57776  0.86308  0.49934  Biso   1.000  Co
  Co7      1.0000 0.57776  0.71468  0.99934  Biso   1.000  Co
  Co8      1.0000 0.13692  0.42224  0.99934  Biso   1.000  Co
  Co9      1.0000 0.28532  0.86308  0.99934  Biso   1.000  Co
  Co10     1.0000 0.86308  0.28532  0.50066  Biso   1.000  Co
  Co11     1.0000 0.71468  0.57776  0.50066  Biso   1.000  Co
  Co12     1.0000 0.42224  0.13692  0.50066  Biso   1.000  Co
  Co13     1.0000 0.00000  0.00000  0.08472  Biso   1.000  Co
  Co14     1.0000 0.00000  0.00000  0.41528  Biso   1.000  Co
  Co15     1.0000 0.00000  0.00000  0.91528  Biso   1.000  Co
  Co16     1.0000 0.00000  0.00000  0.58472  Biso   1.000  Co
  H1       1.0000 0.30500  0.08500  0.09000  Biso   1.000  H
  H2       1.0000 0.47730  0.10280  0.90340  Biso   1.000  H
  H3       1.0000 0.15110  0.87350  0.20660  Biso   1.000  H
  H4       1.0000 0.94250  0.73040  0.18990  Biso   1.000  H
  H5       1.0000 0.78000  0.69500  0.09000  Biso   1.000  H
  H6       1.0000 0.62550  0.52270  0.90340  Biso   1.000  H
  H7       1.0000 0.72240  0.84890  0.20660  Biso   1.000  H
  H8       1.0000 0.78790  0.05750  0.18990  Biso   1.000  H
  H9       1.0000 0.91500  0.22000  0.09000  Biso   1.000  H
  H10      1.0000 0.89720  0.37450  0.90340  Biso   1.000  H
  H11      1.0000 0.12650  0.27760  0.20660  Biso   1.000  H
  H12      1.0000 0.26960  0.21210  0.18990  Biso   1.000  H
  H13      1.0000 0.22000  0.91500  0.41000  Biso   1.000  H
  H14      1.0000 0.37450  0.89720  0.59660  Biso   1.000  H
  H15      1.0000 0.27760  0.12650  0.29340  Biso   1.000  H
  H16      1.0000 0.21210  0.26960  0.31010  Biso   1.000  H
  H17      1.0000 0.08500  0.30500  0.41000  Biso   1.000  H
  H18      1.0000 0.10280  0.47730  0.59660  Biso   1.000  H
  H19      1.0000 0.87350  0.15110  0.29340  Biso   1.000  H
  H20      1.0000 0.73040  0.94250  0.31010  Biso   1.000  H
  H21      1.0000 0.69500  0.78000  0.41000  Biso   1.000  H
  H22      1.0000 0.52270  0.62550  0.59660  Biso   1.000  H
  H23      1.0000 0.84890  0.72240  0.29340  Biso   1.000  H
  H24      1.0000 0.05750  0.78790  0.31010  Biso   1.000  H
  H25      1.0000 0.69500  0.91500  0.91000  Biso   1.000  H
  H26      1.0000 0.52270  0.89720  0.09660  Biso   1.000  H
  H27      1.0000 0.84890  0.12650  0.79340  Biso   1.000  H
  H28      1.0000 0.05750  0.26960  0.81010  Biso   1.000  H
  H29      1.0000 0.22000  0.30500  0.91000  Biso   1.000  H
  H30      1.0000 0.37450  0.47730  0.09660  Biso   1.000  H
  H31      1.0000 0.27760  0.15110  0.79340  Biso   1.000  H
  H32      1.0000 0.21210  0.94250  0.81010  Biso   1.000  H
  H33      1.0000 0.08500  0.78000  0.91000  Biso   1.000  H
  H34      1.0000 0.10280  0.62550  0.09660  Biso   1.000  H
  H35      1.0000 0.87350  0.72240  0.79340  Biso   1.000  H
  H36      1.0000 0.73040  0.78790  0.81010  Biso   1.000  H
  H37      1.0000 0.78000  0.08500  0.59000  Biso   1.000  H
  H38      1.0000 0.62550  0.10280  0.40340  Biso   1.000  H
  H39      1.0000 0.72240  0.87350  0.70660  Biso   1.000  H
  H40      1.0000 0.78790  0.73040  0.68990  Biso   1.000  H
  H41      1.0000 0.91500  0.69500  0.59000  Biso   1.000  H
  H42      1.0000 0.89720  0.52270  0.40340  Biso   1.000  H
  H43      1.0000 0.12650  0.84890  0.70660  Biso   1.000  H
  H44      1.0000 0.26960  0.05750  0.68990  Biso   1.000  H
  H45      1.0000 0.30500  0.22000  0.59000  Biso   1.000  H
  H46      1.0000 0.47730  0.37450  0.40340  Biso   1.000  H
  H47      1.0000 0.15110  0.27760  0.70660  Biso   1.000  H
  H48      1.0000 0.94250  0.21210  0.68990  Biso   1.000  H
  C1       1.0000 0.02380  0.84530  0.21290  Biso   1.000  C
  C2       1.0000 0.82150  0.97620  0.21290  Biso   1.000  C
  C3       1.0000 0.15470  0.17850  0.21290  Biso   1.000  C
  C4       1.0000 0.17850  0.15470  0.28710  Biso   1.000  C
  C5       1.0000 0.84530  0.02380  0.28710  Biso   1.000  C
  C6       1.0000 0.97620  0.82150  0.28710  Biso   1.000  C
  C7       1.0000 0.97620  0.15470  0.78710  Biso   1.000  C
  C8       1.0000 0.17850  0.02380  0.78710  Biso   1.000  C
  C9       1.0000 0.84530  0.82150  0.78710  Biso   1.000  C
  C10      1.0000 0.82150  0.84530  0.71290  Biso   1.000  C
  C11      1.0000 0.15470  0.97620  0.71290  Biso   1.000  C
  C12      1.0000 0.02380  0.17850  0.71290  Biso   1.000  C
  N1       1.0000 0.00000  0.00000  0.18550  Biso   1.000  N
  N2       1.0000 0.00000  0.00000  0.31450  Biso   1.000  N
  N3       1.0000 0.00000  0.00000  0.81450  Biso   1.000  N
  N4       1.0000 0.00000  0.00000  0.68550  Biso   1.000  N
  O1       1.0000 0.24990  0.05350  0.05950  Biso   1.000  O
  O2       1.0000 0.47710  0.10160  0.95262  Biso   1.000  O
  O3       1.0000 0.80360  0.75010  0.05950  Biso   1.000  O
  O4       1.0000 0.62450  0.52290  0.95262  Biso   1.000  O
  O5       1.0000 0.94650  0.19640  0.05950  Biso   1.000  O
  O6       1.0000 0.89840  0.37550  0.95262  Biso   1.000  O
  O7       1.0000 0.19640  0.94650  0.44050  Biso   1.000  O
  O8       1.0000 0.37550  0.89840  0.54738  Biso   1.000  O
  O9       1.0000 0.05350  0.24990  0.44050  Biso   1.000  O
  O10      1.0000 0.10160  0.47710  0.54738  Biso   1.000  O
  O11      1.0000 0.75010  0.80360  0.44050  Biso   1.000  O
  O12      1.0000 0.52290  0.62450  0.54738  Biso   1.000  O
  O13      1.0000 0.75010  0.94650  0.94050  Biso   1.000  O
  O14      1.0000 0.52290  0.89840  0.04738  Biso   1.000  O
  O15      1.0000 0.19640  0.24990  0.94050  Biso   1.000  O
  O16      1.0000 0.37550  0.47710  0.04738  Biso   1.000  O
  O17      1.0000 0.05350  0.80360  0.94050  Biso   1.000  O
  O18      1.0000 0.10160  0.62450  0.04738  Biso   1.000  O
  O19      1.0000 0.80360  0.05350  0.55950  Biso   1.000  O
  O20      1.0000 0.62450  0.10160  0.45262  Biso   1.000  O
  O21      1.0000 0.94650  0.75010  0.55950  Biso   1.000  O
  O22      1.0000 0.89840  0.52290  0.45262  Biso   1.000  O
  O23      1.0000 0.24990  0.19640  0.55950  Biso   1.000  O
  O24      1.0000 0.47710  0.37550  0.45262  Biso   1.000  O
