data_image0
_cell_length_a       8.431
_cell_length_b       10.841
_cell_length_c       11.114
_cell_angle_alpha    64.43
_cell_angle_beta     80.44
_cell_angle_gamma    73.82

_symmetry_space_group_name_H-M    P 1
_symmetry_int_tables_number       1

loop_
  _symmetry_equiv_pos_as_xyz
  'x, y, z'

loop_
  _atom_site_label
  _atom_site_occupancy
  _atom_site_fract_x
  _atom_site_fract_y
  _atom_site_fract_z
  _atom_site_thermal_displace_type
  _atom_site_B_iso_or_equiv
  _atom_site_type_symbol
  Sm1      1.0000 0.74862  0.00371  0.00223  Biso   1.000  Sm
  Sm2      1.0000 0.25138  0.99629  0.99777  Biso   1.000  Sm
  H1       1.0000 0.75080  0.95380  0.51880  Biso   1.000  H
  H2       1.0000 0.09760  0.60620  0.52030  Biso   1.000  H
  H3       1.0000 0.76270  0.56940  0.82410  Biso   1.000  H
  H4       1.0000 0.52750  0.76200  0.81580  Biso   1.000  H
  H5       1.0000 0.50890  0.90840  0.68800  Biso   1.000  H
  H6       1.0000 0.02290  0.96440  0.37560  Biso   1.000  H
  H7       1.0000 0.11890  0.82560  0.35200  Biso   1.000  H
  H8       1.0000 0.06720  0.37370  0.67500  Biso   1.000  H
  H9       1.0000 0.93050  0.35440  0.79540  Biso   1.000  H
  H10      1.0000 0.24920  0.04620  0.48120  Biso   1.000  H
  H11      1.0000 0.90240  0.39380  0.47970  Biso   1.000  H
  H12      1.0000 0.23730  0.43060  0.17590  Biso   1.000  H
  H13      1.0000 0.47250  0.23800  0.18420  Biso   1.000  H
  H14      1.0000 0.49110  0.09160  0.31200  Biso   1.000  H
  H15      1.0000 0.97710  0.03560  0.62440  Biso   1.000  H
  H16      1.0000 0.88110  0.17440  0.64800  Biso   1.000  H
  H17      1.0000 0.93280  0.62630  0.32500  Biso   1.000  H
  H18      1.0000 0.06950  0.64560  0.20460  Biso   1.000  H
  C1       1.0000 0.73100  0.76800  0.68280  Biso   1.000  C
  C2       1.0000 0.79700  0.85550  0.55910  Biso   1.000  C
  C3       1.0000 0.93200  0.79100  0.49920  Biso   1.000  C
  C4       1.0000 0.00200  0.64700  0.56100  Biso   1.000  C
  C5       1.0000 0.93400  0.56100  0.68060  Biso   1.000  C
  C6       1.0000 0.80500  0.62500  0.73900  Biso   1.000  C
  C7       1.0000 0.58700  0.83500  0.75500  Biso   1.000  C
  C8       1.0000 0.63600  0.89900  0.83370  Biso   1.000  C
  C9       1.0000 0.00900  0.87900  0.37000  Biso   1.000  C
  C10      1.0000 0.88750  0.92300  0.25300  Biso   1.000  C
  C11      1.0000 0.01700  0.40600  0.74600  Biso   1.000  C
  C12      1.0000 0.14900  0.36700  0.84100  Biso   1.000  C
  C13      1.0000 0.26900  0.23200  0.31720  Biso   1.000  C
  C14      1.0000 0.20300  0.14450  0.44090  Biso   1.000  C
  C15      1.0000 0.06800  0.20900  0.50080  Biso   1.000  C
  C16      1.0000 0.99800  0.35300  0.43900  Biso   1.000  C
  C17      1.0000 0.06600  0.43900  0.31940  Biso   1.000  C
  C18      1.0000 0.19500  0.37500  0.26100  Biso   1.000  C
  C19      1.0000 0.41300  0.16500  0.24500  Biso   1.000  C
  C20      1.0000 0.36400  0.10100  0.16630  Biso   1.000  C
  C21      1.0000 0.99100  0.12100  0.63000  Biso   1.000  C
  C22      1.0000 0.11250  0.07700  0.74700  Biso   1.000  C
  C23      1.0000 0.98300  0.59400  0.25400  Biso   1.000  C
  C24      1.0000 0.85100  0.63300  0.15900  Biso   1.000  C
  O1       1.0000 0.52830  0.93880  0.91400  Biso   1.000  O
  O2       1.0000 0.78000  0.91310  0.82390  Biso   1.000  O
  O3       1.0000 0.70730  0.99050  0.22770  Biso   1.000  O
  O4       1.0000 0.00090  0.94880  0.13110  Biso   1.000  O
  O5       1.0000 0.21500  0.23720  0.88850  Biso   1.000  O
  O6       1.0000 0.18300  0.45800  0.86100  Biso   1.000  O
  O7       1.0000 0.75580  0.22290  0.01280  Biso   1.000  O
  O8       1.0000 0.61400  0.21210  0.80680  Biso   1.000  O
  O9       1.0000 0.47170  0.06120  0.08600  Biso   1.000  O
  O10      1.0000 0.22000  0.08690  0.17610  Biso   1.000  O
  O11      1.0000 0.29270  0.00950  0.77230  Biso   1.000  O
  O12      1.0000 0.99910  0.05120  0.86890  Biso   1.000  O
  O13      1.0000 0.78500  0.76280  0.11150  Biso   1.000  O
  O14      1.0000 0.81700  0.54200  0.13900  Biso   1.000  O
  O15      1.0000 0.24420  0.77710  0.98720  Biso   1.000  O
  O16      1.0000 0.38600  0.78790  0.19320  Biso   1.000  O
