data_image0
_cell_length_a       9.5115
_cell_length_b       12.92
_cell_length_c       12.92
_cell_angle_alpha    91.9819
_cell_angle_beta     90
_cell_angle_gamma    90

_symmetry_space_group_name_H-M    P 1
_symmetry_int_tables_number       1

loop_
  _symmetry_equiv_pos_as_xyz
  'x, y, z'

loop_
  _atom_site_label
  _atom_site_occupancy
  _atom_site_fract_x
  _atom_site_fract_y
  _atom_site_fract_z
  _atom_site_thermal_displace_type
  _atom_site_B_iso_or_equiv
  _atom_site_type_symbol
  U1       1.0000 0.77706  0.68040  0.09918  Biso   1.000  U
  U2       1.0000 0.27706  0.31960  0.90082  Biso   1.000  U
  U3       1.0000 0.27706  0.90082  0.31960  Biso   1.000  U
  U4       1.0000 0.77706  0.09918  0.68040  Biso   1.000  U
  U5       1.0000 0.94812  0.20613  0.20613  Biso   1.000  U
  U6       1.0000 0.44812  0.79387  0.79387  Biso   1.000  U
  P1       1.0000 0.90430  0.22989  0.92781  Biso   1.000  P
  P2       1.0000 0.97060  0.43029  0.03619  Biso   1.000  P
  P3       1.0000 0.40430  0.77011  0.07219  Biso   1.000  P
  P4       1.0000 0.47060  0.56971  0.96381  Biso   1.000  P
  P5       1.0000 0.40430  0.07219  0.77011  Biso   1.000  P
  P6       1.0000 0.47060  0.96381  0.56971  Biso   1.000  P
  P7       1.0000 0.90430  0.92781  0.22989  Biso   1.000  P
  P8       1.0000 0.97060  0.03619  0.43029  Biso   1.000  P
  H1       1.0000 0.95250  0.41920  0.81220  Biso   1.000  H
  H2       1.0000 0.79670  0.38560  0.79020  Biso   1.000  H
  H3       1.0000 0.82820  0.49030  0.85070  Biso   1.000  H
  H4       1.0000 0.69060  0.42930  0.99730  Biso   1.000  H
  H5       1.0000 0.45250  0.58080  0.18780  Biso   1.000  H
  H6       1.0000 0.29670  0.61440  0.20980  Biso   1.000  H
  H7       1.0000 0.32820  0.50970  0.14930  Biso   1.000  H
  H8       1.0000 0.19060  0.57070  0.00270  Biso   1.000  H
  H9       1.0000 0.45250  0.18780  0.58080  Biso   1.000  H
  H10      1.0000 0.29670  0.20980  0.61440  Biso   1.000  H
  H11      1.0000 0.32820  0.14930  0.50970  Biso   1.000  H
  H12      1.0000 0.19060  0.00270  0.57070  Biso   1.000  H
  H13      1.0000 0.95250  0.81220  0.41920  Biso   1.000  H
  H14      1.0000 0.79670  0.79020  0.38560  Biso   1.000  H
  H15      1.0000 0.82820  0.85070  0.49030  Biso   1.000  H
  H16      1.0000 0.69060  0.99730  0.42930  Biso   1.000  H
  C1       1.0000 0.85500  0.36440  0.94040  Biso   1.000  C
  C2       1.0000 0.85840  0.42000  0.83920  Biso   1.000  C
  C3       1.0000 0.35500  0.63560  0.05960  Biso   1.000  C
  C4       1.0000 0.35840  0.58000  0.16080  Biso   1.000  C
  C5       1.0000 0.35500  0.05960  0.63560  Biso   1.000  C
  C6       1.0000 0.35840  0.16080  0.58000  Biso   1.000  C
  C7       1.0000 0.85500  0.94040  0.36440  Biso   1.000  C
  C8       1.0000 0.85840  0.83920  0.42000  Biso   1.000  C
  O1       1.0000 0.82280  0.73440  0.97940  Biso   1.000  O
  O2       1.0000 0.90970  0.53560  0.05740  Biso   1.000  O
  O3       1.0000 0.81360  0.17790  0.84510  Biso   1.000  O
  O4       1.0000 0.88560  0.17830  0.03190  Biso   1.000  O
  O5       1.0000 0.73490  0.62860  0.22140  Biso   1.000  O
  O6       1.0000 0.02500  0.69480  0.16080  Biso   1.000  O
  O7       1.0000 0.11450  0.43580  0.98360  Biso   1.000  O
  O8       1.0000 0.97210  0.36650  0.13510  Biso   1.000  O
  O9       1.0000 0.05850  0.23310  0.89510  Biso   1.000  O
  O10      1.0000 0.71150  0.36890  0.98310  Biso   1.000  O
  O11      1.0000 0.32280  0.26560  0.02060  Biso   1.000  O
  O12      1.0000 0.40970  0.46440  0.94260  Biso   1.000  O
  O13      1.0000 0.31360  0.82210  0.15490  Biso   1.000  O
  O14      1.0000 0.38560  0.82170  0.96810  Biso   1.000  O
  O15      1.0000 0.23490  0.37140  0.77860  Biso   1.000  O
  O16      1.0000 0.52500  0.30520  0.83920  Biso   1.000  O
  O17      1.0000 0.61450  0.56420  0.01640  Biso   1.000  O
  O18      1.0000 0.47210  0.63350  0.86490  Biso   1.000  O
  O19      1.0000 0.55850  0.76690  0.10490  Biso   1.000  O
  O20      1.0000 0.21150  0.63110  0.01690  Biso   1.000  O
  O21      1.0000 0.32280  0.02060  0.26560  Biso   1.000  O
  O22      1.0000 0.40970  0.94260  0.46440  Biso   1.000  O
  O23      1.0000 0.31360  0.15490  0.82210  Biso   1.000  O
  O24      1.0000 0.38560  0.96810  0.82170  Biso   1.000  O
  O25      1.0000 0.23490  0.77860  0.37140  Biso   1.000  O
  O26      1.0000 0.52500  0.83920  0.30520  Biso   1.000  O
  O27      1.0000 0.61450  0.01640  0.56420  Biso   1.000  O
  O28      1.0000 0.47210  0.86490  0.63350  Biso   1.000  O
  O29      1.0000 0.55850  0.10490  0.76690  Biso   1.000  O
  O30      1.0000 0.21150  0.01690  0.63110  Biso   1.000  O
  O31      1.0000 0.82280  0.97940  0.73440  Biso   1.000  O
  O32      1.0000 0.90970  0.05740  0.53560  Biso   1.000  O
  O33      1.0000 0.81360  0.84510  0.17790  Biso   1.000  O
  O34      1.0000 0.88560  0.03190  0.17830  Biso   1.000  O
  O35      1.0000 0.73490  0.22140  0.62860  Biso   1.000  O
  O36      1.0000 0.02500  0.16080  0.69480  Biso   1.000  O
  O37      1.0000 0.11450  0.98360  0.43580  Biso   1.000  O
  O38      1.0000 0.97210  0.13510  0.36650  Biso   1.000  O
  O39      1.0000 0.05850  0.89510  0.23310  Biso   1.000  O
  O40      1.0000 0.71150  0.98310  0.36890  Biso   1.000  O
  O41      1.0000 0.77580  0.23840  0.23840  Biso   1.000  O
  O42      1.0000 0.03090  0.33700  0.33700  Biso   1.000  O
  O43      1.0000 0.12380  0.17890  0.17890  Biso   1.000  O
  O44      1.0000 0.27580  0.76160  0.76160  Biso   1.000  O
  O45      1.0000 0.53090  0.66300  0.66300  Biso   1.000  O
  O46      1.0000 0.62380  0.82110  0.82110  Biso   1.000  O
