data_image0
_cell_length_a       8.4735
_cell_length_b       10.8836
_cell_length_c       11.1301
_cell_angle_alpha    64.333
_cell_angle_beta     80.33
_cell_angle_gamma    73.76

_symmetry_space_group_name_H-M    P 1
_symmetry_int_tables_number       1

loop_
  _symmetry_equiv_pos_as_xyz
  'x, y, z'

loop_
  _atom_site_label
  _atom_site_occupancy
  _atom_site_fract_x
  _atom_site_fract_y
  _atom_site_fract_z
  _atom_site_thermal_displace_type
  _atom_site_B_iso_or_equiv
  _atom_site_type_symbol
  Nd1      1.0000 0.25174  0.99682  0.49731  Biso   1.000  Nd
  Nd2      1.0000 0.74826  0.00318  0.50269  Biso   1.000  Nd
  H1       1.0000 0.25040  0.05120  0.97670  Biso   1.000  H
  H2       1.0000 0.24140  0.43300  0.67580  Biso   1.000  H
  H3       1.0000 0.90480  0.39190  0.98560  Biso   1.000  H
  H4       1.0000 0.98310  0.03070  0.12510  Biso   1.000  H
  H5       1.0000 0.87650  0.16810  0.14420  Biso   1.000  H
  H6       1.0000 0.46800  0.24220  0.68290  Biso   1.000  H
  H7       1.0000 0.48870  0.09630  0.81110  Biso   1.000  H
  H8       1.0000 0.93820  0.62410  0.82870  Biso   1.000  H
  H9       1.0000 0.07140  0.64140  0.70610  Biso   1.000  H
  H10      1.0000 0.74960  0.94880  0.02330  Biso   1.000  H
  H11      1.0000 0.75860  0.56700  0.32420  Biso   1.000  H
  H12      1.0000 0.09520  0.60810  0.01440  Biso   1.000  H
  H13      1.0000 0.01690  0.96930  0.87490  Biso   1.000  H
  H14      1.0000 0.12350  0.83190  0.85580  Biso   1.000  H
  H15      1.0000 0.53200  0.75780  0.31710  Biso   1.000  H
  H16      1.0000 0.51130  0.90370  0.18890  Biso   1.000  H
  H17      1.0000 0.06180  0.37590  0.17130  Biso   1.000  H
  H18      1.0000 0.92860  0.35860  0.29390  Biso   1.000  H
  C1       1.0000 0.06610  0.20730  0.00160  Biso   1.000  C
  C2       1.0000 0.20210  0.14880  0.93720  Biso   1.000  C
  C3       1.0000 0.26690  0.23300  0.81560  Biso   1.000  C
  C4       1.0000 0.19630  0.37570  0.75880  Biso   1.000  C
  C5       1.0000 0.06180  0.43630  0.82030  Biso   1.000  C
  C6       1.0000 0.99700  0.35140  0.94230  Biso   1.000  C
  C7       1.0000 0.99020  0.11690  0.13160  Biso   1.000  C
  C8       1.0000 0.08290  0.07560  0.25250  Biso   1.000  C
  C9       1.0000 0.41030  0.16860  0.74440  Biso   1.000  C
  C10      1.0000 0.36230  0.10230  0.66520  Biso   1.000  C
  C11      1.0000 0.98410  0.59150  0.75680  Biso   1.000  C
  C12      1.0000 0.84860  0.63270  0.66370  Biso   1.000  C
  C13      1.0000 0.93390  0.79270  0.99840  Biso   1.000  C
  C14      1.0000 0.79790  0.85120  0.06280  Biso   1.000  C
  C15      1.0000 0.73310  0.76700  0.18440  Biso   1.000  C
  C16      1.0000 0.80370  0.62430  0.24120  Biso   1.000  C
  C17      1.0000 0.93820  0.56370  0.17970  Biso   1.000  C
  C18      1.0000 0.00300  0.64860  0.05770  Biso   1.000  C
  C19      1.0000 0.00980  0.88310  0.86840  Biso   1.000  C
  C20      1.0000 0.91710  0.92440  0.74750  Biso   1.000  C
  C21      1.0000 0.58970  0.83140  0.25560  Biso   1.000  C
  C22      1.0000 0.63770  0.89770  0.33480  Biso   1.000  C
  C23      1.0000 0.01590  0.40850  0.24320  Biso   1.000  C
  C24      1.0000 0.15140  0.36730  0.33630  Biso   1.000  C
  O1       1.0000 0.00320  0.04850  0.36700  Biso   1.000  O
  O2       1.0000 0.23800  0.05920  0.24810  Biso   1.000  O
  O3       1.0000 0.21730  0.09020  0.67420  Biso   1.000  O
  O4       1.0000 0.46960  0.06260  0.58700  Biso   1.000  O
  O5       1.0000 0.77840  0.75930  0.61530  Biso   1.000  O
  O6       1.0000 0.81110  0.54090  0.64300  Biso   1.000  O
  O7       1.0000 0.24600  0.77550  0.48710  Biso   1.000  O
  O8       1.0000 0.38430  0.78730  0.69550  Biso   1.000  O
  O9       1.0000 0.99680  0.95150  0.63300  Biso   1.000  O
  O10      1.0000 0.76200  0.94080  0.75190  Biso   1.000  O
  O11      1.0000 0.78270  0.90980  0.32580  Biso   1.000  O
  O12      1.0000 0.53040  0.93740  0.41300  Biso   1.000  O
  O13      1.0000 0.22160  0.24070  0.38470  Biso   1.000  O
  O14      1.0000 0.18890  0.45910  0.35700  Biso   1.000  O
  O15      1.0000 0.75400  0.22450  0.51290  Biso   1.000  O
  O16      1.0000 0.61570  0.21270  0.30450  Biso   1.000  O
