data_image0
_cell_length_a       9.417
_cell_length_b       13.128
_cell_length_c       15.913
_cell_angle_alpha    90
_cell_angle_beta     90
_cell_angle_gamma    90

_symmetry_space_group_name_H-M    P 1
_symmetry_int_tables_number       1

loop_
  _symmetry_equiv_pos_as_xyz
  'x, y, z'

loop_
  _atom_site_label
  _atom_site_occupancy
  _atom_site_fract_x
  _atom_site_fract_y
  _atom_site_fract_z
  _atom_site_thermal_displace_type
  _atom_site_B_iso_or_equiv
  _atom_site_type_symbol
  Zn1      1.0000 0.76853  0.66994  0.80100  Biso   1.000  Zn
  Zn2      1.0000 0.73147  0.16994  0.69900  Biso   1.000  Zn
  Zn3      1.0000 0.23147  0.33006  0.19900  Biso   1.000  Zn
  Zn4      1.0000 0.26853  0.83006  0.30100  Biso   1.000  Zn
  H1       1.0000 0.50430  0.69670  0.02930  Biso   1.000  H
  H2       1.0000 0.11760  0.60810  0.10980  Biso   1.000  H
  H3       1.0000 0.26920  0.51470  0.88720  Biso   1.000  H
  H4       1.0000 0.74690  0.37280  0.60980  Biso   1.000  H
  H5       1.0000 0.82310  0.75040  0.97740  Biso   1.000  H
  H6       1.0000 0.02670  0.54690  0.72280  Biso   1.000  H
  H7       1.0000 0.91170  0.41540  0.48630  Biso   1.000  H
  H8       1.0000 0.07470  0.41650  0.46700  Biso   1.000  H
  H9       1.0000 0.12610  0.42840  0.60830  Biso   1.000  H
  H10      1.0000 0.03080  0.33220  0.59210  Biso   1.000  H
  H11      1.0000 0.10660  0.73070  0.80160  Biso   1.000  H
  H12      1.0000 0.99400  0.83340  0.09270  Biso   1.000  H
  H13      1.0000 0.13910  0.87400  0.05760  Biso   1.000  H
  H14      1.0000 0.98430  0.00740  0.08440  Biso   1.000  H
  H15      1.0000 0.87300  0.96020  0.02300  Biso   1.000  H
  H16      1.0000 0.99570  0.19670  0.47070  Biso   1.000  H
  H17      1.0000 0.38240  0.10810  0.39020  Biso   1.000  H
  H18      1.0000 0.23080  0.01470  0.61280  Biso   1.000  H
  H19      1.0000 0.75310  0.87280  0.89020  Biso   1.000  H
  H20      1.0000 0.67690  0.25040  0.52260  Biso   1.000  H
  H21      1.0000 0.47330  0.04690  0.77720  Biso   1.000  H
  H22      1.0000 0.58830  0.91540  0.01370  Biso   1.000  H
  H23      1.0000 0.42530  0.91650  0.03300  Biso   1.000  H
  H24      1.0000 0.37390  0.92840  0.89170  Biso   1.000  H
  H25      1.0000 0.46920  0.83220  0.90790  Biso   1.000  H
  H26      1.0000 0.39340  0.23070  0.69840  Biso   1.000  H
  H27      1.0000 0.50600  0.33340  0.40730  Biso   1.000  H
  H28      1.0000 0.36090  0.37400  0.44240  Biso   1.000  H
  H29      1.0000 0.51570  0.50740  0.41560  Biso   1.000  H
  H30      1.0000 0.62700  0.46020  0.47700  Biso   1.000  H
  H31      1.0000 0.49570  0.30330  0.97070  Biso   1.000  H
  H32      1.0000 0.88240  0.39190  0.89020  Biso   1.000  H
  H33      1.0000 0.73080  0.48530  0.11280  Biso   1.000  H
  H34      1.0000 0.25310  0.62720  0.39020  Biso   1.000  H
  H35      1.0000 0.17690  0.24960  0.02260  Biso   1.000  H
  H36      1.0000 0.97330  0.45310  0.27720  Biso   1.000  H
  H37      1.0000 0.08830  0.58460  0.51370  Biso   1.000  H
  H38      1.0000 0.92530  0.58350  0.53300  Biso   1.000  H
  H39      1.0000 0.87390  0.57160  0.39170  Biso   1.000  H
  H40      1.0000 0.96920  0.66780  0.40790  Biso   1.000  H
  H41      1.0000 0.89340  0.26930  0.19840  Biso   1.000  H
  H42      1.0000 0.00600  0.16660  0.90730  Biso   1.000  H
  H43      1.0000 0.86090  0.12600  0.94240  Biso   1.000  H
  H44      1.0000 0.01570  0.99260  0.91560  Biso   1.000  H
  H45      1.0000 0.12700  0.03980  0.97700  Biso   1.000  H
  H46      1.0000 0.00430  0.80330  0.52930  Biso   1.000  H
  H47      1.0000 0.61760  0.89190  0.60980  Biso   1.000  H
  H48      1.0000 0.76920  0.98530  0.38720  Biso   1.000  H
  H49      1.0000 0.24690  0.12720  0.10980  Biso   1.000  H
  H50      1.0000 0.32310  0.74960  0.47740  Biso   1.000  H
  H51      1.0000 0.52670  0.95310  0.22280  Biso   1.000  H
  H52      1.0000 0.41170  0.08460  0.98630  Biso   1.000  H
  H53      1.0000 0.57470  0.08350  0.96700  Biso   1.000  H
  H54      1.0000 0.62610  0.07160  0.10830  Biso   1.000  H
  H55      1.0000 0.53080  0.16780  0.09210  Biso   1.000  H
  H56      1.0000 0.60660  0.76930  0.30160  Biso   1.000  H
  H57      1.0000 0.49400  0.66660  0.59270  Biso   1.000  H
  H58      1.0000 0.63910  0.62600  0.55760  Biso   1.000  H
  H59      1.0000 0.48430  0.49260  0.58440  Biso   1.000  H
  H60      1.0000 0.37300  0.53980  0.52300  Biso   1.000  H
  C1       1.0000 0.42030  0.66130  0.01970  Biso   1.000  C
  C2       1.0000 0.51410  0.61310  0.87740  Biso   1.000  C
  C3       1.0000 0.31180  0.66330  0.08160  Biso   1.000  C
  C4       1.0000 0.40400  0.60830  0.94630  Biso   1.000  C
  C5       1.0000 0.33310  0.72430  0.15950  Biso   1.000  C
  C6       1.0000 0.18910  0.60840  0.06940  Biso   1.000  C
  C7       1.0000 0.17490  0.55390  0.99560  Biso   1.000  C
  C8       1.0000 0.28110  0.55320  0.93570  Biso   1.000  C
  C9       1.0000 0.78800  0.41960  0.64640  Biso   1.000  C
  C10      1.0000 0.90670  0.75650  0.94670  Biso   1.000  C
  C11      1.0000 0.94090  0.51620  0.70880  Biso   1.000  C
  C12      1.0000 0.00220  0.44300  0.50440  Biso   1.000  C
  C13      1.0000 0.03220  0.40610  0.59130  Biso   1.000  C
  C14      1.0000 0.06250  0.74700  0.85210  Biso   1.000  C
  C15      1.0000 0.03890  0.86650  0.04510  Biso   1.000  C
  C16      1.0000 0.97400  0.96970  0.03240  Biso   1.000  C
  C17      1.0000 0.07970  0.16130  0.48030  Biso   1.000  C
  C18      1.0000 0.98590  0.11310  0.62260  Biso   1.000  C
  C19      1.0000 0.18820  0.16330  0.41840  Biso   1.000  C
  C20      1.0000 0.09600  0.10830  0.55370  Biso   1.000  C
  C21      1.0000 0.16690  0.22430  0.34050  Biso   1.000  C
  C22      1.0000 0.31090  0.10840  0.43060  Biso   1.000  C
  C23      1.0000 0.32510  0.05390  0.50440  Biso   1.000  C
  C24      1.0000 0.21890  0.05320  0.56430  Biso   1.000  C
  C25      1.0000 0.71200  0.91960  0.85360  Biso   1.000  C
  C26      1.0000 0.59330  0.25650  0.55330  Biso   1.000  C
  C27      1.0000 0.55910  0.01620  0.79120  Biso   1.000  C
  C28      1.0000 0.49780  0.94300  0.99560  Biso   1.000  C
  C29      1.0000 0.46780  0.90610  0.90870  Biso   1.000  C
  C30      1.0000 0.43750  0.24700  0.64790  Biso   1.000  C
  C31      1.0000 0.46110  0.36650  0.45490  Biso   1.000  C
  C32      1.0000 0.52600  0.46970  0.46760  Biso   1.000  C
  C33      1.0000 0.57970  0.33870  0.98030  Biso   1.000  C
  C34      1.0000 0.48590  0.38690  0.12260  Biso   1.000  C
  C35      1.0000 0.68820  0.33670  0.91840  Biso   1.000  C
  C36      1.0000 0.59600  0.39170  0.05370  Biso   1.000  C
  C37      1.0000 0.66690  0.27570  0.84050  Biso   1.000  C
  C38      1.0000 0.81090  0.39160  0.93060  Biso   1.000  C
  C39      1.0000 0.82510  0.44610  0.00440  Biso   1.000  C
  C40      1.0000 0.71890  0.44680  0.06430  Biso   1.000  C
  C41      1.0000 0.21200  0.58040  0.35360  Biso   1.000  C
  C42      1.0000 0.09330  0.24350  0.05330  Biso   1.000  C
  C43      1.0000 0.05910  0.48380  0.29120  Biso   1.000  C
  C44      1.0000 0.99780  0.55700  0.49560  Biso   1.000  C
  C45      1.0000 0.96780  0.59390  0.40870  Biso   1.000  C
  C46      1.0000 0.93750  0.25300  0.14790  Biso   1.000  C
  C47      1.0000 0.96110  0.13350  0.95490  Biso   1.000  C
  C48      1.0000 0.02600  0.03030  0.96760  Biso   1.000  C
  C49      1.0000 0.92030  0.83870  0.51970  Biso   1.000  C
  C50      1.0000 0.01410  0.88690  0.37740  Biso   1.000  C
  C51      1.0000 0.81180  0.83670  0.58160  Biso   1.000  C
  C52      1.0000 0.90400  0.89170  0.44630  Biso   1.000  C
  C53      1.0000 0.83310  0.77570  0.65950  Biso   1.000  C
  C54      1.0000 0.68910  0.89160  0.56940  Biso   1.000  C
  C55      1.0000 0.67490  0.94610  0.49560  Biso   1.000  C
  C56      1.0000 0.78110  0.94680  0.43570  Biso   1.000  C
  C57      1.0000 0.28800  0.08040  0.14640  Biso   1.000  C
  C58      1.0000 0.40670  0.74350  0.44670  Biso   1.000  C
  C59      1.0000 0.44090  0.98380  0.20880  Biso   1.000  C
  C60      1.0000 0.50220  0.05700  0.00440  Biso   1.000  C
  C61      1.0000 0.53220  0.09390  0.09130  Biso   1.000  C
  C62      1.0000 0.56250  0.75300  0.35210  Biso   1.000  C
  C63      1.0000 0.53890  0.63350  0.54510  Biso   1.000  C
  C64      1.0000 0.47400  0.53030  0.53240  Biso   1.000  C
  N1       1.0000 0.72380  0.47430  0.70420  Biso   1.000  N
  N2       1.0000 0.92890  0.71910  0.87140  Biso   1.000  N
  N3       1.0000 0.02210  0.80420  0.97170  Biso   1.000  N
  N4       1.0000 0.81620  0.53770  0.74450  Biso   1.000  N
  N5       1.0000 0.05200  0.49370  0.97690  Biso   1.000  N
  N6       1.0000 0.92540  0.44570  0.65130  Biso   1.000  N
  N7       1.0000 0.12330  0.79880  0.91100  Biso   1.000  N
  N8       1.0000 0.77620  0.97430  0.79580  Biso   1.000  N
  N9       1.0000 0.57110  0.21910  0.62860  Biso   1.000  N
  N10      1.0000 0.47790  0.30420  0.52830  Biso   1.000  N
  N11      1.0000 0.68380  0.03770  0.75550  Biso   1.000  N
  N12      1.0000 0.44800  0.99370  0.52310  Biso   1.000  N
  N13      1.0000 0.57460  0.94570  0.84870  Biso   1.000  N
  N14      1.0000 0.37670  0.29880  0.58900  Biso   1.000  N
  N15      1.0000 0.27620  0.52570  0.29580  Biso   1.000  N
  N16      1.0000 0.07110  0.28090  0.12860  Biso   1.000  N
  N17      1.0000 0.97790  0.19580  0.02830  Biso   1.000  N
  N18      1.0000 0.18380  0.46230  0.25550  Biso   1.000  N
  N19      1.0000 0.94800  0.50630  0.02310  Biso   1.000  N
  N20      1.0000 0.07460  0.55430  0.34870  Biso   1.000  N
  N21      1.0000 0.87670  0.20120  0.08900  Biso   1.000  N
  N22      1.0000 0.22380  0.02570  0.20420  Biso   1.000  N
  N23      1.0000 0.42890  0.78090  0.37140  Biso   1.000  N
  N24      1.0000 0.52210  0.69580  0.47170  Biso   1.000  N
  N25      1.0000 0.31620  0.96230  0.24450  Biso   1.000  N
  N26      1.0000 0.55200  0.00630  0.47690  Biso   1.000  N
  N27      1.0000 0.42540  0.05430  0.15130  Biso   1.000  N
  N28      1.0000 0.62330  0.70120  0.41100  Biso   1.000  N
  O1       1.0000 0.62560  0.66270  0.89150  Biso   1.000  O
  O2       1.0000 0.22290  0.74090  0.20600  Biso   1.000  O
  O3       1.0000 0.45140  0.75810  0.17470  Biso   1.000  O
  O4       1.0000 0.49250  0.57270  0.80960  Biso   1.000  O
  O5       1.0000 0.87440  0.16270  0.60850  Biso   1.000  O
  O6       1.0000 0.27710  0.24090  0.29400  Biso   1.000  O
  O7       1.0000 0.04860  0.25810  0.32530  Biso   1.000  O
  O8       1.0000 0.00750  0.07270  0.69040  Biso   1.000  O
  O9       1.0000 0.37440  0.33730  0.10850  Biso   1.000  O
  O10      1.0000 0.77710  0.25910  0.79400  Biso   1.000  O
  O11      1.0000 0.54860  0.24190  0.82530  Biso   1.000  O
  O12      1.0000 0.50750  0.42730  0.19040  Biso   1.000  O
  O13      1.0000 0.12560  0.83730  0.39150  Biso   1.000  O
  O14      1.0000 0.72290  0.75910  0.70600  Biso   1.000  O
  O15      1.0000 0.95140  0.74190  0.67470  Biso   1.000  O
  O16      1.0000 0.99250  0.92730  0.30960  Biso   1.000  O
