data_image0
_cell_length_a       9.9603
_cell_length_b       11.3612
_cell_length_c       14.8001
_cell_angle_alpha    91.527
_cell_angle_beta     90
_cell_angle_gamma    90

_symmetry_space_group_name_H-M    P 1
_symmetry_int_tables_number       1

loop_
  _symmetry_equiv_pos_as_xyz
  'x, y, z'

loop_
  _atom_site_label
  _atom_site_occupancy
  _atom_site_fract_x
  _atom_site_fract_y
  _atom_site_fract_z
  _atom_site_thermal_displace_type
  _atom_site_B_iso_or_equiv
  _atom_site_type_symbol
  Co1      1.0000 0.92715  0.74380  0.86634  Biso   1.000  Co
  Co2      1.0000 0.12129  0.75943  0.69485  Biso   1.000  Co
  Co3      1.0000 0.42715  0.75620  0.63366  Biso   1.000  Co
  Co4      1.0000 0.62129  0.74057  0.80515  Biso   1.000  Co
  Co5      1.0000 0.07285  0.25620  0.13366  Biso   1.000  Co
  Co6      1.0000 0.87871  0.24057  0.30515  Biso   1.000  Co
  Co7      1.0000 0.57285  0.24380  0.36634  Biso   1.000  Co
  Co8      1.0000 0.37871  0.25943  0.19485  Biso   1.000  Co
  Co9      1.0000 0.00000  0.50000  0.00000  Biso   1.000  Co
  Co10     1.0000 0.50000  0.00000  0.50000  Biso   1.000  Co
  Co11     1.0000 0.00000  0.00000  0.00000  Biso   1.000  Co
  Co12     1.0000 0.50000  0.50000  0.50000  Biso   1.000  Co
  H1       1.0000 0.77240  0.64930  0.63130  Biso   1.000  H
  H2       1.0000 0.20440  0.52300  0.77870  Biso   1.000  H
  H3       1.0000 0.05630  0.02000  0.74330  Biso   1.000  H
  H4       1.0000 0.62490  0.94260  0.94960  Biso   1.000  H
  H5       1.0000 0.21110  0.99680  0.52560  Biso   1.000  H
  H6       1.0000 0.15480  0.80270  0.07120  Biso   1.000  H
  H7       1.0000 0.27240  0.85070  0.86870  Biso   1.000  H
  H8       1.0000 0.70440  0.97700  0.72130  Biso   1.000  H
  H9       1.0000 0.55630  0.48000  0.75670  Biso   1.000  H
  H10      1.0000 0.12490  0.55740  0.55040  Biso   1.000  H
  H11      1.0000 0.71110  0.50320  0.97440  Biso   1.000  H
  H12      1.0000 0.65480  0.69730  0.42880  Biso   1.000  H
  H13      1.0000 0.22760  0.35070  0.36870  Biso   1.000  H
  H14      1.0000 0.79560  0.47700  0.22130  Biso   1.000  H
  H15      1.0000 0.94370  0.98000  0.25670  Biso   1.000  H
  H16      1.0000 0.37510  0.05740  0.05040  Biso   1.000  H
  H17      1.0000 0.78890  0.00320  0.47440  Biso   1.000  H
  H18      1.0000 0.84520  0.19730  0.92880  Biso   1.000  H
  H19      1.0000 0.72760  0.14930  0.13130  Biso   1.000  H
  H20      1.0000 0.29560  0.02300  0.27870  Biso   1.000  H
  H21      1.0000 0.44370  0.52000  0.24330  Biso   1.000  H
  H22      1.0000 0.87510  0.44260  0.44960  Biso   1.000  H
  H23      1.0000 0.28890  0.49680  0.02560  Biso   1.000  H
  H24      1.0000 0.34520  0.30270  0.57120  Biso   1.000  H
  C1       1.0000 0.84060  0.67680  0.66930  Biso   1.000  C
  C2       1.0000 0.14160  0.54970  0.82100  Biso   1.000  C
  C3       1.0000 0.02870  0.98070  0.79440  Biso   1.000  C
  C4       1.0000 0.71590  0.92520  0.94480  Biso   1.000  C
  C5       1.0000 0.22930  0.93410  0.56280  Biso   1.000  C
  C6       1.0000 0.10040  0.75800  0.03250  Biso   1.000  C
  C7       1.0000 0.34060  0.82320  0.83070  Biso   1.000  C
  C8       1.0000 0.64160  0.95030  0.67900  Biso   1.000  C
  C9       1.0000 0.52870  0.51930  0.70560  Biso   1.000  C
  C10      1.0000 0.21590  0.57480  0.55520  Biso   1.000  C
  C11      1.0000 0.72930  0.56590  0.93720  Biso   1.000  C
  C12      1.0000 0.60040  0.74200  0.46750  Biso   1.000  C
  C13      1.0000 0.15940  0.32320  0.33070  Biso   1.000  C
  C14      1.0000 0.85840  0.45030  0.17900  Biso   1.000  C
  C15      1.0000 0.97130  0.01930  0.20560  Biso   1.000  C
  C16      1.0000 0.28410  0.07480  0.05520  Biso   1.000  C
  C17      1.0000 0.77070  0.06590  0.43720  Biso   1.000  C
  C18      1.0000 0.89960  0.24200  0.96750  Biso   1.000  C
  C19      1.0000 0.65940  0.17680  0.16930  Biso   1.000  C
  C20      1.0000 0.35840  0.04970  0.32100  Biso   1.000  C
  C21      1.0000 0.47130  0.48070  0.29440  Biso   1.000  C
  C22      1.0000 0.78410  0.42520  0.44480  Biso   1.000  C
  C23      1.0000 0.27070  0.43410  0.06280  Biso   1.000  C
  C24      1.0000 0.39960  0.25800  0.53250  Biso   1.000  C
  O1       1.0000 0.81040  0.69460  0.75209  Biso   1.000  O
  O2       1.0000 0.95190  0.69260  0.63430  Biso   1.000  O
  O3       1.0000 0.08940  0.64930  0.80759  Biso   1.000  O
  O4       1.0000 0.11810  0.48460  0.88420  Biso   1.000  O
  O5       1.0000 0.01700  0.86970  0.78618  Biso   1.000  O
  O6       1.0000 0.00760  0.04140  0.86250  Biso   1.000  O
  O7       1.0000 0.74940  0.84460  0.88794  Biso   1.000  O
  O8       1.0000 0.79360  0.98290  0.99450  Biso   1.000  O
  O9       1.0000 0.13340  0.89310  0.60347  Biso   1.000  O
  O10      1.0000 0.35150  0.89980  0.56593  Biso   1.000  O
  O11      1.0000 0.02670  0.81450  0.97705  Biso   1.000  O
  O12      1.0000 0.10570  0.65090  0.03900  Biso   1.000  O
  O13      1.0000 0.31040  0.80540  0.74791  Biso   1.000  O
  O14      1.0000 0.45190  0.80740  0.86570  Biso   1.000  O
  O15      1.0000 0.58940  0.85070  0.69241  Biso   1.000  O
  O16      1.0000 0.61810  0.01540  0.61580  Biso   1.000  O
  O17      1.0000 0.51700  0.63030  0.71382  Biso   1.000  O
  O18      1.0000 0.50760  0.45860  0.63750  Biso   1.000  O
  O19      1.0000 0.24940  0.65540  0.61206  Biso   1.000  O
  O20      1.0000 0.29360  0.51710  0.50550  Biso   1.000  O
  O21      1.0000 0.63340  0.60690  0.89653  Biso   1.000  O
  O22      1.0000 0.85150  0.60020  0.93407  Biso   1.000  O
  O23      1.0000 0.52670  0.68550  0.52295  Biso   1.000  O
  O24      1.0000 0.60570  0.84910  0.46100  Biso   1.000  O
  O25      1.0000 0.18960  0.30540  0.24791  Biso   1.000  O
  O26      1.0000 0.04810  0.30740  0.36570  Biso   1.000  O
  O27      1.0000 0.91060  0.35070  0.19241  Biso   1.000  O
  O28      1.0000 0.88190  0.51540  0.11580  Biso   1.000  O
  O29      1.0000 0.98300  0.13030  0.21382  Biso   1.000  O
  O30      1.0000 0.99240  0.95860  0.13750  Biso   1.000  O
  O31      1.0000 0.25060  0.15540  0.11206  Biso   1.000  O
  O32      1.0000 0.20640  0.01710  0.00550  Biso   1.000  O
  O33      1.0000 0.86660  0.10690  0.39653  Biso   1.000  O
  O34      1.0000 0.64850  0.10020  0.43407  Biso   1.000  O
  O35      1.0000 0.97330  0.18550  0.02295  Biso   1.000  O
  O36      1.0000 0.89430  0.34910  0.96100  Biso   1.000  O
  O37      1.0000 0.68960  0.19460  0.25209  Biso   1.000  O
  O38      1.0000 0.54810  0.19260  0.13430  Biso   1.000  O
  O39      1.0000 0.41060  0.14930  0.30759  Biso   1.000  O
  O40      1.0000 0.38190  0.98460  0.38420  Biso   1.000  O
  O41      1.0000 0.48300  0.36970  0.28618  Biso   1.000  O
  O42      1.0000 0.49240  0.54140  0.36250  Biso   1.000  O
  O43      1.0000 0.75060  0.34460  0.38794  Biso   1.000  O
  O44      1.0000 0.70640  0.48290  0.49450  Biso   1.000  O
  O45      1.0000 0.36660  0.39310  0.10347  Biso   1.000  O
  O46      1.0000 0.14850  0.39980  0.06593  Biso   1.000  O
  O47      1.0000 0.47330  0.31450  0.47705  Biso   1.000  O
  O48      1.0000 0.39430  0.15090  0.53900  Biso   1.000  O
