data_image0
_cell_length_a       9.935
_cell_length_b       11.323
_cell_length_c       14.708
_cell_angle_alpha    91.171
_cell_angle_beta     90
_cell_angle_gamma    90

_symmetry_space_group_name_H-M    P 1
_symmetry_int_tables_number       1

loop_
  _symmetry_equiv_pos_as_xyz
  'x, y, z'

loop_
  _atom_site_label
  _atom_site_occupancy
  _atom_site_fract_x
  _atom_site_fract_y
  _atom_site_fract_z
  _atom_site_thermal_displace_type
  _atom_site_B_iso_or_equiv
  _atom_site_type_symbol
  Co1      1.0000 0.92604  0.25565  0.63363  Biso   1.000  Co
  Co2      1.0000 0.12025  0.24017  0.80586  Biso   1.000  Co
  Co3      1.0000 0.42604  0.24435  0.86637  Biso   1.000  Co
  Co4      1.0000 0.62025  0.25983  0.69414  Biso   1.000  Co
  Co5      1.0000 0.07396  0.74435  0.36637  Biso   1.000  Co
  Co6      1.0000 0.87975  0.75983  0.19414  Biso   1.000  Co
  Co7      1.0000 0.57396  0.75565  0.13363  Biso   1.000  Co
  Co8      1.0000 0.37975  0.74017  0.30586  Biso   1.000  Co
  Co9      1.0000 0.00000  0.00000  0.50000  Biso   1.000  Co
  Co10     1.0000 0.50000  0.50000  0.00000  Biso   1.000  Co
  Co11     1.0000 0.00000  0.50000  0.50000  Biso   1.000  Co
  Co12     1.0000 0.50000  0.00000  0.00000  Biso   1.000  Co
  H1       1.0000 0.77230  0.35130  0.86930  Biso   1.000  H
  H2       1.0000 0.62640  0.05580  0.55260  Biso   1.000  H
  H3       1.0000 0.05700  0.97820  0.75720  Biso   1.000  H
  H4       1.0000 0.20460  0.47520  0.72120  Biso   1.000  H
  H5       1.0000 0.21230  0.00420  0.97730  Biso   1.000  H
  H6       1.0000 0.15050  0.19770  0.42690  Biso   1.000  H
  H7       1.0000 0.27230  0.14870  0.63070  Biso   1.000  H
  H8       1.0000 0.12640  0.44420  0.94740  Biso   1.000  H
  H9       1.0000 0.55700  0.52180  0.74280  Biso   1.000  H
  H10      1.0000 0.70460  0.02480  0.77880  Biso   1.000  H
  H11      1.0000 0.71230  0.49580  0.52270  Biso   1.000  H
  H12      1.0000 0.65050  0.30230  0.07310  Biso   1.000  H
  H13      1.0000 0.22770  0.64870  0.13070  Biso   1.000  H
  H14      1.0000 0.37360  0.94420  0.44740  Biso   1.000  H
  H15      1.0000 0.94300  0.02180  0.24280  Biso   1.000  H
  H16      1.0000 0.79540  0.52480  0.27880  Biso   1.000  H
  H17      1.0000 0.78770  0.99580  0.02270  Biso   1.000  H
  H18      1.0000 0.84950  0.80230  0.57310  Biso   1.000  H
  H19      1.0000 0.72770  0.85130  0.36930  Biso   1.000  H
  H20      1.0000 0.87360  0.55580  0.05260  Biso   1.000  H
  H21      1.0000 0.44300  0.47820  0.25720  Biso   1.000  H
  H22      1.0000 0.29540  0.97520  0.22120  Biso   1.000  H
  H23      1.0000 0.28770  0.50420  0.47730  Biso   1.000  H
  H24      1.0000 0.34950  0.69770  0.92690  Biso   1.000  H
  C1       1.0000 0.84040  0.32380  0.83100  Biso   1.000  C
  C2       1.0000 0.71760  0.07350  0.55700  Biso   1.000  C
  C3       1.0000 0.02970  0.01870  0.70600  Biso   1.000  C
  C4       1.0000 0.14050  0.44940  0.67920  Biso   1.000  C
  C5       1.0000 0.23020  0.06680  0.93910  Biso   1.000  C
  C6       1.0000 0.09760  0.24230  0.46700  Biso   1.000  C
  C7       1.0000 0.34040  0.17620  0.66900  Biso   1.000  C
  C8       1.0000 0.21760  0.42650  0.94300  Biso   1.000  C
  C9       1.0000 0.52970  0.48130  0.79400  Biso   1.000  C
  C10      1.0000 0.64050  0.05060  0.82080  Biso   1.000  C
  C11      1.0000 0.73020  0.43320  0.56090  Biso   1.000  C
  C12      1.0000 0.59760  0.25770  0.03300  Biso   1.000  C
  C13      1.0000 0.15960  0.67620  0.16900  Biso   1.000  C
  C14      1.0000 0.28240  0.92650  0.44300  Biso   1.000  C
  C15      1.0000 0.97030  0.98130  0.29400  Biso   1.000  C
  C16      1.0000 0.85950  0.55060  0.32080  Biso   1.000  C
  C17      1.0000 0.76980  0.93320  0.06090  Biso   1.000  C
  C18      1.0000 0.90240  0.75770  0.53300  Biso   1.000  C
  C19      1.0000 0.65960  0.82380  0.33100  Biso   1.000  C
  C20      1.0000 0.78240  0.57350  0.05700  Biso   1.000  C
  C21      1.0000 0.47030  0.51870  0.20600  Biso   1.000  C
  C22      1.0000 0.35950  0.94940  0.17920  Biso   1.000  C
  C23      1.0000 0.26980  0.56680  0.43910  Biso   1.000  C
  C24      1.0000 0.40240  0.74230  0.96700  Biso   1.000  C
  O1       1.0000 0.95150  0.30860  0.86560  Biso   1.000  O
  O2       1.0000 0.80940  0.30570  0.74810  Biso   1.000  O
  O3       1.0000 0.74980  0.15430  0.61230  Biso   1.000  O
  O4       1.0000 0.79460  0.01480  0.50760  Biso   1.000  O
  O5       1.0000 0.01620  0.12940  0.71510  Biso   1.000  O
  O6       1.0000 0.01060  0.95960  0.63670  Biso   1.000  O
  O7       1.0000 0.08840  0.35000  0.69310  Biso   1.000  O
  O8       1.0000 0.11610  0.51570  0.61680  Biso   1.000  O
  O9       1.0000 0.13330  0.10820  0.89770  Biso   1.000  O
  O10      1.0000 0.35060  0.10080  0.93470  Biso   1.000  O
  O11      1.0000 0.10450  0.34950  0.46050  Biso   1.000  O
  O12      1.0000 0.02620  0.18500  0.52230  Biso   1.000  O
  O13      1.0000 0.45150  0.19140  0.63440  Biso   1.000  O
  O14      1.0000 0.30940  0.19430  0.75190  Biso   1.000  O
  O15      1.0000 0.24980  0.34570  0.88770  Biso   1.000  O
  O16      1.0000 0.29460  0.48520  0.99240  Biso   1.000  O
  O17      1.0000 0.51620  0.37060  0.78490  Biso   1.000  O
  O18      1.0000 0.51060  0.54040  0.86330  Biso   1.000  O
  O19      1.0000 0.58840  0.15000  0.80690  Biso   1.000  O
  O20      1.0000 0.61610  0.98430  0.88320  Biso   1.000  O
  O21      1.0000 0.63330  0.39180  0.60230  Biso   1.000  O
  O22      1.0000 0.85060  0.39920  0.56530  Biso   1.000  O
  O23      1.0000 0.60450  0.15050  0.03950  Biso   1.000  O
  O24      1.0000 0.52620  0.31500  0.97770  Biso   1.000  O
  O25      1.0000 0.04850  0.69140  0.13440  Biso   1.000  O
  O26      1.0000 0.19060  0.69430  0.25190  Biso   1.000  O
  O27      1.0000 0.25020  0.84570  0.38770  Biso   1.000  O
  O28      1.0000 0.20540  0.98520  0.49240  Biso   1.000  O
  O29      1.0000 0.98380  0.87060  0.28490  Biso   1.000  O
  O30      1.0000 0.98940  0.04040  0.36330  Biso   1.000  O
  O31      1.0000 0.91160  0.65000  0.30690  Biso   1.000  O
  O32      1.0000 0.88390  0.48430  0.38320  Biso   1.000  O
  O33      1.0000 0.86670  0.89180  0.10230  Biso   1.000  O
  O34      1.0000 0.64940  0.89920  0.06530  Biso   1.000  O
  O35      1.0000 0.89550  0.65050  0.53950  Biso   1.000  O
  O36      1.0000 0.97380  0.81500  0.47770  Biso   1.000  O
  O37      1.0000 0.54850  0.80860  0.36560  Biso   1.000  O
  O38      1.0000 0.69060  0.80570  0.24810  Biso   1.000  O
  O39      1.0000 0.75020  0.65430  0.11230  Biso   1.000  O
  O40      1.0000 0.70540  0.51480  0.00760  Biso   1.000  O
  O41      1.0000 0.48380  0.62940  0.21510  Biso   1.000  O
  O42      1.0000 0.48940  0.45960  0.13670  Biso   1.000  O
  O43      1.0000 0.41160  0.85000  0.19310  Biso   1.000  O
  O44      1.0000 0.38390  0.01570  0.11680  Biso   1.000  O
  O45      1.0000 0.36670  0.60820  0.39770  Biso   1.000  O
  O46      1.0000 0.14940  0.60080  0.43470  Biso   1.000  O
  O47      1.0000 0.39550  0.84950  0.96050  Biso   1.000  O
  O48      1.0000 0.47380  0.68500  0.02230  Biso   1.000  O
