data_image0
_cell_length_a       9.826
_cell_length_b       11.255
_cell_length_c       14.547
_cell_angle_alpha    91.346
_cell_angle_beta     90
_cell_angle_gamma    90

_symmetry_space_group_name_H-M    P 1
_symmetry_int_tables_number       1

loop_
  _symmetry_equiv_pos_as_xyz
  'x, y, z'

loop_
  _atom_site_label
  _atom_site_occupancy
  _atom_site_fract_x
  _atom_site_fract_y
  _atom_site_fract_z
  _atom_site_thermal_displace_type
  _atom_site_B_iso_or_equiv
  _atom_site_type_symbol
  Co1      1.0000 0.91962  0.75599  0.13269  Biso   1.000  Co
  Co2      1.0000 0.10881  0.74023  0.31063  Biso   1.000  Co
  Co3      1.0000 0.41962  0.74401  0.36731  Biso   1.000  Co
  Co4      1.0000 0.60881  0.75977  0.18937  Biso   1.000  Co
  Co5      1.0000 0.08038  0.24401  0.86731  Biso   1.000  Co
  Co6      1.0000 0.89119  0.25977  0.68937  Biso   1.000  Co
  Co7      1.0000 0.58038  0.25599  0.63269  Biso   1.000  Co
  Co8      1.0000 0.39119  0.24023  0.81063  Biso   1.000  Co
  Co9      1.0000 0.00000  0.50000  0.00000  Biso   1.000  Co
  Co10     1.0000 0.50000  0.00000  0.50000  Biso   1.000  Co
  Co11     1.0000 0.00000  0.00000  0.00000  Biso   1.000  Co
  Co12     1.0000 0.50000  0.50000  0.50000  Biso   1.000  Co
  H1       1.0000 0.75670  0.85990  0.36580  Biso   1.000  H
  H2       1.0000 0.18840  0.98170  0.23130  Biso   1.000  H
  H3       1.0000 0.20230  0.50920  0.48830  Biso   1.000  H
  H4       1.0000 0.61840  0.56160  0.03750  Biso   1.000  H
  H5       1.0000 0.17250  0.69730  0.93820  Biso   1.000  H
  H6       1.0000 0.97310  0.52550  0.73500  Biso   1.000  H
  H7       1.0000 0.25670  0.64010  0.13420  Biso   1.000  H
  H8       1.0000 0.68840  0.51830  0.26870  Biso   1.000  H
  H9       1.0000 0.70230  0.99080  0.01170  Biso   1.000  H
  H10      1.0000 0.11840  0.93840  0.46250  Biso   1.000  H
  H11      1.0000 0.67250  0.80270  0.56180  Biso   1.000  H
  H12      1.0000 0.47310  0.97450  0.76500  Biso   1.000  H
  H13      1.0000 0.24330  0.14010  0.63420  Biso   1.000  H
  H14      1.0000 0.81160  0.01830  0.76870  Biso   1.000  H
  H15      1.0000 0.79770  0.49080  0.51170  Biso   1.000  H
  H16      1.0000 0.38160  0.43840  0.96250  Biso   1.000  H
  H17      1.0000 0.82750  0.30270  0.06180  Biso   1.000  H
  H18      1.0000 0.02690  0.47450  0.26500  Biso   1.000  H
  H19      1.0000 0.74330  0.35990  0.86580  Biso   1.000  H
  H20      1.0000 0.31160  0.48170  0.73130  Biso   1.000  H
  H21      1.0000 0.29770  0.00920  0.98830  Biso   1.000  H
  H22      1.0000 0.88160  0.06160  0.53750  Biso   1.000  H
  H23      1.0000 0.32750  0.19730  0.43820  Biso   1.000  H
  H24      1.0000 0.52690  0.02550  0.23500  Biso   1.000  H
  C1       1.0000 0.82710  0.83100  0.32890  Biso   1.000  C
  C2       1.0000 0.12990  0.95400  0.18530  Biso   1.000  C
  C3       1.0000 0.21970  0.57010  0.44780  Biso   1.000  C
  C4       1.0000 0.71050  0.57720  0.04620  Biso   1.000  C
  C5       1.0000 0.11070  0.74180  0.97300  Biso   1.000  C
  C6       1.0000 0.99150  0.48420  0.78820  Biso   1.000  C
  C7       1.0000 0.32710  0.66900  0.17110  Biso   1.000  C
  C8       1.0000 0.62990  0.54600  0.31470  Biso   1.000  C
  C9       1.0000 0.71970  0.92990  0.05220  Biso   1.000  C
  C10      1.0000 0.21050  0.92280  0.45380  Biso   1.000  C
  C11      1.0000 0.61070  0.75820  0.52700  Biso   1.000  C
  C12      1.0000 0.49150  0.01580  0.71180  Biso   1.000  C
  C13      1.0000 0.17290  0.16900  0.67110  Biso   1.000  C
  C14      1.0000 0.87010  0.04600  0.81470  Biso   1.000  C
  C15      1.0000 0.78030  0.42990  0.55220  Biso   1.000  C
  C16      1.0000 0.28950  0.42280  0.95380  Biso   1.000  C
  C17      1.0000 0.88930  0.25820  0.02700  Biso   1.000  C
  C18      1.0000 0.00850  0.51580  0.21180  Biso   1.000  C
  C19      1.0000 0.67290  0.33100  0.82890  Biso   1.000  C
  C20      1.0000 0.37010  0.45400  0.68530  Biso   1.000  C
  C21      1.0000 0.28030  0.07010  0.94780  Biso   1.000  C
  C22      1.0000 0.78950  0.07720  0.54620  Biso   1.000  C
  C23      1.0000 0.38930  0.24180  0.47300  Biso   1.000  C
  C24      1.0000 0.50850  0.98420  0.28820  Biso   1.000  C
  O1       1.0000 0.79910  0.81090  0.24510  Biso   1.000  O
  O2       1.0000 0.93850  0.81630  0.36700  Biso   1.000  O
  O3       1.0000 0.08270  0.85030  0.19498  Biso   1.000  O
  O4       1.0000 0.10760  0.02190  0.12280  Biso   1.000  O
  O5       1.0000 0.12040  0.61160  0.40750  Biso   1.000  O
  O6       1.0000 0.34420  0.60230  0.43965  Biso   1.000  O
  O7       1.0000 0.74170  0.65310  0.10862  Biso   1.000  O
  O8       1.0000 0.79160  0.52190  0.99570  Biso   1.000  O
  O9       1.0000 0.02980  0.68480  0.02415  Biso   1.000  O
  O10      1.0000 0.11460  0.85070  0.96550  Biso   1.000  O
  O11      1.0000 0.99740  0.37150  0.78104  Biso   1.000  O
  O12      1.0000 0.00810  0.54360  0.86000  Biso   1.000  O
  O13      1.0000 0.29910  0.68910  0.25490  Biso   1.000  O
  O14      1.0000 0.43850  0.68370  0.13300  Biso   1.000  O
  O15      1.0000 0.58270  0.64970  0.30502  Biso   1.000  O
  O16      1.0000 0.60760  0.47810  0.37720  Biso   1.000  O
  O17      1.0000 0.62040  0.88840  0.09250  Biso   1.000  O
  O18      1.0000 0.84420  0.89770  0.06035  Biso   1.000  O
  O19      1.0000 0.24170  0.84690  0.39138  Biso   1.000  O
  O20      1.0000 0.29160  0.97810  0.50430  Biso   1.000  O
  O21      1.0000 0.52980  0.81520  0.47585  Biso   1.000  O
  O22      1.0000 0.61460  0.64930  0.53450  Biso   1.000  O
  O23      1.0000 0.49740  0.12850  0.71896  Biso   1.000  O
  O24      1.0000 0.50810  0.95640  0.64000  Biso   1.000  O
  O25      1.0000 0.20090  0.18910  0.75490  Biso   1.000  O
  O26      1.0000 0.06150  0.18370  0.63300  Biso   1.000  O
  O27      1.0000 0.91730  0.14970  0.80502  Biso   1.000  O
  O28      1.0000 0.89240  0.97810  0.87720  Biso   1.000  O
  O29      1.0000 0.87960  0.38840  0.59250  Biso   1.000  O
  O30      1.0000 0.65580  0.39770  0.56035  Biso   1.000  O
  O31      1.0000 0.25830  0.34690  0.89138  Biso   1.000  O
  O32      1.0000 0.20840  0.47810  0.00430  Biso   1.000  O
  O33      1.0000 0.97020  0.31520  0.97585  Biso   1.000  O
  O34      1.0000 0.88540  0.14930  0.03450  Biso   1.000  O
  O35      1.0000 0.00260  0.62850  0.21896  Biso   1.000  O
  O36      1.0000 0.99190  0.45640  0.14000  Biso   1.000  O
  O37      1.0000 0.70090  0.31090  0.74510  Biso   1.000  O
  O38      1.0000 0.56150  0.31630  0.86700  Biso   1.000  O
  O39      1.0000 0.41730  0.35030  0.69498  Biso   1.000  O
  O40      1.0000 0.39240  0.52190  0.62280  Biso   1.000  O
  O41      1.0000 0.37960  0.11160  0.90750  Biso   1.000  O
  O42      1.0000 0.15580  0.10230  0.93965  Biso   1.000  O
  O43      1.0000 0.75830  0.15310  0.60862  Biso   1.000  O
  O44      1.0000 0.70840  0.02190  0.49570  Biso   1.000  O
  O45      1.0000 0.47020  0.18480  0.52415  Biso   1.000  O
  O46      1.0000 0.38540  0.35070  0.46550  Biso   1.000  O
  O47      1.0000 0.50260  0.87150  0.28104  Biso   1.000  O
  O48      1.0000 0.49190  0.04360  0.36000  Biso   1.000  O
