data_image0
_cell_length_a       6.98752
_cell_length_b       15.7563
_cell_length_c       15.7563
_cell_angle_alpha    62.1459
_cell_angle_beta     81.4991
_cell_angle_gamma    98.5009

_symmetry_space_group_name_H-M    P 1
_symmetry_int_tables_number       1

loop_
  _symmetry_equiv_pos_as_xyz
  'x, y, z'

loop_
  _atom_site_label
  _atom_site_occupancy
  _atom_site_fract_x
  _atom_site_fract_y
  _atom_site_fract_z
  _atom_site_thermal_displace_type
  _atom_site_B_iso_or_equiv
  _atom_site_type_symbol
  Cu1      1.0000 0.53900  0.43220  0.09829  Biso   1.000  Cu
  Cu2      1.0000 0.63729  0.09829  0.46951  Biso   1.000  Cu
  Cu3      1.0000 0.10680  0.46951  0.43220  Biso   1.000  Cu
  Cu4      1.0000 0.46100  0.56780  0.90171  Biso   1.000  Cu
  Cu5      1.0000 0.36271  0.90171  0.53049  Biso   1.000  Cu
  Cu6      1.0000 0.89320  0.53049  0.56780  Biso   1.000  Cu
  H1       1.0000 0.79760  0.34110  0.28430  Biso   1.000  H
  H2       1.0000 0.87890  0.30760  0.20940  Biso   1.000  H
  H3       1.0000 0.04090  0.48860  0.13900  Biso   1.000  H
  H4       1.0000 0.22540  0.65010  0.04670  Biso   1.000  H
  H5       1.0000 0.27850  0.81370  0.92920  Biso   1.000  H
  H6       1.0000 0.03790  0.86480  0.84320  Biso   1.000  H
  H7       1.0000 0.75330  0.75400  0.87010  Biso   1.000  H
  H8       1.0000 0.08190  0.28430  0.37460  Biso   1.000  H
  H9       1.0000 0.08830  0.20940  0.48300  Biso   1.000  H
  H10      1.0000 0.17990  0.13900  0.37240  Biso   1.000  H
  H11      1.0000 0.27210  0.04670  0.30320  Biso   1.000  H
  H12      1.0000 0.20770  0.92920  0.25710  Biso   1.000  H
  H13      1.0000 0.88110  0.84320  0.29200  Biso   1.000  H
  H14      1.0000 0.62340  0.87010  0.37590  Biso   1.000  H
  H15      1.0000 0.45650  0.37460  0.34110  Biso   1.000  H
  H16      1.0000 0.57130  0.48300  0.30760  Biso   1.000  H
  H17      1.0000 0.55230  0.37240  0.48860  Biso   1.000  H
  H18      1.0000 0.57530  0.30320  0.65010  Biso   1.000  H
  H19      1.0000 0.46480  0.25710  0.81370  Biso   1.000  H
  H20      1.0000 0.17310  0.29200  0.86480  Biso   1.000  H
  H21      1.0000 0.99930  0.37590  0.75400  Biso   1.000  H
  H22      1.0000 0.20240  0.65890  0.71570  Biso   1.000  H
  H23      1.0000 0.12110  0.69240  0.79060  Biso   1.000  H
  H24      1.0000 0.95910  0.51140  0.86100  Biso   1.000  H
  H25      1.0000 0.77460  0.34990  0.95330  Biso   1.000  H
  H26      1.0000 0.72150  0.18630  0.07080  Biso   1.000  H
  H27      1.0000 0.96210  0.13520  0.15680  Biso   1.000  H
  H28      1.0000 0.24670  0.24600  0.12990  Biso   1.000  H
  H29      1.0000 0.91810  0.71570  0.62540  Biso   1.000  H
  H30      1.0000 0.91170  0.79060  0.51700  Biso   1.000  H
  H31      1.0000 0.82010  0.86100  0.62760  Biso   1.000  H
  H32      1.0000 0.72790  0.95330  0.69680  Biso   1.000  H
  H33      1.0000 0.79230  0.07080  0.74290  Biso   1.000  H
  H34      1.0000 0.11890  0.15680  0.70800  Biso   1.000  H
  H35      1.0000 0.37660  0.12990  0.62410  Biso   1.000  H
  H36      1.0000 0.54350  0.62540  0.65890  Biso   1.000  H
  H37      1.0000 0.42870  0.51700  0.69240  Biso   1.000  H
  H38      1.0000 0.44770  0.62760  0.51140  Biso   1.000  H
  H39      1.0000 0.42470  0.69680  0.34990  Biso   1.000  H
  H40      1.0000 0.53520  0.74290  0.18630  Biso   1.000  H
  H41      1.0000 0.82690  0.70800  0.13520  Biso   1.000  H
  H42      1.0000 0.00070  0.62410  0.24600  Biso   1.000  H
  C1       1.0000 0.57242  0.26363  0.25807  Biso   1.000  C
  C2       1.0000 0.77428  0.33393  0.22859  Biso   1.000  C
  C3       1.0000 0.93324  0.50158  0.11076  Biso   1.000  C
  C4       1.0000 0.95477  0.60067  0.03096  Biso   1.000  C
  C5       1.0000 0.12986  0.67057  0.01149  Biso   1.000  C
  C6       1.0000 0.16202  0.76825  0.94159  Biso   1.000  C
  C7       1.0000 0.01819  0.79820  0.88973  Biso   1.000  C
  C8       1.0000 0.84748  0.73161  0.90567  Biso   1.000  C
  C9       1.0000 0.81214  0.63021  0.97479  Biso   1.000  C
  C10      1.0000 0.83049  0.25807  0.47830  Biso   1.000  C
  C11      1.0000 0.00287  0.22859  0.43748  Biso   1.000  C
  C12      1.0000 0.04400  0.11076  0.38766  Biso   1.000  C
  C13      1.0000 0.98573  0.03096  0.36837  Biso   1.000  C
  C14      1.0000 0.14135  0.01149  0.31794  Biso   1.000  C
  C15      1.0000 0.10361  0.94159  0.29016  Biso   1.000  C
  C16      1.0000 0.90792  0.88973  0.31207  Biso   1.000  C
  C17      1.0000 0.75315  0.90567  0.36272  Biso   1.000  C
  C18      1.0000 0.78693  0.97479  0.39500  Biso   1.000  C
  C19      1.0000 0.30879  0.47830  0.26363  Biso   1.000  C
  C20      1.0000 0.44035  0.43748  0.33393  Biso   1.000  C
  C21      1.0000 0.43166  0.38766  0.50158  Biso   1.000  C
  C22      1.0000 0.35410  0.36837  0.60067  Biso   1.000  C
  C23      1.0000 0.45929  0.31794  0.67057  Biso   1.000  C
  C24      1.0000 0.39377  0.29016  0.76825  Biso   1.000  C
  C25      1.0000 0.21999  0.31207  0.79820  Biso   1.000  C
  C26      1.0000 0.11587  0.36272  0.73161  Biso   1.000  C
  C27      1.0000 0.18193  0.39500  0.63021  Biso   1.000  C
  C28      1.0000 0.42758  0.73637  0.74193  Biso   1.000  C
  C29      1.0000 0.22572  0.66607  0.77141  Biso   1.000  C
  C30      1.0000 0.06676  0.49842  0.88924  Biso   1.000  C
  C31      1.0000 0.04523  0.39933  0.96904  Biso   1.000  C
  C32      1.0000 0.87014  0.32943  0.98851  Biso   1.000  C
  C33      1.0000 0.83798  0.23175  0.05841  Biso   1.000  C
  C34      1.0000 0.98181  0.20180  0.11027  Biso   1.000  C
  C35      1.0000 0.15252  0.26839  0.09433  Biso   1.000  C
  C36      1.0000 0.18786  0.36979  0.02521  Biso   1.000  C
  C37      1.0000 0.16951  0.74193  0.52170  Biso   1.000  C
  C38      1.0000 0.99713  0.77141  0.56252  Biso   1.000  C
  C39      1.0000 0.95600  0.88924  0.61234  Biso   1.000  C
  C40      1.0000 0.01427  0.96904  0.63163  Biso   1.000  C
  C41      1.0000 0.85865  0.98851  0.68206  Biso   1.000  C
  C42      1.0000 0.89639  0.05841  0.70984  Biso   1.000  C
  C43      1.0000 0.09208  0.11027  0.68793  Biso   1.000  C
  C44      1.0000 0.24685  0.09433  0.63728  Biso   1.000  C
  C45      1.0000 0.21307  0.02521  0.60500  Biso   1.000  C
  C46      1.0000 0.69121  0.52170  0.73637  Biso   1.000  C
  C47      1.0000 0.55965  0.56252  0.66607  Biso   1.000  C
  C48      1.0000 0.56834  0.61234  0.49842  Biso   1.000  C
  C49      1.0000 0.64590  0.63163  0.39933  Biso   1.000  C
  C50      1.0000 0.54071  0.68206  0.32943  Biso   1.000  C
  C51      1.0000 0.60623  0.70984  0.23175  Biso   1.000  C
  C52      1.0000 0.78001  0.68793  0.20180  Biso   1.000  C
  C53      1.0000 0.88413  0.63728  0.26839  Biso   1.000  C
  C54      1.0000 0.81807  0.60500  0.36979  Biso   1.000  C
  N1       1.0000 0.77822  0.43044  0.14558  Biso   1.000  N
  N2       1.0000 0.92380  0.14558  0.42398  Biso   1.000  N
  N3       1.0000 0.34778  0.42398  0.43044  Biso   1.000  N
  N4       1.0000 0.22178  0.56956  0.85442  Biso   1.000  N
  N5       1.0000 0.07620  0.85442  0.57602  Biso   1.000  N
  N6       1.0000 0.65222  0.57602  0.56956  Biso   1.000  N
  O1       1.0000 0.44942  0.29669  0.20683  Biso   1.000  O
  O2       1.0000 0.53531  0.17915  0.32962  Biso   1.000  O
  O3       1.0000 0.65089  0.56511  0.98514  Biso   1.000  O
  O4       1.0000 0.65625  0.20683  0.49648  Biso   1.000  O
  O5       1.0000 0.86493  0.32962  0.49123  Biso   1.000  O
  O6       1.0000 0.63603  0.98514  0.44975  Biso   1.000  O
  O7       1.0000 0.15273  0.49648  0.29669  Biso   1.000  O
  O8       1.0000 0.35616  0.49123  0.17915  Biso   1.000  O
  O9       1.0000 0.08578  0.44975  0.56511  Biso   1.000  O
  O10      1.0000 0.55058  0.70331  0.79317  Biso   1.000  O
  O11      1.0000 0.46469  0.82085  0.67038  Biso   1.000  O
  O12      1.0000 0.34911  0.43489  0.01486  Biso   1.000  O
  O13      1.0000 0.34375  0.79317  0.50352  Biso   1.000  O
  O14      1.0000 0.13507  0.67038  0.50877  Biso   1.000  O
  O15      1.0000 0.36397  0.01486  0.55025  Biso   1.000  O
  O16      1.0000 0.84727  0.50352  0.70331  Biso   1.000  O
  O17      1.0000 0.64384  0.50877  0.82085  Biso   1.000  O
  O18      1.0000 0.91422  0.55025  0.43489  Biso   1.000  O
