data_image0
_cell_length_a       23.532
_cell_length_b       23.532
_cell_length_c       23.181
_cell_angle_alpha    90
_cell_angle_beta     90
_cell_angle_gamma    90

_symmetry_space_group_name_H-M    "P 1"
_symmetry_int_tables_number       1

loop_
  _symmetry_equiv_pos_as_xyz
  'x, y, z'

loop_
  _atom_site_label
  _atom_site_occupancy
  _atom_site_fract_x
  _atom_site_fract_y
  _atom_site_fract_z
  _atom_site_thermal_displace_type
  _atom_site_B_iso_or_equiv
  _atom_site_type_symbol
  Ni1      1.0000 0.00200  0.74059  0.13910  Biso   1.000  Ni
  Au1      1.0000 0.86484  0.63983  0.27670  Biso   1.000  Au
  Au2      1.0000 0.13446  0.83913  0.99540  Biso   1.000  Au
  Au3      1.0000 0.89489  0.59416  0.01680  Biso   1.000  Au
  N1       1.0000 0.94750  0.70990  0.19850  Biso   1.000  N
  N2       1.0000 0.05740  0.76900  0.07590  Biso   1.000  N
  N3       1.0000 0.97510  0.67330  0.08890  Biso   1.000  N
  N4       1.0000 0.02800  0.80760  0.19020  Biso   1.000  N
  N5       1.0000 0.06720  0.69510  0.17440  Biso   1.000  N
  N6       1.0000 0.94120  0.78560  0.09950  Biso   1.000  N
  C1       1.0000 0.91610  0.68380  0.22640  Biso   1.000  C
  C2       1.0000 0.08660  0.79090  0.04270  Biso   1.000  C
  C3       1.0000 0.94840  0.64100  0.06190  Biso   1.000  C
  C4       1.0000 0.05250  0.84000  0.21650  Biso   1.000  C
  C5       1.0000 0.10460  0.67670  0.19700  Biso   1.000  C
  C6       1.0000 0.91080  0.81610  0.06960  Biso   1.000  C
  Ni2      1.0000 0.50200  0.24059  0.63910  Biso   1.000  Ni
  Au4      1.0000 0.36484  0.13983  0.77670  Biso   1.000  Au
  Au5      1.0000 0.63446  0.33913  0.49540  Biso   1.000  Au
  Au6      1.0000 0.39489  0.09416  0.51680  Biso   1.000  Au
  N7       1.0000 0.44750  0.20990  0.69850  Biso   1.000  N
  N8       1.0000 0.55740  0.26900  0.57590  Biso   1.000  N
  N9       1.0000 0.47510  0.17330  0.58890  Biso   1.000  N
  N10      1.0000 0.52800  0.30760  0.69020  Biso   1.000  N
  N11      1.0000 0.56720  0.19510  0.67440  Biso   1.000  N
  N12      1.0000 0.44120  0.28560  0.59950  Biso   1.000  N
  C7       1.0000 0.41610  0.18380  0.72640  Biso   1.000  C
  C8       1.0000 0.58660  0.29090  0.54270  Biso   1.000  C
  C9       1.0000 0.44840  0.14100  0.56190  Biso   1.000  C
  C10      1.0000 0.55250  0.34000  0.71650  Biso   1.000  C
  C11      1.0000 0.60460  0.17670  0.69700  Biso   1.000  C
  C12      1.0000 0.41080  0.31610  0.56960  Biso   1.000  C
  Ni3      1.0000 0.49800  0.75941  0.63910  Biso   1.000  Ni
  Au7      1.0000 0.63516  0.86017  0.77670  Biso   1.000  Au
  Au8      1.0000 0.36554  0.66087  0.49540  Biso   1.000  Au
  Au9      1.0000 0.60511  0.90584  0.51680  Biso   1.000  Au
  N13      1.0000 0.55250  0.79010  0.69850  Biso   1.000  N
  N14      1.0000 0.44260  0.73100  0.57590  Biso   1.000  N
  N15      1.0000 0.52490  0.82670  0.58890  Biso   1.000  N
  N16      1.0000 0.47200  0.69240  0.69020  Biso   1.000  N
  N17      1.0000 0.43280  0.80490  0.67440  Biso   1.000  N
  N18      1.0000 0.55880  0.71440  0.59950  Biso   1.000  N
  C13      1.0000 0.58390  0.81620  0.72640  Biso   1.000  C
  C14      1.0000 0.41340  0.70910  0.54270  Biso   1.000  C
  C15      1.0000 0.55160  0.85900  0.56190  Biso   1.000  C
  C16      1.0000 0.44750  0.66000  0.71650  Biso   1.000  C
  C17      1.0000 0.39540  0.82330  0.69700  Biso   1.000  C
  C18      1.0000 0.58920  0.68390  0.56960  Biso   1.000  C
  Ni4      1.0000 0.99800  0.25941  0.13910  Biso   1.000  Ni
  Au10     1.0000 0.13516  0.36017  0.27670  Biso   1.000  Au
  Au11     1.0000 0.86554  0.16087  0.99540  Biso   1.000  Au
  Au12     1.0000 0.10511  0.40584  0.01680  Biso   1.000  Au
  N19      1.0000 0.05250  0.29010  0.19850  Biso   1.000  N
  N20      1.0000 0.94260  0.23100  0.07590  Biso   1.000  N
  N21      1.0000 0.02490  0.32670  0.08890  Biso   1.000  N
  N22      1.0000 0.97200  0.19240  0.19020  Biso   1.000  N
  N23      1.0000 0.93280  0.30490  0.17440  Biso   1.000  N
  N24      1.0000 0.05880  0.21440  0.09950  Biso   1.000  N
  C19      1.0000 0.08390  0.31620  0.22640  Biso   1.000  C
  C20      1.0000 0.91340  0.20910  0.04270  Biso   1.000  C
  C21      1.0000 0.05160  0.35900  0.06190  Biso   1.000  C
  C22      1.0000 0.94750  0.16000  0.21650  Biso   1.000  C
  C23      1.0000 0.89540  0.32330  0.19700  Biso   1.000  C
  C24      1.0000 0.08920  0.18390  0.06960  Biso   1.000  C
  Ni5      1.0000 0.25941  0.50200  0.38910  Biso   1.000  Ni
  Au13     1.0000 0.36017  0.36484  0.52670  Biso   1.000  Au
  Au14     1.0000 0.16087  0.63446  0.24540  Biso   1.000  Au
  Au15     1.0000 0.40584  0.39489  0.26680  Biso   1.000  Au
  N25      1.0000 0.29010  0.44750  0.44850  Biso   1.000  N
  N26      1.0000 0.23100  0.55740  0.32590  Biso   1.000  N
  N27      1.0000 0.32670  0.47510  0.33890  Biso   1.000  N
  N28      1.0000 0.19240  0.52800  0.44020  Biso   1.000  N
  N29      1.0000 0.30490  0.56720  0.42440  Biso   1.000  N
  N30      1.0000 0.21440  0.44120  0.34950  Biso   1.000  N
  C25      1.0000 0.31620  0.41610  0.47640  Biso   1.000  C
  C26      1.0000 0.20910  0.58660  0.29270  Biso   1.000  C
  C27      1.0000 0.35900  0.44840  0.31190  Biso   1.000  C
  C28      1.0000 0.16000  0.55250  0.46650  Biso   1.000  C
  C29      1.0000 0.32330  0.60460  0.44700  Biso   1.000  C
  C30      1.0000 0.18390  0.41080  0.31960  Biso   1.000  C
  Ni6      1.0000 0.75941  0.00200  0.88910  Biso   1.000  Ni
  Au16     1.0000 0.86017  0.86484  0.02670  Biso   1.000  Au
  Au17     1.0000 0.66087  0.13446  0.74540  Biso   1.000  Au
  Au18     1.0000 0.90584  0.89489  0.76680  Biso   1.000  Au
  N31      1.0000 0.79010  0.94750  0.94850  Biso   1.000  N
  N32      1.0000 0.73100  0.05740  0.82590  Biso   1.000  N
  N33      1.0000 0.82670  0.97510  0.83890  Biso   1.000  N
  N34      1.0000 0.69240  0.02800  0.94020  Biso   1.000  N
  N35      1.0000 0.80490  0.06720  0.92440  Biso   1.000  N
  N36      1.0000 0.71440  0.94120  0.84950  Biso   1.000  N
  C31      1.0000 0.81620  0.91610  0.97640  Biso   1.000  C
  C32      1.0000 0.70910  0.08660  0.79270  Biso   1.000  C
  C33      1.0000 0.85900  0.94840  0.81190  Biso   1.000  C
  C34      1.0000 0.66000  0.05250  0.96650  Biso   1.000  C
  C35      1.0000 0.82330  0.10460  0.94700  Biso   1.000  C
  C36      1.0000 0.68390  0.91080  0.81960  Biso   1.000  C
  Ni7      1.0000 0.24059  0.99800  0.88910  Biso   1.000  Ni
  Au19     1.0000 0.13983  0.13516  0.02670  Biso   1.000  Au
  Au20     1.0000 0.33913  0.86554  0.74540  Biso   1.000  Au
  Au21     1.0000 0.09416  0.10511  0.76680  Biso   1.000  Au
  N37      1.0000 0.20990  0.05250  0.94850  Biso   1.000  N
  N38      1.0000 0.26900  0.94260  0.82590  Biso   1.000  N
  N39      1.0000 0.17330  0.02490  0.83890  Biso   1.000  N
  N40      1.0000 0.30760  0.97200  0.94020  Biso   1.000  N
  N41      1.0000 0.19510  0.93280  0.92440  Biso   1.000  N
  N42      1.0000 0.28560  0.05880  0.84950  Biso   1.000  N
  C37      1.0000 0.18380  0.08390  0.97640  Biso   1.000  C
  C38      1.0000 0.29090  0.91340  0.79270  Biso   1.000  C
  C39      1.0000 0.14100  0.05160  0.81190  Biso   1.000  C
  C40      1.0000 0.34000  0.94750  0.96650  Biso   1.000  C
  C41      1.0000 0.17670  0.89540  0.94700  Biso   1.000  C
  C42      1.0000 0.31610  0.08920  0.81960  Biso   1.000  C
  Ni8      1.0000 0.74059  0.49800  0.38910  Biso   1.000  Ni
  Au22     1.0000 0.63983  0.63516  0.52670  Biso   1.000  Au
  Au23     1.0000 0.83913  0.36554  0.24540  Biso   1.000  Au
  Au24     1.0000 0.59416  0.60511  0.26680  Biso   1.000  Au
  N43      1.0000 0.70990  0.55250  0.44850  Biso   1.000  N
  N44      1.0000 0.76900  0.44260  0.32590  Biso   1.000  N
  N45      1.0000 0.67330  0.52490  0.33890  Biso   1.000  N
  N46      1.0000 0.80760  0.47200  0.44020  Biso   1.000  N
  N47      1.0000 0.69510  0.43280  0.42440  Biso   1.000  N
  N48      1.0000 0.78560  0.55880  0.34950  Biso   1.000  N
  C43      1.0000 0.68380  0.58390  0.47640  Biso   1.000  C
  C44      1.0000 0.79090  0.41340  0.29270  Biso   1.000  C
  C45      1.0000 0.64100  0.55160  0.31190  Biso   1.000  C
  C46      1.0000 0.84000  0.44750  0.46650  Biso   1.000  C
  C47      1.0000 0.67670  0.39540  0.44700  Biso   1.000  C
  C48      1.0000 0.81610  0.58920  0.31960  Biso   1.000  C
  Ni9      1.0000 0.00200  0.25941  0.63910  Biso   1.000  Ni
  Au25     1.0000 0.86484  0.36017  0.77670  Biso   1.000  Au
  Au26     1.0000 0.13446  0.16087  0.49540  Biso   1.000  Au
  Au27     1.0000 0.89489  0.40584  0.51680  Biso   1.000  Au
  N49      1.0000 0.94750  0.29010  0.69850  Biso   1.000  N
  N50      1.0000 0.05740  0.23100  0.57590  Biso   1.000  N
  N51      1.0000 0.97510  0.32670  0.58890  Biso   1.000  N
  N52      1.0000 0.02800  0.19240  0.69020  Biso   1.000  N
  N53      1.0000 0.06720  0.30490  0.67440  Biso   1.000  N
  N54      1.0000 0.94120  0.21440  0.59950  Biso   1.000  N
  C49      1.0000 0.91610  0.31620  0.72640  Biso   1.000  C
  C50      1.0000 0.08660  0.20910  0.54270  Biso   1.000  C
  C51      1.0000 0.94840  0.35900  0.56190  Biso   1.000  C
  C52      1.0000 0.05250  0.16000  0.71650  Biso   1.000  C
  C53      1.0000 0.10460  0.32330  0.69700  Biso   1.000  C
  C54      1.0000 0.91080  0.18390  0.56960  Biso   1.000  C
  Ni10     1.0000 0.50200  0.75941  0.13910  Biso   1.000  Ni
  Au28     1.0000 0.36484  0.86017  0.27670  Biso   1.000  Au
  Au29     1.0000 0.63446  0.66087  0.99540  Biso   1.000  Au
  Au30     1.0000 0.39489  0.90584  0.01680  Biso   1.000  Au
  N55      1.0000 0.44750  0.79010  0.19850  Biso   1.000  N
  N56      1.0000 0.55740  0.73100  0.07590  Biso   1.000  N
  N57      1.0000 0.47510  0.82670  0.08890  Biso   1.000  N
  N58      1.0000 0.52800  0.69240  0.19020  Biso   1.000  N
  N59      1.0000 0.56720  0.80490  0.17440  Biso   1.000  N
  N60      1.0000 0.44120  0.71440  0.09950  Biso   1.000  N
  C55      1.0000 0.41610  0.81620  0.22640  Biso   1.000  C
  C56      1.0000 0.58660  0.70910  0.04270  Biso   1.000  C
  C57      1.0000 0.44840  0.85900  0.06190  Biso   1.000  C
  C58      1.0000 0.55250  0.66000  0.21650  Biso   1.000  C
  C59      1.0000 0.60460  0.82330  0.19700  Biso   1.000  C
  C60      1.0000 0.41080  0.68390  0.06960  Biso   1.000  C
  Ni11     1.0000 0.49800  0.24059  0.13910  Biso   1.000  Ni
  Au31     1.0000 0.63516  0.13983  0.27670  Biso   1.000  Au
  Au32     1.0000 0.36554  0.33913  0.99540  Biso   1.000  Au
  Au33     1.0000 0.60511  0.09416  0.01680  Biso   1.000  Au
  N61      1.0000 0.55250  0.20990  0.19850  Biso   1.000  N
  N62      1.0000 0.44260  0.26900  0.07590  Biso   1.000  N
  N63      1.0000 0.52490  0.17330  0.08890  Biso   1.000  N
  N64      1.0000 0.47200  0.30760  0.19020  Biso   1.000  N
  N65      1.0000 0.43280  0.19510  0.17440  Biso   1.000  N
  N66      1.0000 0.55880  0.28560  0.09950  Biso   1.000  N
  C61      1.0000 0.58390  0.18380  0.22640  Biso   1.000  C
  C62      1.0000 0.41340  0.29090  0.04270  Biso   1.000  C
  C63      1.0000 0.55160  0.14100  0.06190  Biso   1.000  C
  C64      1.0000 0.44750  0.34000  0.21650  Biso   1.000  C
  C65      1.0000 0.39540  0.17670  0.19700  Biso   1.000  C
  C66      1.0000 0.58920  0.31610  0.06960  Biso   1.000  C
  Ni12     1.0000 0.99800  0.74059  0.63910  Biso   1.000  Ni
  Au34     1.0000 0.13516  0.63983  0.77670  Biso   1.000  Au
  Au35     1.0000 0.86554  0.83913  0.49540  Biso   1.000  Au
  Au36     1.0000 0.10511  0.59416  0.51680  Biso   1.000  Au
  N67      1.0000 0.05250  0.70990  0.69850  Biso   1.000  N
  N68      1.0000 0.94260  0.76900  0.57590  Biso   1.000  N
  N69      1.0000 0.02490  0.67330  0.58890  Biso   1.000  N
  N70      1.0000 0.97200  0.80760  0.69020  Biso   1.000  N
  N71      1.0000 0.93280  0.69510  0.67440  Biso   1.000  N
  N72      1.0000 0.05880  0.78560  0.59950  Biso   1.000  N
  C67      1.0000 0.08390  0.68380  0.72640  Biso   1.000  C
  C68      1.0000 0.91340  0.79090  0.54270  Biso   1.000  C
  C69      1.0000 0.05160  0.64100  0.56190  Biso   1.000  C
  C70      1.0000 0.94750  0.84000  0.71650  Biso   1.000  C
  C71      1.0000 0.89540  0.67670  0.69700  Biso   1.000  C
  C72      1.0000 0.08920  0.81610  0.56960  Biso   1.000  C
  Ni13     1.0000 0.25941  0.49800  0.88910  Biso   1.000  Ni
  Au37     1.0000 0.36017  0.63516  0.02670  Biso   1.000  Au
  Au38     1.0000 0.16087  0.36554  0.74540  Biso   1.000  Au
  Au39     1.0000 0.40584  0.60511  0.76680  Biso   1.000  Au
  N73      1.0000 0.29010  0.55250  0.94850  Biso   1.000  N
  N74      1.0000 0.23100  0.44260  0.82590  Biso   1.000  N
  N75      1.0000 0.32670  0.52490  0.83890  Biso   1.000  N
  N76      1.0000 0.19240  0.47200  0.94020  Biso   1.000  N
  N77      1.0000 0.30490  0.43280  0.92440  Biso   1.000  N
  N78      1.0000 0.21440  0.55880  0.84950  Biso   1.000  N
  C73      1.0000 0.31620  0.58390  0.97640  Biso   1.000  C
  C74      1.0000 0.20910  0.41340  0.79270  Biso   1.000  C
  C75      1.0000 0.35900  0.55160  0.81190  Biso   1.000  C
  C76      1.0000 0.16000  0.44750  0.96650  Biso   1.000  C
  C77      1.0000 0.32330  0.39540  0.94700  Biso   1.000  C
  C78      1.0000 0.18390  0.58920  0.81960  Biso   1.000  C
  Ni14     1.0000 0.75941  0.99800  0.38910  Biso   1.000  Ni
  Au40     1.0000 0.86017  0.13516  0.52670  Biso   1.000  Au
  Au41     1.0000 0.66087  0.86554  0.24540  Biso   1.000  Au
  Au42     1.0000 0.90584  0.10511  0.26680  Biso   1.000  Au
  N79      1.0000 0.79010  0.05250  0.44850  Biso   1.000  N
  N80      1.0000 0.73100  0.94260  0.32590  Biso   1.000  N
  N81      1.0000 0.82670  0.02490  0.33890  Biso   1.000  N
  N82      1.0000 0.69240  0.97200  0.44020  Biso   1.000  N
  N83      1.0000 0.80490  0.93280  0.42440  Biso   1.000  N
  N84      1.0000 0.71440  0.05880  0.34950  Biso   1.000  N
  C79      1.0000 0.81620  0.08390  0.47640  Biso   1.000  C
  C80      1.0000 0.70910  0.91340  0.29270  Biso   1.000  C
  C81      1.0000 0.85900  0.05160  0.31190  Biso   1.000  C
  C82      1.0000 0.66000  0.94750  0.46650  Biso   1.000  C
  C83      1.0000 0.82330  0.89540  0.44700  Biso   1.000  C
  C84      1.0000 0.68390  0.08920  0.31960  Biso   1.000  C
  Ni15     1.0000 0.24059  0.00200  0.38910  Biso   1.000  Ni
  Au43     1.0000 0.13983  0.86484  0.52670  Biso   1.000  Au
  Au44     1.0000 0.33913  0.13446  0.24540  Biso   1.000  Au
  Au45     1.0000 0.09416  0.89489  0.26680  Biso   1.000  Au
  N85      1.0000 0.20990  0.94750  0.44850  Biso   1.000  N
  N86      1.0000 0.26900  0.05740  0.32590  Biso   1.000  N
  N87      1.0000 0.17330  0.97510  0.33890  Biso   1.000  N
  N88      1.0000 0.30760  0.02800  0.44020  Biso   1.000  N
  N89      1.0000 0.19510  0.06720  0.42440  Biso   1.000  N
  N90      1.0000 0.28560  0.94120  0.34950  Biso   1.000  N
  C85      1.0000 0.18380  0.91610  0.47640  Biso   1.000  C
  C86      1.0000 0.29090  0.08660  0.29270  Biso   1.000  C
  C87      1.0000 0.14100  0.94840  0.31190  Biso   1.000  C
  C88      1.0000 0.34000  0.05250  0.46650  Biso   1.000  C
  C89      1.0000 0.17670  0.10460  0.44700  Biso   1.000  C
  C90      1.0000 0.31610  0.91080  0.31960  Biso   1.000  C
  Ni16     1.0000 0.74059  0.50200  0.88910  Biso   1.000  Ni
  Au46     1.0000 0.63983  0.36484  0.02670  Biso   1.000  Au
  Au47     1.0000 0.83913  0.63446  0.74540  Biso   1.000  Au
  Au48     1.0000 0.59416  0.39489  0.76680  Biso   1.000  Au
  N91      1.0000 0.70990  0.44750  0.94850  Biso   1.000  N
  N92      1.0000 0.76900  0.55740  0.82590  Biso   1.000  N
  N93      1.0000 0.67330  0.47510  0.83890  Biso   1.000  N
  N94      1.0000 0.80760  0.52800  0.94020  Biso   1.000  N
  N95      1.0000 0.69510  0.56720  0.92440  Biso   1.000  N
  N96      1.0000 0.78560  0.44120  0.84950  Biso   1.000  N
  C91      1.0000 0.68380  0.41610  0.97640  Biso   1.000  C
  C92      1.0000 0.79090  0.58660  0.79270  Biso   1.000  C
  C93      1.0000 0.64100  0.44840  0.81190  Biso   1.000  C
  C94      1.0000 0.84000  0.55250  0.96650  Biso   1.000  C
  C95      1.0000 0.67670  0.60460  0.94700  Biso   1.000  C
  C96      1.0000 0.81610  0.41080  0.81960  Biso   1.000  C
