data_image0
_cell_length_a       11.5516
_cell_length_b       17.1677
_cell_length_c       8.7185
_cell_angle_alpha    90
_cell_angle_beta     130.635
_cell_angle_gamma    90

_symmetry_space_group_name_H-M    "P 1"
_symmetry_int_tables_number       1

loop_
  _symmetry_equiv_pos_as_xyz
  'x, y, z'

loop_
  _atom_site_label
  _atom_site_occupancy
  _atom_site_fract_x
  _atom_site_fract_y
  _atom_site_fract_z
  _atom_site_thermal_displace_type
  _atom_site_B_iso_or_equiv
  _atom_site_type_symbol
  Y1       1.0000 0.44100  0.12800  0.26050  Biso   1.000  Y
  O1       1.0000 0.67060  0.17050  0.36150  Biso   1.000  O
  O2       1.0000 0.56850  0.07590  0.58430  Biso   1.000  O
  O3       1.0000 0.52380  0.23650  0.47220  Biso   1.000  O
  O4       1.0000 0.70810  0.32500  0.65240  Biso   1.000  O
  O5       1.0000 0.85230  0.26310  0.53840  Biso   1.000  O
  O6       1.0000 0.57220  0.98340  0.77000  Biso   1.000  O
  O7       1.0000 0.31850  0.92160  0.43300  Biso   1.000  O
  O8       1.0000 0.30930  0.01760  0.25300  Biso   1.000  O
  C1       1.0000 0.73710  0.23430  0.48420  Biso   1.000  C
  C2       1.0000 0.65290  0.27170  0.54950  Biso   1.000  C
  C3       1.0000 0.51900  0.01940  0.60560  Biso   1.000  C
  C4       1.0000 0.37140  0.98440  0.41300  Biso   1.000  C
  Y2       1.0000 0.94100  0.62800  0.26050  Biso   1.000  Y
  O9       1.0000 0.17060  0.67050  0.36150  Biso   1.000  O
  O10      1.0000 0.06850  0.57590  0.58430  Biso   1.000  O
  O11      1.0000 0.02380  0.73650  0.47220  Biso   1.000  O
  O12      1.0000 0.20810  0.82500  0.65240  Biso   1.000  O
  O13      1.0000 0.35230  0.76310  0.53840  Biso   1.000  O
  O14      1.0000 0.07220  0.48340  0.77000  Biso   1.000  O
  O15      1.0000 0.81850  0.42160  0.43300  Biso   1.000  O
  O16      1.0000 0.80930  0.51760  0.25300  Biso   1.000  O
  C5       1.0000 0.23710  0.73430  0.48420  Biso   1.000  C
  C6       1.0000 0.15290  0.77170  0.54950  Biso   1.000  C
  C7       1.0000 0.01900  0.51940  0.60560  Biso   1.000  C
  C8       1.0000 0.87140  0.48440  0.41300  Biso   1.000  C
  Y3       1.0000 0.44100  0.87200  0.76050  Biso   1.000  Y
  O17      1.0000 0.67060  0.82950  0.86150  Biso   1.000  O
  O18      1.0000 0.56850  0.92410  0.08430  Biso   1.000  O
  O19      1.0000 0.52380  0.76350  0.97220  Biso   1.000  O
  O20      1.0000 0.70810  0.67500  0.15240  Biso   1.000  O
  O21      1.0000 0.85230  0.73690  0.03840  Biso   1.000  O
  O22      1.0000 0.57220  0.01660  0.27000  Biso   1.000  O
  O23      1.0000 0.31850  0.07840  0.93300  Biso   1.000  O
  O24      1.0000 0.30930  0.98240  0.75300  Biso   1.000  O
  C9       1.0000 0.73710  0.76570  0.98420  Biso   1.000  C
  C10      1.0000 0.65290  0.72830  0.04950  Biso   1.000  C
  C11      1.0000 0.51900  0.98060  0.10560  Biso   1.000  C
  C12      1.0000 0.37140  0.01560  0.91300  Biso   1.000  C
  Y4       1.0000 0.94100  0.37200  0.76050  Biso   1.000  Y
  O25      1.0000 0.17060  0.32950  0.86150  Biso   1.000  O
  O26      1.0000 0.06850  0.42410  0.08430  Biso   1.000  O
  O27      1.0000 0.02380  0.26350  0.97220  Biso   1.000  O
  O28      1.0000 0.20810  0.17500  0.15240  Biso   1.000  O
  O29      1.0000 0.35230  0.23690  0.03840  Biso   1.000  O
  O30      1.0000 0.07220  0.51660  0.27000  Biso   1.000  O
  O31      1.0000 0.81850  0.57840  0.93300  Biso   1.000  O
  O32      1.0000 0.80930  0.48240  0.75300  Biso   1.000  O
  C13      1.0000 0.23710  0.26570  0.98420  Biso   1.000  C
  C14      1.0000 0.15290  0.22830  0.04950  Biso   1.000  C
  C15      1.0000 0.01900  0.48060  0.10560  Biso   1.000  C
  C16      1.0000 0.87140  0.51560  0.91300  Biso   1.000  C
