data_image0
_cell_length_a       13.941
_cell_length_b       15.075
_cell_length_c       15.075
_cell_angle_alpha    82.15
_cell_angle_beta     87.23
_cell_angle_gamma    87.23

_symmetry_space_group_name_H-M    P 1
_symmetry_int_tables_number       1

loop_
  _symmetry_equiv_pos_as_xyz
  'x, y, z'

loop_
  _atom_site_label
  _atom_site_occupancy
  _atom_site_fract_x
  _atom_site_fract_y
  _atom_site_fract_z
  _atom_site_thermal_displace_type
  _atom_site_B_iso_or_equiv
  _atom_site_type_symbol
  Cu1      1.0000 0.79398  0.15934  0.38270  Biso   1.000  Cu
  Cu2      1.0000 0.60497  0.16514  0.38993  Biso   1.000  Cu
  H1       1.0000 0.83950  0.11930  0.66680  Biso   1.000  H
  H2       1.0000 0.83650  0.10870  0.82630  Biso   1.000  H
  H3       1.0000 0.56310  0.20810  0.81350  Biso   1.000  H
  H4       1.0000 0.56450  0.19000  0.67360  Biso   1.000  H
  H5       1.0000 0.84500  0.10660  0.95230  Biso   1.000  H
  H6       1.0000 0.84450  0.11210  0.10900  Biso   1.000  H
  H7       1.0000 0.57370  0.24340  0.10110  Biso   1.000  H
  H8       1.0000 0.57330  0.22880  0.94980  Biso   1.000  H
  H9       1.0000 0.55030  0.88530  0.43340  Biso   1.000  H
  H10      1.0000 0.55290  0.73120  0.43490  Biso   1.000  H
  H11      1.0000 0.83620  0.72400  0.34100  Biso   1.000  H
  H12      1.0000 0.84020  0.87830  0.34330  Biso   1.000  H
  H13      1.0000 0.57520  0.58760  0.46780  Biso   1.000  H
  H14      1.0000 0.56890  0.43940  0.45080  Biso   1.000  H
  H15      1.0000 0.82530  0.44600  0.31370  Biso   1.000  H
  H16      1.0000 0.82800  0.60110  0.32250  Biso   1.000  H
  H17      1.0000 0.42940  0.29610  0.34550  Biso   1.000  H
  H18      1.0000 0.26800  0.30050  0.33700  Biso   1.000  H
  H19      1.0000 0.27750  0.03000  0.40880  Biso   1.000  H
  H20      1.0000 0.44080  0.03720  0.40820  Biso   1.000  H
  H21      1.0000 0.12340  0.28090  0.28840  Biso   1.000  H
  H22      1.0000 0.95850  0.27580  0.29780  Biso   1.000  H
  H23      1.0000 0.96490  0.05570  0.46680  Biso   1.000  H
  H24      1.0000 0.13270  0.04930  0.46230  Biso   1.000  H
  C1       1.0000 0.70160  0.15400  0.55470  Biso   1.000  C
  C2       1.0000 0.70260  0.15580  0.65350  Biso   1.000  C
  C3       1.0000 0.78170  0.13410  0.69860  Biso   1.000  C
  C4       1.0000 0.78220  0.13300  0.79380  Biso   1.000  C
  C5       1.0000 0.70480  0.16530  0.83570  Biso   1.000  C
  C6       1.0000 0.62100  0.18700  0.78500  Biso   1.000  C
  C7       1.0000 0.62300  0.17900  0.70400  Biso   1.000  C
  C8       1.0000 0.70650  0.16890  0.93500  Biso   1.000  C
  C9       1.0000 0.79200  0.13200  0.98300  Biso   1.000  C
  C10      1.0000 0.79100  0.13600  0.07500  Biso   1.000  C
  C11      1.0000 0.70900  0.17570  0.11940  Biso   1.000  C
  C12      1.0000 0.62600  0.21500  0.07200  Biso   1.000  C
  C13      1.0000 0.62800  0.20700  0.98200  Biso   1.000  C
  C14      1.0000 0.70520  0.17480  0.21730  Biso   1.000  C
  C15      1.0000 0.70020  0.99470  0.39150  Biso   1.000  C
  C16      1.0000 0.69930  0.89550  0.39370  Biso   1.000  C
  C17      1.0000 0.60700  0.85200  0.41800  Biso   1.000  C
  C18      1.0000 0.61000  0.76250  0.41800  Biso   1.000  C
  C19      1.0000 0.69620  0.71110  0.39140  Biso   1.000  C
  C20      1.0000 0.78100  0.75600  0.36200  Biso   1.000  C
  C21      1.0000 0.78400  0.84700  0.36300  Biso   1.000  C
  C22      1.0000 0.69380  0.61220  0.39140  Biso   1.000  C
  C23      1.0000 0.62400  0.56100  0.43300  Biso   1.000  C
  C24      1.0000 0.62300  0.47110  0.42600  Biso   1.000  C
  C25      1.0000 0.69010  0.42710  0.38710  Biso   1.000  C
  C26      1.0000 0.77400  0.47610  0.34330  Biso   1.000  C
  C27      1.0000 0.77500  0.56760  0.34770  Biso   1.000  C
  C28      1.0000 0.69110  0.33030  0.38330  Biso   1.000  C
  C29      1.0000 0.39770  0.24120  0.35910  Biso   1.000  C
  C30      1.0000 0.30190  0.24510  0.35440  Biso   1.000  C
  C31      1.0000 0.25240  0.16500  0.37600  Biso   1.000  C
  C32      1.0000 0.30680  0.08620  0.39590  Biso   1.000  C
  C33      1.0000 0.40500  0.09210  0.39600  Biso   1.000  C
  C34      1.0000 0.14720  0.16410  0.37590  Biso   1.000  C
  C35      1.0000 0.09290  0.23310  0.32500  Biso   1.000  C
  C36      1.0000 0.99520  0.22870  0.33050  Biso   1.000  C
  C37      1.0000 0.99790  0.10060  0.42830  Biso   1.000  C
  C38      1.0000 0.09870  0.09700  0.42770  Biso   1.000  C
  N1       1.0000 0.45390  0.16540  0.38150  Biso   1.000  N
  N2       1.0000 0.94690  0.16130  0.37960  Biso   1.000  N
  O1       1.0000 0.78030  0.14930  0.51190  Biso   1.000  O
  O2       1.0000 0.62160  0.15450  0.51990  Biso   1.000  O
  O3       1.0000 0.78680  0.16910  0.25270  Biso   1.000  O
  O4       1.0000 0.62790  0.17960  0.25930  Biso   1.000  O
  O5       1.0000 0.62420  0.03640  0.39620  Biso   1.000  O
  O6       1.0000 0.78210  0.02920  0.38880  Biso   1.000  O
  O7       1.0000 0.61220  0.29400  0.38540  Biso   1.000  O
  O8       1.0000 0.77070  0.29030  0.37730  Biso   1.000  O
  Cu3      1.0000 0.20602  0.84066  0.61730  Biso   1.000  Cu
  Cu4      1.0000 0.39503  0.83486  0.61007  Biso   1.000  Cu
  H25      1.0000 0.16050  0.88070  0.33320  Biso   1.000  H
  H26      1.0000 0.16350  0.89130  0.17370  Biso   1.000  H
  H27      1.0000 0.43690  0.79190  0.18650  Biso   1.000  H
  H28      1.0000 0.43550  0.81000  0.32640  Biso   1.000  H
  H29      1.0000 0.15500  0.89340  0.04770  Biso   1.000  H
  H30      1.0000 0.15550  0.88790  0.89100  Biso   1.000  H
  H31      1.0000 0.42630  0.75660  0.89890  Biso   1.000  H
  H32      1.0000 0.42670  0.77120  0.05020  Biso   1.000  H
  H33      1.0000 0.44970  0.11470  0.56660  Biso   1.000  H
  H34      1.0000 0.44710  0.26880  0.56510  Biso   1.000  H
  H35      1.0000 0.16380  0.27600  0.65900  Biso   1.000  H
  H36      1.0000 0.15980  0.12170  0.65670  Biso   1.000  H
  H37      1.0000 0.42480  0.41240  0.53220  Biso   1.000  H
  H38      1.0000 0.43110  0.56060  0.54920  Biso   1.000  H
  H39      1.0000 0.17470  0.55400  0.68630  Biso   1.000  H
  H40      1.0000 0.17200  0.39890  0.67750  Biso   1.000  H
  H41      1.0000 0.57060  0.70390  0.65450  Biso   1.000  H
  H42      1.0000 0.73200  0.69950  0.66300  Biso   1.000  H
  H43      1.0000 0.72250  0.97000  0.59120  Biso   1.000  H
  H44      1.0000 0.55920  0.96280  0.59180  Biso   1.000  H
  H45      1.0000 0.87660  0.71910  0.71160  Biso   1.000  H
  H46      1.0000 0.04150  0.72420  0.70220  Biso   1.000  H
  H47      1.0000 0.03510  0.94430  0.53320  Biso   1.000  H
  H48      1.0000 0.86730  0.95070  0.53770  Biso   1.000  H
  C39      1.0000 0.29840  0.84600  0.44530  Biso   1.000  C
  C40      1.0000 0.29740  0.84420  0.34650  Biso   1.000  C
  C41      1.0000 0.21830  0.86590  0.30140  Biso   1.000  C
  C42      1.0000 0.21780  0.86700  0.20620  Biso   1.000  C
  C43      1.0000 0.29520  0.83470  0.16430  Biso   1.000  C
  C44      1.0000 0.37900  0.81300  0.21500  Biso   1.000  C
  C45      1.0000 0.37700  0.82100  0.29600  Biso   1.000  C
  C46      1.0000 0.29350  0.83110  0.06500  Biso   1.000  C
  C47      1.0000 0.20800  0.86800  0.01700  Biso   1.000  C
  C48      1.0000 0.20900  0.86400  0.92500  Biso   1.000  C
  C49      1.0000 0.29100  0.82430  0.88060  Biso   1.000  C
  C50      1.0000 0.37400  0.78500  0.92800  Biso   1.000  C
  C51      1.0000 0.37200  0.79300  0.01800  Biso   1.000  C
  C52      1.0000 0.29480  0.82520  0.78270  Biso   1.000  C
  C53      1.0000 0.29980  0.00530  0.60850  Biso   1.000  C
  C54      1.0000 0.30070  0.10450  0.60630  Biso   1.000  C
  C55      1.0000 0.39300  0.14800  0.58200  Biso   1.000  C
  C56      1.0000 0.39000  0.23750  0.58200  Biso   1.000  C
  C57      1.0000 0.30380  0.28890  0.60860  Biso   1.000  C
  C58      1.0000 0.21900  0.24400  0.63800  Biso   1.000  C
  C59      1.0000 0.21600  0.15300  0.63700  Biso   1.000  C
  C60      1.0000 0.30620  0.38780  0.60860  Biso   1.000  C
  C61      1.0000 0.37600  0.43900  0.56700  Biso   1.000  C
  C62      1.0000 0.37700  0.52890  0.57400  Biso   1.000  C
  C63      1.0000 0.30990  0.57290  0.61290  Biso   1.000  C
  C64      1.0000 0.22600  0.52390  0.65670  Biso   1.000  C
  C65      1.0000 0.22500  0.43240  0.65230  Biso   1.000  C
  C66      1.0000 0.30890  0.66970  0.61670  Biso   1.000  C
  C67      1.0000 0.60230  0.75880  0.64090  Biso   1.000  C
  C68      1.0000 0.69810  0.75490  0.64560  Biso   1.000  C
  C69      1.0000 0.74760  0.83500  0.62400  Biso   1.000  C
  C70      1.0000 0.69320  0.91380  0.60410  Biso   1.000  C
  C71      1.0000 0.59500  0.90790  0.60400  Biso   1.000  C
  C72      1.0000 0.85280  0.83590  0.62410  Biso   1.000  C
  C73      1.0000 0.90710  0.76690  0.67500  Biso   1.000  C
  C74      1.0000 0.00480  0.77130  0.66950  Biso   1.000  C
  C75      1.0000 0.00210  0.89940  0.57170  Biso   1.000  C
  C76      1.0000 0.90130  0.90300  0.57230  Biso   1.000  C
  N3       1.0000 0.54610  0.83460  0.61850  Biso   1.000  N
  N4       1.0000 0.05310  0.83870  0.62040  Biso   1.000  N
  O9       1.0000 0.21970  0.85070  0.48810  Biso   1.000  O
  O10      1.0000 0.37840  0.84550  0.48010  Biso   1.000  O
  O11      1.0000 0.21320  0.83090  0.74730  Biso   1.000  O
  O12      1.0000 0.37210  0.82040  0.74070  Biso   1.000  O
  O13      1.0000 0.37580  0.96360  0.60380  Biso   1.000  O
  O14      1.0000 0.21790  0.97080  0.61120  Biso   1.000  O
  O15      1.0000 0.38780  0.70600  0.61460  Biso   1.000  O
  O16      1.0000 0.22930  0.70970  0.62270  Biso   1.000  O
