data_image0
_cell_length_a       13.0469
_cell_length_b       14.126
_cell_length_c       14.2105
_cell_angle_alpha    90
_cell_angle_beta     91.11
_cell_angle_gamma    90

_symmetry_space_group_name_H-M    "P 1"
_symmetry_int_tables_number       1

loop_
  _symmetry_equiv_pos_as_xyz
  'x, y, z'

loop_
  _atom_site_label
  _atom_site_occupancy
  _atom_site_fract_x
  _atom_site_fract_y
  _atom_site_fract_z
  _atom_site_thermal_displace_type
  _atom_site_B_iso_or_equiv
  _atom_site_type_symbol
  Co1      1.0000 0.23061  0.12332  0.26302  Biso   1.000  Co
  Co2      1.0000 0.94338  0.99903  0.31871  Biso   1.000  Co
  Co3      1.0000 0.24346  0.87217  0.28350  Biso   1.000  Co
  Co4      1.0000 0.15621  0.00824  0.67085  Biso   1.000  Co
  Co5      1.0000 0.61457  0.02064  0.41433  Biso   1.000  Co
  Co6      1.0000 0.74630  0.62470  0.31763  Biso   1.000  Co
  Co7      1.0000 0.77897  0.37874  0.30324  Biso   1.000  Co
  Co8      1.0000 0.05276  0.53225  0.27137  Biso   1.000  Co
  Co9      1.0000 0.34079  0.48494  0.41552  Biso   1.000  Co
  Co10     1.0000 0.37790  0.48211  0.16890  Biso   1.000  Co
  P1       1.0000 0.09689  0.98387  0.14303  Biso   1.000  P
  P2       1.0000 0.14257  0.99777  0.43721  Biso   1.000  P
  P3       1.0000 0.77141  0.14551  0.30124  Biso   1.000  P
  P4       1.0000 0.43707  0.01270  0.26139  Biso   1.000  P
  P5       1.0000 0.74963  0.85867  0.33134  Biso   1.000  P
  P6       1.0000 0.85426  0.53381  0.14634  Biso   1.000  P
  P7       1.0000 0.90075  0.50924  0.43940  Biso   1.000  P
  P8       1.0000 0.56060  0.48275  0.31834  Biso   1.000  P
  P9       1.0000 0.25166  0.64452  0.28721  Biso   1.000  P
  P10      1.0000 0.22016  0.36006  0.25666  Biso   1.000  P
  O1       1.0000 0.13960  0.89080  0.18410  Biso   1.000  O
  O2       1.0000 0.17640  0.06350  0.14710  Biso   1.000  O
  O3       1.0000 0.99900  0.01100  0.19470  Biso   1.000  O
  O4       1.0000 0.20460  0.91010  0.40690  Biso   1.000  O
  O5       1.0000 0.15770  0.08030  0.37060  Biso   1.000  O
  O6       1.0000 0.02880  0.97150  0.43110  Biso   1.000  O
  O7       1.0000 0.17470  0.02460  0.53710  Biso   1.000  O
  O8       1.0000 0.75900  0.08330  0.21240  Biso   1.000  O
  O9       1.0000 0.67860  0.13690  0.36610  Biso   1.000  O
  O10      1.0000 0.86830  0.11050  0.35610  Biso   1.000  O
  O11      1.0000 0.78590  0.24720  0.27100  Biso   1.000  O
  O12      1.0000 0.51550  0.02640  0.18370  Biso   1.000  O
  O13      1.0000 0.48590  0.98530  0.35510  Biso   1.000  O
  O14      1.0000 0.37800  0.10580  0.27210  Biso   1.000  O
  O15      1.0000 0.36260  0.93430  0.22940  Biso   1.000  O
  O16      1.0000 0.68370  0.87780  0.24200  Biso   1.000  O
  O17      1.0000 0.06630  0.96630  0.04010  Biso   1.000  O
  O18      1.0000 0.71680  0.91960  0.41400  Biso   1.000  O
  O19      1.0000 0.86510  0.87820  0.31270  Biso   1.000  O
  O20      1.0000 0.73960  0.75470  0.36160  Biso   1.000  O
  O21      1.0000 0.80200  0.56670  0.43010  Biso   1.000  O
  O22      1.0000 0.82210  0.62270  0.20250  Biso   1.000  O
  O23      1.0000 0.81490  0.54370  0.04520  Biso   1.000  O
  O24      1.0000 0.97110  0.52820  0.15100  Biso   1.000  O
  O25      1.0000 0.80370  0.44750  0.18760  Biso   1.000  O
  O26      1.0000 0.88660  0.41220  0.39230  Biso   1.000  O
  O27      1.0000 0.98880  0.56230  0.39060  Biso   1.000  O
  O28      1.0000 0.64410  0.41060  0.34770  Biso   1.000  O
  O29      1.0000 0.48790  0.48970  0.40050  Biso   1.000  O
  O30      1.0000 0.60660  0.58020  0.29960  Biso   1.000  O
  O31      1.0000 0.50740  0.44590  0.22870  Biso   1.000  O
  O32      1.0000 0.93110  0.49840  0.54240  Biso   1.000  O
  O33      1.0000 0.32100  0.59770  0.21580  Biso   1.000  O
  O34      1.0000 0.14020  0.64390  0.25140  Biso   1.000  O
  O35      1.0000 0.29050  0.74650  0.29730  Biso   1.000  O
  O36      1.0000 0.25890  0.59360  0.38220  Biso   1.000  O
  O37      1.0000 0.30300  0.37810  0.33150  Biso   1.000  O
  O38      1.0000 0.12080  0.41180  0.27920  Biso   1.000  O
  O39      1.0000 0.19390  0.25510  0.25160  Biso   1.000  O
  O40      1.0000 0.26210  0.39150  0.16070  Biso   1.000  O
  Co11     1.0000 0.73061  0.87668  0.76302  Biso   1.000  Co
  Co12     1.0000 0.44338  0.00097  0.81871  Biso   1.000  Co
  Co13     1.0000 0.74346  0.12783  0.78350  Biso   1.000  Co
  Co14     1.0000 0.65621  0.99176  0.17085  Biso   1.000  Co
  Co15     1.0000 0.11457  0.97936  0.91433  Biso   1.000  Co
  Co16     1.0000 0.24630  0.37530  0.81763  Biso   1.000  Co
  Co17     1.0000 0.27897  0.62126  0.80324  Biso   1.000  Co
  Co18     1.0000 0.55276  0.46775  0.77137  Biso   1.000  Co
  Co19     1.0000 0.84079  0.51506  0.91552  Biso   1.000  Co
  Co20     1.0000 0.87790  0.51789  0.66890  Biso   1.000  Co
  P11      1.0000 0.59689  0.01613  0.64303  Biso   1.000  P
  P12      1.0000 0.64257  0.00223  0.93721  Biso   1.000  P
  P13      1.0000 0.27141  0.85449  0.80124  Biso   1.000  P
  P14      1.0000 0.93707  0.98730  0.76139  Biso   1.000  P
  P15      1.0000 0.24963  0.14133  0.83134  Biso   1.000  P
  P16      1.0000 0.35426  0.46619  0.64634  Biso   1.000  P
  P17      1.0000 0.40075  0.49076  0.93940  Biso   1.000  P
  P18      1.0000 0.06060  0.51725  0.81834  Biso   1.000  P
  P19      1.0000 0.75166  0.35548  0.78721  Biso   1.000  P
  P20      1.0000 0.72016  0.63994  0.75666  Biso   1.000  P
  O41      1.0000 0.63960  0.10920  0.68410  Biso   1.000  O
  O42      1.0000 0.67640  0.93650  0.64710  Biso   1.000  O
  O43      1.0000 0.49900  0.98900  0.69470  Biso   1.000  O
  O44      1.0000 0.70460  0.08990  0.90690  Biso   1.000  O
  O45      1.0000 0.65770  0.91970  0.87060  Biso   1.000  O
  O46      1.0000 0.52880  0.02850  0.93110  Biso   1.000  O
  O47      1.0000 0.67470  0.97540  0.03710  Biso   1.000  O
  O48      1.0000 0.25900  0.91670  0.71240  Biso   1.000  O
  O49      1.0000 0.17860  0.86310  0.86610  Biso   1.000  O
  O50      1.0000 0.36830  0.88950  0.85610  Biso   1.000  O
  O51      1.0000 0.28590  0.75280  0.77100  Biso   1.000  O
  O52      1.0000 0.01550  0.97360  0.68370  Biso   1.000  O
  O53      1.0000 0.98590  0.01470  0.85510  Biso   1.000  O
  O54      1.0000 0.87800  0.89420  0.77210  Biso   1.000  O
  O55      1.0000 0.86260  0.06570  0.72940  Biso   1.000  O
  O56      1.0000 0.18370  0.12220  0.74200  Biso   1.000  O
  O57      1.0000 0.56630  0.03370  0.54010  Biso   1.000  O
  O58      1.0000 0.21680  0.08040  0.91400  Biso   1.000  O
  O59      1.0000 0.36510  0.12180  0.81270  Biso   1.000  O
  O60      1.0000 0.23960  0.24530  0.86160  Biso   1.000  O
  O61      1.0000 0.30200  0.43330  0.93010  Biso   1.000  O
  O62      1.0000 0.32210  0.37730  0.70250  Biso   1.000  O
  O63      1.0000 0.31490  0.45630  0.54520  Biso   1.000  O
  O64      1.0000 0.47110  0.47180  0.65100  Biso   1.000  O
  O65      1.0000 0.30370  0.55250  0.68760  Biso   1.000  O
  O66      1.0000 0.38660  0.58780  0.89230  Biso   1.000  O
  O67      1.0000 0.48880  0.43770  0.89060  Biso   1.000  O
  O68      1.0000 0.14410  0.58940  0.84770  Biso   1.000  O
  O69      1.0000 0.98790  0.51030  0.90050  Biso   1.000  O
  O70      1.0000 0.10660  0.41980  0.79960  Biso   1.000  O
  O71      1.0000 0.00740  0.55410  0.72870  Biso   1.000  O
  O72      1.0000 0.43110  0.50160  0.04240  Biso   1.000  O
  O73      1.0000 0.82100  0.40230  0.71580  Biso   1.000  O
  O74      1.0000 0.64020  0.35610  0.75140  Biso   1.000  O
  O75      1.0000 0.79050  0.25350  0.79730  Biso   1.000  O
  O76      1.0000 0.75890  0.40640  0.88220  Biso   1.000  O
  O77      1.0000 0.80300  0.62190  0.83150  Biso   1.000  O
  O78      1.0000 0.62080  0.58820  0.77920  Biso   1.000  O
  O79      1.0000 0.69390  0.74490  0.75160  Biso   1.000  O
  O80      1.0000 0.76210  0.60850  0.66070  Biso   1.000  O
