data_image0
_cell_length_a       25.8421
_cell_length_b       25.8421
_cell_length_c       25.8421
_cell_angle_alpha    90
_cell_angle_beta     90
_cell_angle_gamma    90

_symmetry_space_group_name_H-M    "P 1"
_symmetry_int_tables_number       1

loop_
  _symmetry_equiv_pos_as_xyz
  'x, y, z'

loop_
  _atom_site_label
  _atom_site_occupancy
  _atom_site_fract_x
  _atom_site_fract_y
  _atom_site_fract_z
  _atom_site_thermal_displace_type
  _atom_site_B_iso_or_equiv
  _atom_site_type_symbol
  H1       1.0000 0.31180  0.14490  0.04130  Biso   1.000  H
  H2       1.0000 0.31180  0.64490  0.54130  Biso   1.000  H
  H3       1.0000 0.81180  0.14490  0.54130  Biso   1.000  H
  H4       1.0000 0.81180  0.64490  0.04130  Biso   1.000  H
  H5       1.0000 0.68820  0.85510  0.04130  Biso   1.000  H
  H6       1.0000 0.68820  0.35510  0.54130  Biso   1.000  H
  H7       1.0000 0.18820  0.85510  0.54130  Biso   1.000  H
  H8       1.0000 0.18820  0.35510  0.04130  Biso   1.000  H
  H9       1.0000 0.68820  0.14490  0.95870  Biso   1.000  H
  H10      1.0000 0.68820  0.64490  0.45870  Biso   1.000  H
  H11      1.0000 0.18820  0.14490  0.45870  Biso   1.000  H
  H12      1.0000 0.18820  0.64490  0.95870  Biso   1.000  H
  H13      1.0000 0.31180  0.85510  0.95870  Biso   1.000  H
  H14      1.0000 0.31180  0.35510  0.45870  Biso   1.000  H
  H15      1.0000 0.81180  0.85510  0.45870  Biso   1.000  H
  H16      1.0000 0.81180  0.35510  0.95870  Biso   1.000  H
  H17      1.0000 0.04130  0.31180  0.14490  Biso   1.000  H
  H18      1.0000 0.04130  0.81180  0.64490  Biso   1.000  H
  H19      1.0000 0.54130  0.31180  0.64490  Biso   1.000  H
  H20      1.0000 0.54130  0.81180  0.14490  Biso   1.000  H
  H21      1.0000 0.04130  0.68820  0.85510  Biso   1.000  H
  H22      1.0000 0.04130  0.18820  0.35510  Biso   1.000  H
  H23      1.0000 0.54130  0.68820  0.35510  Biso   1.000  H
  H24      1.0000 0.54130  0.18820  0.85510  Biso   1.000  H
  H25      1.0000 0.95870  0.68820  0.14490  Biso   1.000  H
  H26      1.0000 0.95870  0.18820  0.64490  Biso   1.000  H
  H27      1.0000 0.45870  0.68820  0.64490  Biso   1.000  H
  H28      1.0000 0.45870  0.18820  0.14490  Biso   1.000  H
  H29      1.0000 0.95870  0.31180  0.85510  Biso   1.000  H
  H30      1.0000 0.95870  0.81180  0.35510  Biso   1.000  H
  H31      1.0000 0.45870  0.31180  0.35510  Biso   1.000  H
  H32      1.0000 0.45870  0.81180  0.85510  Biso   1.000  H
  H33      1.0000 0.14490  0.04130  0.31180  Biso   1.000  H
  H34      1.0000 0.14490  0.54130  0.81180  Biso   1.000  H
  H35      1.0000 0.64490  0.04130  0.81180  Biso   1.000  H
  H36      1.0000 0.64490  0.54130  0.31180  Biso   1.000  H
  H37      1.0000 0.85510  0.04130  0.68820  Biso   1.000  H
  H38      1.0000 0.85510  0.54130  0.18820  Biso   1.000  H
  H39      1.0000 0.35510  0.04130  0.18820  Biso   1.000  H
  H40      1.0000 0.35510  0.54130  0.68820  Biso   1.000  H
  H41      1.0000 0.14490  0.95870  0.68820  Biso   1.000  H
  H42      1.0000 0.14490  0.45870  0.18820  Biso   1.000  H
  H43      1.0000 0.64490  0.95870  0.18820  Biso   1.000  H
  H44      1.0000 0.64490  0.45870  0.68820  Biso   1.000  H
  H45      1.0000 0.85510  0.95870  0.31180  Biso   1.000  H
  H46      1.0000 0.85510  0.45870  0.81180  Biso   1.000  H
  H47      1.0000 0.35510  0.95870  0.81180  Biso   1.000  H
  H48      1.0000 0.35510  0.45870  0.31180  Biso   1.000  H
  H49      1.0000 0.14490  0.31180  0.95870  Biso   1.000  H
  H50      1.0000 0.14490  0.81180  0.45870  Biso   1.000  H
  H51      1.0000 0.64490  0.31180  0.45870  Biso   1.000  H
  H52      1.0000 0.64490  0.81180  0.95870  Biso   1.000  H
  H53      1.0000 0.85510  0.68820  0.95870  Biso   1.000  H
  H54      1.0000 0.85510  0.18820  0.45870  Biso   1.000  H
  H55      1.0000 0.35510  0.68820  0.45870  Biso   1.000  H
  H56      1.0000 0.35510  0.18820  0.95870  Biso   1.000  H
  H57      1.0000 0.14490  0.68820  0.04130  Biso   1.000  H
  H58      1.0000 0.14490  0.18820  0.54130  Biso   1.000  H
  H59      1.0000 0.64490  0.68820  0.54130  Biso   1.000  H
  H60      1.0000 0.64490  0.18820  0.04130  Biso   1.000  H
  H61      1.0000 0.85510  0.31180  0.04130  Biso   1.000  H
  H62      1.0000 0.85510  0.81180  0.54130  Biso   1.000  H
  H63      1.0000 0.35510  0.31180  0.54130  Biso   1.000  H
  H64      1.0000 0.35510  0.81180  0.04130  Biso   1.000  H
  H65      1.0000 0.31180  0.04130  0.85510  Biso   1.000  H
  H66      1.0000 0.31180  0.54130  0.35510  Biso   1.000  H
  H67      1.0000 0.81180  0.04130  0.35510  Biso   1.000  H
  H68      1.0000 0.81180  0.54130  0.85510  Biso   1.000  H
  H69      1.0000 0.68820  0.04130  0.14490  Biso   1.000  H
  H70      1.0000 0.68820  0.54130  0.64490  Biso   1.000  H
  H71      1.0000 0.18820  0.04130  0.64490  Biso   1.000  H
  H72      1.0000 0.18820  0.54130  0.14490  Biso   1.000  H
  H73      1.0000 0.68820  0.95870  0.85510  Biso   1.000  H
  H74      1.0000 0.68820  0.45870  0.35510  Biso   1.000  H
  H75      1.0000 0.18820  0.95870  0.35510  Biso   1.000  H
  H76      1.0000 0.18820  0.45870  0.85510  Biso   1.000  H
  H77      1.0000 0.31180  0.95870  0.14490  Biso   1.000  H
  H78      1.0000 0.31180  0.45870  0.64490  Biso   1.000  H
  H79      1.0000 0.81180  0.95870  0.64490  Biso   1.000  H
  H80      1.0000 0.81180  0.45870  0.14490  Biso   1.000  H
  H81      1.0000 0.04130  0.14490  0.68820  Biso   1.000  H
  H82      1.0000 0.04130  0.64490  0.18820  Biso   1.000  H
  H83      1.0000 0.54130  0.14490  0.18820  Biso   1.000  H
  H84      1.0000 0.54130  0.64490  0.68820  Biso   1.000  H
  H85      1.0000 0.04130  0.85510  0.31180  Biso   1.000  H
  H86      1.0000 0.04130  0.35510  0.81180  Biso   1.000  H
  H87      1.0000 0.54130  0.85510  0.81180  Biso   1.000  H
  H88      1.0000 0.54130  0.35510  0.31180  Biso   1.000  H
  H89      1.0000 0.95870  0.14490  0.31180  Biso   1.000  H
  H90      1.0000 0.95870  0.64490  0.81180  Biso   1.000  H
  H91      1.0000 0.45870  0.14490  0.81180  Biso   1.000  H
  H92      1.0000 0.45870  0.64490  0.31180  Biso   1.000  H
  H93      1.0000 0.95870  0.85510  0.68820  Biso   1.000  H
  H94      1.0000 0.95870  0.35510  0.18820  Biso   1.000  H
  H95      1.0000 0.45870  0.85510  0.18820  Biso   1.000  H
  H96      1.0000 0.45870  0.35510  0.68820  Biso   1.000  H
  H97      1.0000 0.68820  0.85510  0.95870  Biso   1.000  H
  H98      1.0000 0.68820  0.35510  0.45870  Biso   1.000  H
  H99      1.0000 0.18820  0.85510  0.45870  Biso   1.000  H
  H100     1.0000 0.18820  0.35510  0.95870  Biso   1.000  H
  H101     1.0000 0.31180  0.14490  0.95870  Biso   1.000  H
  H102     1.0000 0.31180  0.64490  0.45870  Biso   1.000  H
  H103     1.0000 0.81180  0.14490  0.45870  Biso   1.000  H
  H104     1.0000 0.81180  0.64490  0.95870  Biso   1.000  H
  H105     1.0000 0.31180  0.85510  0.04130  Biso   1.000  H
  H106     1.0000 0.31180  0.35510  0.54130  Biso   1.000  H
  H107     1.0000 0.81180  0.85510  0.54130  Biso   1.000  H
  H108     1.0000 0.81180  0.35510  0.04130  Biso   1.000  H
  H109     1.0000 0.68820  0.14490  0.04130  Biso   1.000  H
  H110     1.0000 0.68820  0.64490  0.54130  Biso   1.000  H
  H111     1.0000 0.18820  0.14490  0.54130  Biso   1.000  H
  H112     1.0000 0.18820  0.64490  0.04130  Biso   1.000  H
  H113     1.0000 0.95870  0.68820  0.85510  Biso   1.000  H
  H114     1.0000 0.95870  0.18820  0.35510  Biso   1.000  H
  H115     1.0000 0.45870  0.68820  0.35510  Biso   1.000  H
  H116     1.0000 0.45870  0.18820  0.85510  Biso   1.000  H
  H117     1.0000 0.95870  0.31180  0.14490  Biso   1.000  H
  H118     1.0000 0.95870  0.81180  0.64490  Biso   1.000  H
  H119     1.0000 0.45870  0.31180  0.64490  Biso   1.000  H
  H120     1.0000 0.45870  0.81180  0.14490  Biso   1.000  H
  H121     1.0000 0.04130  0.31180  0.85510  Biso   1.000  H
  H122     1.0000 0.04130  0.81180  0.35510  Biso   1.000  H
  H123     1.0000 0.54130  0.31180  0.35510  Biso   1.000  H
  H124     1.0000 0.54130  0.81180  0.85510  Biso   1.000  H
  H125     1.0000 0.04130  0.68820  0.14490  Biso   1.000  H
  H126     1.0000 0.04130  0.18820  0.64490  Biso   1.000  H
  H127     1.0000 0.54130  0.68820  0.64490  Biso   1.000  H
  H128     1.0000 0.54130  0.18820  0.14490  Biso   1.000  H
  H129     1.0000 0.85510  0.95870  0.68820  Biso   1.000  H
  H130     1.0000 0.85510  0.45870  0.18820  Biso   1.000  H
  H131     1.0000 0.35510  0.95870  0.18820  Biso   1.000  H
  H132     1.0000 0.35510  0.45870  0.68820  Biso   1.000  H
  H133     1.0000 0.14490  0.95870  0.31180  Biso   1.000  H
  H134     1.0000 0.14490  0.45870  0.81180  Biso   1.000  H
  H135     1.0000 0.64490  0.95870  0.81180  Biso   1.000  H
  H136     1.0000 0.64490  0.45870  0.31180  Biso   1.000  H
  H137     1.0000 0.85510  0.04130  0.31180  Biso   1.000  H
  H138     1.0000 0.85510  0.54130  0.81180  Biso   1.000  H
  H139     1.0000 0.35510  0.04130  0.81180  Biso   1.000  H
  H140     1.0000 0.35510  0.54130  0.31180  Biso   1.000  H
  H141     1.0000 0.14490  0.04130  0.68820  Biso   1.000  H
  H142     1.0000 0.14490  0.54130  0.18820  Biso   1.000  H
  H143     1.0000 0.64490  0.04130  0.18820  Biso   1.000  H
  H144     1.0000 0.64490  0.54130  0.68820  Biso   1.000  H
  H145     1.0000 0.85510  0.68820  0.04130  Biso   1.000  H
  H146     1.0000 0.85510  0.18820  0.54130  Biso   1.000  H
  H147     1.0000 0.35510  0.68820  0.54130  Biso   1.000  H
  H148     1.0000 0.35510  0.18820  0.04130  Biso   1.000  H
  H149     1.0000 0.14490  0.31180  0.04130  Biso   1.000  H
  H150     1.0000 0.14490  0.81180  0.54130  Biso   1.000  H
  H151     1.0000 0.64490  0.31180  0.54130  Biso   1.000  H
  H152     1.0000 0.64490  0.81180  0.04130  Biso   1.000  H
  H153     1.0000 0.85510  0.31180  0.95870  Biso   1.000  H
  H154     1.0000 0.85510  0.81180  0.45870  Biso   1.000  H
  H155     1.0000 0.35510  0.31180  0.45870  Biso   1.000  H
  H156     1.0000 0.35510  0.81180  0.95870  Biso   1.000  H
  H157     1.0000 0.14490  0.68820  0.95870  Biso   1.000  H
  H158     1.0000 0.14490  0.18820  0.45870  Biso   1.000  H
  H159     1.0000 0.64490  0.68820  0.45870  Biso   1.000  H
  H160     1.0000 0.64490  0.18820  0.95870  Biso   1.000  H
  H161     1.0000 0.68820  0.95870  0.14490  Biso   1.000  H
  H162     1.0000 0.68820  0.45870  0.64490  Biso   1.000  H
  H163     1.0000 0.18820  0.95870  0.64490  Biso   1.000  H
  H164     1.0000 0.18820  0.45870  0.14490  Biso   1.000  H
  H165     1.0000 0.31180  0.95870  0.85510  Biso   1.000  H
  H166     1.0000 0.31180  0.45870  0.35510  Biso   1.000  H
  H167     1.0000 0.81180  0.95870  0.35510  Biso   1.000  H
  H168     1.0000 0.81180  0.45870  0.85510  Biso   1.000  H
  H169     1.0000 0.31180  0.04130  0.14490  Biso   1.000  H
  H170     1.0000 0.31180  0.54130  0.64490  Biso   1.000  H
  H171     1.0000 0.81180  0.04130  0.64490  Biso   1.000  H
  H172     1.0000 0.81180  0.54130  0.14490  Biso   1.000  H
  H173     1.0000 0.68820  0.04130  0.85510  Biso   1.000  H
  H174     1.0000 0.68820  0.54130  0.35510  Biso   1.000  H
  H175     1.0000 0.18820  0.04130  0.35510  Biso   1.000  H
  H176     1.0000 0.18820  0.54130  0.85510  Biso   1.000  H
  H177     1.0000 0.95870  0.85510  0.31180  Biso   1.000  H
  H178     1.0000 0.95870  0.35510  0.81180  Biso   1.000  H
  H179     1.0000 0.45870  0.85510  0.81180  Biso   1.000  H
  H180     1.0000 0.45870  0.35510  0.31180  Biso   1.000  H
  H181     1.0000 0.95870  0.14490  0.68820  Biso   1.000  H
  H182     1.0000 0.95870  0.64490  0.18820  Biso   1.000  H
  H183     1.0000 0.45870  0.14490  0.18820  Biso   1.000  H
  H184     1.0000 0.45870  0.64490  0.68820  Biso   1.000  H
  H185     1.0000 0.04130  0.85510  0.68820  Biso   1.000  H
  H186     1.0000 0.04130  0.35510  0.18820  Biso   1.000  H
  H187     1.0000 0.54130  0.85510  0.18820  Biso   1.000  H
  H188     1.0000 0.54130  0.35510  0.68820  Biso   1.000  H
  H189     1.0000 0.04130  0.14490  0.31180  Biso   1.000  H
  H190     1.0000 0.04130  0.64490  0.81180  Biso   1.000  H
  H191     1.0000 0.54130  0.14490  0.81180  Biso   1.000  H
  H192     1.0000 0.54130  0.64490  0.31180  Biso   1.000  H
  Zn1      1.0000 0.20645  0.29355  0.20645  Biso   1.000  Zn
  Zn2      1.0000 0.79355  0.70645  0.20645  Biso   1.000  Zn
  Zn3      1.0000 0.29355  0.20645  0.20645  Biso   1.000  Zn
  Zn4      1.0000 0.79355  0.29355  0.79355  Biso   1.000  Zn
  Zn5      1.0000 0.29355  0.29355  0.29355  Biso   1.000  Zn
  Zn6      1.0000 0.20645  0.70645  0.79355  Biso   1.000  Zn
  Zn7      1.0000 0.20645  0.20645  0.29355  Biso   1.000  Zn
  Zn8      1.0000 0.20645  0.79355  0.70645  Biso   1.000  Zn
  Zn9      1.0000 0.79355  0.79355  0.29355  Biso   1.000  Zn
  Zn10     1.0000 0.79355  0.20645  0.70645  Biso   1.000  Zn
  Zn11     1.0000 0.29355  0.70645  0.70645  Biso   1.000  Zn
  Zn12     1.0000 0.70645  0.20645  0.79355  Biso   1.000  Zn
  Zn13     1.0000 0.70645  0.70645  0.29355  Biso   1.000  Zn
  Zn14     1.0000 0.29355  0.79355  0.79355  Biso   1.000  Zn
  Zn15     1.0000 0.70645  0.79355  0.20645  Biso   1.000  Zn
  Zn16     1.0000 0.70645  0.29355  0.70645  Biso   1.000  Zn
  Zn17     1.0000 0.29355  0.20645  0.79355  Biso   1.000  Zn
  Zn18     1.0000 0.29355  0.70645  0.29355  Biso   1.000  Zn
  Zn19     1.0000 0.70645  0.79355  0.79355  Biso   1.000  Zn
  Zn20     1.0000 0.70645  0.29355  0.29355  Biso   1.000  Zn
  Zn21     1.0000 0.20645  0.79355  0.29355  Biso   1.000  Zn
  Zn22     1.0000 0.20645  0.29355  0.79355  Biso   1.000  Zn
  Zn23     1.0000 0.29355  0.79355  0.20645  Biso   1.000  Zn
  Zn24     1.0000 0.29355  0.29355  0.70645  Biso   1.000  Zn
  Zn25     1.0000 0.70645  0.20645  0.20645  Biso   1.000  Zn
  Zn26     1.0000 0.70645  0.70645  0.70645  Biso   1.000  Zn
  Zn27     1.0000 0.20645  0.20645  0.70645  Biso   1.000  Zn
  Zn28     1.0000 0.79355  0.20645  0.29355  Biso   1.000  Zn
  Zn29     1.0000 0.79355  0.79355  0.70645  Biso   1.000  Zn
  Zn30     1.0000 0.79355  0.29355  0.20645  Biso   1.000  Zn
  Zn31     1.0000 0.20645  0.70645  0.20645  Biso   1.000  Zn
  Zn32     1.0000 0.79355  0.70645  0.79355  Biso   1.000  Zn
  O1       1.0000 0.25000  0.25000  0.25000  Biso   1.000  O
  O2       1.0000 0.75000  0.75000  0.25000  Biso   1.000  O
  O3       1.0000 0.75000  0.25000  0.75000  Biso   1.000  O
  O4       1.0000 0.25000  0.75000  0.75000  Biso   1.000  O
  O5       1.0000 0.25000  0.25000  0.75000  Biso   1.000  O
  O6       1.0000 0.75000  0.75000  0.75000  Biso   1.000  O
  O7       1.0000 0.75000  0.25000  0.25000  Biso   1.000  O
  O8       1.0000 0.25000  0.75000  0.25000  Biso   1.000  O
  O9       1.0000 0.21860  0.28140  0.13340  Biso   1.000  O
  C1       1.0000 0.27890  0.22110  0.02820  Biso   1.000  C
  C2       1.0000 0.32000  0.18000  0.02700  Biso   1.000  C
  O10      1.0000 0.21860  0.78140  0.63340  Biso   1.000  O
  C3       1.0000 0.27890  0.72110  0.52820  Biso   1.000  C
  C4       1.0000 0.32000  0.68000  0.52700  Biso   1.000  C
  O11      1.0000 0.78140  0.71860  0.13340  Biso   1.000  O
  C5       1.0000 0.72110  0.77890  0.02820  Biso   1.000  C
  C6       1.0000 0.68000  0.82000  0.02700  Biso   1.000  C
  O12      1.0000 0.78140  0.21860  0.63340  Biso   1.000  O
  C7       1.0000 0.72110  0.27890  0.52820  Biso   1.000  C
  C8       1.0000 0.68000  0.32000  0.52700  Biso   1.000  C
  O13      1.0000 0.28140  0.21860  0.13340  Biso   1.000  O
  C9       1.0000 0.22110  0.27890  0.02820  Biso   1.000  C
  C10      1.0000 0.18000  0.32000  0.02700  Biso   1.000  C
  O14      1.0000 0.78140  0.28140  0.86660  Biso   1.000  O
  C11      1.0000 0.72110  0.22110  0.97180  Biso   1.000  C
  C12      1.0000 0.68000  0.18000  0.97300  Biso   1.000  C
  O15      1.0000 0.78140  0.78140  0.36660  Biso   1.000  O
  C13      1.0000 0.72110  0.72110  0.47180  Biso   1.000  C
  C14      1.0000 0.68000  0.68000  0.47300  Biso   1.000  C
  O16      1.0000 0.28140  0.28140  0.36660  Biso   1.000  O
  C15      1.0000 0.22110  0.22110  0.47180  Biso   1.000  C
  C16      1.0000 0.18000  0.18000  0.47300  Biso   1.000  C
  O17      1.0000 0.21860  0.71860  0.86660  Biso   1.000  O
  C17      1.0000 0.27890  0.77890  0.97180  Biso   1.000  C
  C18      1.0000 0.32000  0.82000  0.97300  Biso   1.000  C
  O18      1.0000 0.21860  0.21860  0.36660  Biso   1.000  O
  C19      1.0000 0.27890  0.27890  0.47180  Biso   1.000  C
  C20      1.0000 0.32000  0.32000  0.47300  Biso   1.000  C
  O19      1.0000 0.13340  0.21860  0.28140  Biso   1.000  O
  C21      1.0000 0.02820  0.27890  0.22110  Biso   1.000  C
  C22      1.0000 0.02700  0.32000  0.18000  Biso   1.000  C
  O20      1.0000 0.63340  0.21860  0.78140  Biso   1.000  O
  C23      1.0000 0.52820  0.27890  0.72110  Biso   1.000  C
  C24      1.0000 0.52700  0.32000  0.68000  Biso   1.000  C
  O21      1.0000 0.13340  0.78140  0.71860  Biso   1.000  O
  C25      1.0000 0.02820  0.72110  0.77890  Biso   1.000  C
  C26      1.0000 0.02700  0.68000  0.82000  Biso   1.000  C
  O22      1.0000 0.13340  0.28140  0.21860  Biso   1.000  O
  C27      1.0000 0.02820  0.22110  0.27890  Biso   1.000  C
  C28      1.0000 0.02700  0.18000  0.32000  Biso   1.000  C
  O23      1.0000 0.63340  0.78140  0.21860  Biso   1.000  O
  C29      1.0000 0.52820  0.72110  0.27890  Biso   1.000  C
  C30      1.0000 0.52700  0.68000  0.32000  Biso   1.000  C
  O24      1.0000 0.86660  0.78140  0.28140  Biso   1.000  O
  C31      1.0000 0.97180  0.72110  0.22110  Biso   1.000  C
  C32      1.0000 0.97300  0.68000  0.18000  Biso   1.000  C
  O25      1.0000 0.36660  0.78140  0.78140  Biso   1.000  O
  C33      1.0000 0.47180  0.72110  0.72110  Biso   1.000  C
  C34      1.0000 0.47300  0.68000  0.68000  Biso   1.000  C
  O26      1.0000 0.36660  0.28140  0.28140  Biso   1.000  O
  C35      1.0000 0.47180  0.22110  0.22110  Biso   1.000  C
  C36      1.0000 0.47300  0.18000  0.18000  Biso   1.000  C
  O27      1.0000 0.86660  0.21860  0.71860  Biso   1.000  O
  C37      1.0000 0.97180  0.27890  0.77890  Biso   1.000  C
  C38      1.0000 0.97300  0.32000  0.82000  Biso   1.000  C
  O28      1.0000 0.36660  0.21860  0.21860  Biso   1.000  O
  C39      1.0000 0.47180  0.27890  0.27890  Biso   1.000  C
  C40      1.0000 0.47300  0.32000  0.32000  Biso   1.000  C
  O29      1.0000 0.28140  0.13340  0.21860  Biso   1.000  O
  C41      1.0000 0.22110  0.02820  0.27890  Biso   1.000  C
  C42      1.0000 0.18000  0.02700  0.32000  Biso   1.000  C
  O30      1.0000 0.28140  0.63340  0.71860  Biso   1.000  O
  C43      1.0000 0.22110  0.52820  0.77890  Biso   1.000  C
  C44      1.0000 0.18000  0.52700  0.82000  Biso   1.000  C
  O31      1.0000 0.71860  0.13340  0.78140  Biso   1.000  O
  C45      1.0000 0.77890  0.02820  0.72110  Biso   1.000  C
  C46      1.0000 0.82000  0.02700  0.68000  Biso   1.000  C
  O32      1.0000 0.71860  0.63340  0.28140  Biso   1.000  O
  C47      1.0000 0.77890  0.52820  0.22110  Biso   1.000  C
  C48      1.0000 0.82000  0.52700  0.18000  Biso   1.000  C
  O33      1.0000 0.21860  0.13340  0.28140  Biso   1.000  O
  C49      1.0000 0.27890  0.02820  0.22110  Biso   1.000  C
  C50      1.0000 0.32000  0.02700  0.18000  Biso   1.000  C
  O34      1.0000 0.28140  0.86660  0.78140  Biso   1.000  O
  C51      1.0000 0.22110  0.97180  0.72110  Biso   1.000  C
  C52      1.0000 0.18000  0.97300  0.68000  Biso   1.000  C
  O35      1.0000 0.28140  0.36660  0.28140  Biso   1.000  O
  C53      1.0000 0.22110  0.47180  0.22110  Biso   1.000  C
  C54      1.0000 0.18000  0.47300  0.18000  Biso   1.000  C
  O36      1.0000 0.71860  0.86660  0.21860  Biso   1.000  O
  C55      1.0000 0.77890  0.97180  0.27890  Biso   1.000  C
  C56      1.0000 0.82000  0.97300  0.32000  Biso   1.000  C
  O37      1.0000 0.71860  0.36660  0.71860  Biso   1.000  O
  C57      1.0000 0.77890  0.47180  0.77890  Biso   1.000  C
  C58      1.0000 0.82000  0.47300  0.82000  Biso   1.000  C
  O38      1.0000 0.21860  0.36660  0.21860  Biso   1.000  O
  C59      1.0000 0.27890  0.47180  0.27890  Biso   1.000  C
  C60      1.0000 0.32000  0.47300  0.32000  Biso   1.000  C
  O39      1.0000 0.28140  0.21860  0.86660  Biso   1.000  O
  C61      1.0000 0.22110  0.27890  0.97180  Biso   1.000  C
  C62      1.0000 0.18000  0.32000  0.97300  Biso   1.000  C
  O40      1.0000 0.28140  0.71860  0.36660  Biso   1.000  O
  C63      1.0000 0.22110  0.77890  0.47180  Biso   1.000  C
  C64      1.0000 0.18000  0.82000  0.47300  Biso   1.000  C
  O41      1.0000 0.71860  0.78140  0.86660  Biso   1.000  O
  C65      1.0000 0.77890  0.72110  0.97180  Biso   1.000  C
  C66      1.0000 0.82000  0.68000  0.97300  Biso   1.000  C
  O42      1.0000 0.71860  0.28140  0.36660  Biso   1.000  O
  C67      1.0000 0.77890  0.22110  0.47180  Biso   1.000  C
  C68      1.0000 0.82000  0.18000  0.47300  Biso   1.000  C
  O43      1.0000 0.21860  0.28140  0.86660  Biso   1.000  O
  C69      1.0000 0.27890  0.22110  0.97180  Biso   1.000  C
  C70      1.0000 0.32000  0.18000  0.97300  Biso   1.000  C
  O44      1.0000 0.28140  0.78140  0.13340  Biso   1.000  O
  C71      1.0000 0.22110  0.72110  0.02820  Biso   1.000  C
  C72      1.0000 0.18000  0.68000  0.02700  Biso   1.000  C
  O45      1.0000 0.28140  0.28140  0.63340  Biso   1.000  O
  C73      1.0000 0.22110  0.22110  0.52820  Biso   1.000  C
  C74      1.0000 0.18000  0.18000  0.52700  Biso   1.000  C
  O46      1.0000 0.71860  0.21860  0.13340  Biso   1.000  O
  C75      1.0000 0.77890  0.27890  0.02820  Biso   1.000  C
  C76      1.0000 0.82000  0.32000  0.02700  Biso   1.000  C
  O47      1.0000 0.71860  0.71860  0.63340  Biso   1.000  O
  C77      1.0000 0.77890  0.77890  0.52820  Biso   1.000  C
  C78      1.0000 0.82000  0.82000  0.52700  Biso   1.000  C
  O48      1.0000 0.21860  0.21860  0.63340  Biso   1.000  O
  C79      1.0000 0.27890  0.27890  0.52820  Biso   1.000  C
  C80      1.0000 0.32000  0.32000  0.52700  Biso   1.000  C
  O49      1.0000 0.21860  0.13340  0.71860  Biso   1.000  O
  C81      1.0000 0.27890  0.02820  0.77890  Biso   1.000  C
  C82      1.0000 0.32000  0.02700  0.82000  Biso   1.000  C
  O50      1.0000 0.21860  0.63340  0.21860  Biso   1.000  O
  C83      1.0000 0.27890  0.52820  0.27890  Biso   1.000  C
  C84      1.0000 0.32000  0.52700  0.32000  Biso   1.000  C
  O51      1.0000 0.78140  0.13340  0.28140  Biso   1.000  O
  C85      1.0000 0.72110  0.02820  0.22110  Biso   1.000  C
  C86      1.0000 0.68000  0.02700  0.18000  Biso   1.000  C
  O52      1.0000 0.78140  0.63340  0.78140  Biso   1.000  O
  C87      1.0000 0.72110  0.52820  0.72110  Biso   1.000  C
  C88      1.0000 0.68000  0.52700  0.68000  Biso   1.000  C
  O53      1.0000 0.28140  0.63340  0.28140  Biso   1.000  O
  C89      1.0000 0.22110  0.52820  0.22110  Biso   1.000  C
  C90      1.0000 0.18000  0.52700  0.18000  Biso   1.000  C
  O54      1.0000 0.78140  0.86660  0.71860  Biso   1.000  O
  C91      1.0000 0.72110  0.97180  0.77890  Biso   1.000  C
  C92      1.0000 0.68000  0.97300  0.82000  Biso   1.000  C
  O55      1.0000 0.78140  0.36660  0.21860  Biso   1.000  O
  C93      1.0000 0.72110  0.47180  0.27890  Biso   1.000  C
  C94      1.0000 0.68000  0.47300  0.32000  Biso   1.000  C
  O56      1.0000 0.28140  0.86660  0.21860  Biso   1.000  O
  C95      1.0000 0.22110  0.97180  0.27890  Biso   1.000  C
  C96      1.0000 0.18000  0.97300  0.32000  Biso   1.000  C
  O57      1.0000 0.21860  0.86660  0.28140  Biso   1.000  O
  C97      1.0000 0.27890  0.97180  0.22110  Biso   1.000  C
  C98      1.0000 0.32000  0.97300  0.18000  Biso   1.000  C
  O58      1.0000 0.21860  0.36660  0.78140  Biso   1.000  O
  C99      1.0000 0.27890  0.47180  0.72110  Biso   1.000  C
  C100     1.0000 0.32000  0.47300  0.68000  Biso   1.000  C
  O59      1.0000 0.13340  0.28140  0.78140  Biso   1.000  O
  C101     1.0000 0.02820  0.22110  0.72110  Biso   1.000  C
  C102     1.0000 0.02700  0.18000  0.68000  Biso   1.000  C
  O60      1.0000 0.63340  0.28140  0.28140  Biso   1.000  O
  C103     1.0000 0.52820  0.22110  0.22110  Biso   1.000  C
  C104     1.0000 0.52700  0.18000  0.18000  Biso   1.000  C
  O61      1.0000 0.13340  0.71860  0.21860  Biso   1.000  O
  C105     1.0000 0.02820  0.77890  0.27890  Biso   1.000  C
  C106     1.0000 0.02700  0.82000  0.32000  Biso   1.000  C
  O62      1.0000 0.63340  0.71860  0.71860  Biso   1.000  O
  C107     1.0000 0.52820  0.77890  0.77890  Biso   1.000  C
  C108     1.0000 0.52700  0.82000  0.82000  Biso   1.000  C
  O63      1.0000 0.63340  0.21860  0.21860  Biso   1.000  O
  C109     1.0000 0.52820  0.27890  0.27890  Biso   1.000  C
  C110     1.0000 0.52700  0.32000  0.32000  Biso   1.000  C
  O64      1.0000 0.86660  0.28140  0.21860  Biso   1.000  O
  C111     1.0000 0.97180  0.22110  0.27890  Biso   1.000  C
  C112     1.0000 0.97300  0.18000  0.32000  Biso   1.000  C
  O65      1.0000 0.36660  0.28140  0.71860  Biso   1.000  O
  C113     1.0000 0.47180  0.22110  0.77890  Biso   1.000  C
  C114     1.0000 0.47300  0.18000  0.82000  Biso   1.000  C
  O66      1.0000 0.86660  0.71860  0.78140  Biso   1.000  O
  C115     1.0000 0.97180  0.77890  0.72110  Biso   1.000  C
  C116     1.0000 0.97300  0.82000  0.68000  Biso   1.000  C
  O67      1.0000 0.86660  0.21860  0.28140  Biso   1.000  O
  C117     1.0000 0.97180  0.27890  0.22110  Biso   1.000  C
  C118     1.0000 0.97300  0.32000  0.18000  Biso   1.000  C
  O68      1.0000 0.36660  0.71860  0.28140  Biso   1.000  O
  C119     1.0000 0.47180  0.77890  0.22110  Biso   1.000  C
  C120     1.0000 0.47300  0.82000  0.18000  Biso   1.000  C
  O69      1.0000 0.78140  0.71860  0.86660  Biso   1.000  O
  C121     1.0000 0.72110  0.77890  0.97180  Biso   1.000  C
  C122     1.0000 0.68000  0.82000  0.97300  Biso   1.000  C
  O70      1.0000 0.78140  0.21860  0.36660  Biso   1.000  O
  C123     1.0000 0.72110  0.27890  0.47180  Biso   1.000  C
  C124     1.0000 0.68000  0.32000  0.47300  Biso   1.000  C
  O71      1.0000 0.21860  0.78140  0.36660  Biso   1.000  O
  C125     1.0000 0.27890  0.72110  0.47180  Biso   1.000  C
  C126     1.0000 0.32000  0.68000  0.47300  Biso   1.000  C
  O72      1.0000 0.21860  0.71860  0.13340  Biso   1.000  O
  C127     1.0000 0.27890  0.77890  0.02820  Biso   1.000  C
  C128     1.0000 0.32000  0.82000  0.02700  Biso   1.000  C
  O73      1.0000 0.78140  0.28140  0.13340  Biso   1.000  O
  C129     1.0000 0.72110  0.22110  0.02820  Biso   1.000  C
  C130     1.0000 0.68000  0.18000  0.02700  Biso   1.000  C
  O74      1.0000 0.78140  0.78140  0.63340  Biso   1.000  O
  C131     1.0000 0.72110  0.72110  0.52820  Biso   1.000  C
  C132     1.0000 0.68000  0.68000  0.52700  Biso   1.000  C
  O75      1.0000 0.86660  0.78140  0.71860  Biso   1.000  O
  C133     1.0000 0.97180  0.72110  0.77890  Biso   1.000  C
  C134     1.0000 0.97300  0.68000  0.82000  Biso   1.000  C
  O76      1.0000 0.36660  0.78140  0.21860  Biso   1.000  O
  C135     1.0000 0.47180  0.72110  0.27890  Biso   1.000  C
  C136     1.0000 0.47300  0.68000  0.32000  Biso   1.000  C
  O77      1.0000 0.36660  0.21860  0.78140  Biso   1.000  O
  C137     1.0000 0.47180  0.27890  0.72110  Biso   1.000  C
  C138     1.0000 0.47300  0.32000  0.68000  Biso   1.000  C
  O78      1.0000 0.13340  0.21860  0.71860  Biso   1.000  O
  C139     1.0000 0.02820  0.27890  0.77890  Biso   1.000  C
  C140     1.0000 0.02700  0.32000  0.82000  Biso   1.000  C
  O79      1.0000 0.13340  0.78140  0.28140  Biso   1.000  O
  C141     1.0000 0.02820  0.72110  0.22110  Biso   1.000  C
  C142     1.0000 0.02700  0.68000  0.18000  Biso   1.000  C
  O80      1.0000 0.63340  0.78140  0.78140  Biso   1.000  O
  C143     1.0000 0.52820  0.72110  0.72110  Biso   1.000  C
  C144     1.0000 0.52700  0.68000  0.68000  Biso   1.000  C
  O81      1.0000 0.71860  0.86660  0.78140  Biso   1.000  O
  C145     1.0000 0.77890  0.97180  0.72110  Biso   1.000  C
  C146     1.0000 0.82000  0.97300  0.68000  Biso   1.000  C
  O82      1.0000 0.71860  0.36660  0.28140  Biso   1.000  O
  C147     1.0000 0.77890  0.47180  0.22110  Biso   1.000  C
  C148     1.0000 0.82000  0.47300  0.18000  Biso   1.000  C
  O83      1.0000 0.28140  0.36660  0.71860  Biso   1.000  O
  C149     1.0000 0.22110  0.47180  0.77890  Biso   1.000  C
  C150     1.0000 0.18000  0.47300  0.82000  Biso   1.000  C
  O84      1.0000 0.71860  0.13340  0.21860  Biso   1.000  O
  C151     1.0000 0.77890  0.02820  0.27890  Biso   1.000  C
  C152     1.0000 0.82000  0.02700  0.32000  Biso   1.000  C
  O85      1.0000 0.71860  0.63340  0.71860  Biso   1.000  O
  C153     1.0000 0.77890  0.52820  0.77890  Biso   1.000  C
  C154     1.0000 0.82000  0.52700  0.82000  Biso   1.000  C
  O86      1.0000 0.28140  0.13340  0.78140  Biso   1.000  O
  C155     1.0000 0.22110  0.02820  0.72110  Biso   1.000  C
  C156     1.0000 0.18000  0.02700  0.68000  Biso   1.000  C
  O87      1.0000 0.71860  0.78140  0.13340  Biso   1.000  O
  C157     1.0000 0.77890  0.72110  0.02820  Biso   1.000  C
  C158     1.0000 0.82000  0.68000  0.02700  Biso   1.000  C
  O88      1.0000 0.71860  0.28140  0.63340  Biso   1.000  O
  C159     1.0000 0.77890  0.22110  0.52820  Biso   1.000  C
  C160     1.0000 0.82000  0.18000  0.52700  Biso   1.000  C
  O89      1.0000 0.28140  0.71860  0.63340  Biso   1.000  O
  C161     1.0000 0.22110  0.77890  0.52820  Biso   1.000  C
  C162     1.0000 0.18000  0.82000  0.52700  Biso   1.000  C
  O90      1.0000 0.71860  0.21860  0.86660  Biso   1.000  O
  C163     1.0000 0.77890  0.27890  0.97180  Biso   1.000  C
  C164     1.0000 0.82000  0.32000  0.97300  Biso   1.000  C
  O91      1.0000 0.71860  0.71860  0.36660  Biso   1.000  O
  C165     1.0000 0.77890  0.77890  0.47180  Biso   1.000  C
  C166     1.0000 0.82000  0.82000  0.47300  Biso   1.000  C
  O92      1.0000 0.28140  0.78140  0.86660  Biso   1.000  O
  C167     1.0000 0.22110  0.72110  0.97180  Biso   1.000  C
  C168     1.0000 0.18000  0.68000  0.97300  Biso   1.000  C
  O93      1.0000 0.78140  0.86660  0.28140  Biso   1.000  O
  C169     1.0000 0.72110  0.97180  0.22110  Biso   1.000  C
  C170     1.0000 0.68000  0.97300  0.18000  Biso   1.000  C
  O94      1.0000 0.78140  0.36660  0.78140  Biso   1.000  O
  C171     1.0000 0.72110  0.47180  0.72110  Biso   1.000  C
  C172     1.0000 0.68000  0.47300  0.68000  Biso   1.000  C
  O95      1.0000 0.21860  0.86660  0.71860  Biso   1.000  O
  C173     1.0000 0.27890  0.97180  0.77890  Biso   1.000  C
  C174     1.0000 0.32000  0.97300  0.82000  Biso   1.000  C
  O96      1.0000 0.21860  0.63340  0.78140  Biso   1.000  O
  C175     1.0000 0.27890  0.52820  0.72110  Biso   1.000  C
  C176     1.0000 0.32000  0.52700  0.68000  Biso   1.000  C
  O97      1.0000 0.78140  0.13340  0.71860  Biso   1.000  O
  C177     1.0000 0.72110  0.02820  0.77890  Biso   1.000  C
  C178     1.0000 0.68000  0.02700  0.82000  Biso   1.000  C
  O98      1.0000 0.78140  0.63340  0.21860  Biso   1.000  O
  C179     1.0000 0.72110  0.52820  0.27890  Biso   1.000  C
  C180     1.0000 0.68000  0.52700  0.32000  Biso   1.000  C
  O99      1.0000 0.86660  0.71860  0.21860  Biso   1.000  O
  C181     1.0000 0.97180  0.77890  0.27890  Biso   1.000  C
  C182     1.0000 0.97300  0.82000  0.32000  Biso   1.000  C
  O100     1.0000 0.36660  0.71860  0.71860  Biso   1.000  O
  C183     1.0000 0.47180  0.77890  0.77890  Biso   1.000  C
  C184     1.0000 0.47300  0.82000  0.82000  Biso   1.000  C
  O101     1.0000 0.86660  0.28140  0.78140  Biso   1.000  O
  C185     1.0000 0.97180  0.22110  0.72110  Biso   1.000  C
  C186     1.0000 0.97300  0.18000  0.68000  Biso   1.000  C
  O102     1.0000 0.13340  0.71860  0.78140  Biso   1.000  O
  C187     1.0000 0.02820  0.77890  0.72110  Biso   1.000  C
  C188     1.0000 0.02700  0.82000  0.68000  Biso   1.000  C
  O103     1.0000 0.63340  0.71860  0.28140  Biso   1.000  O
  C189     1.0000 0.52820  0.77890  0.22110  Biso   1.000  C
  C190     1.0000 0.52700  0.82000  0.18000  Biso   1.000  C
  O104     1.0000 0.63340  0.28140  0.71860  Biso   1.000  O
  C191     1.0000 0.52820  0.22110  0.77890  Biso   1.000  C
  C192     1.0000 0.52700  0.18000  0.82000  Biso   1.000  C
  C193     1.0000 0.25000  0.25000  0.11200  Biso   1.000  C
  C194     1.0000 0.25000  0.25000  0.05650  Biso   1.000  C
  C195     1.0000 0.25000  0.75000  0.61200  Biso   1.000  C
  C196     1.0000 0.25000  0.75000  0.55650  Biso   1.000  C
  C197     1.0000 0.75000  0.75000  0.11200  Biso   1.000  C
  C198     1.0000 0.75000  0.75000  0.05650  Biso   1.000  C
  C199     1.0000 0.75000  0.25000  0.61200  Biso   1.000  C
  C200     1.0000 0.75000  0.25000  0.55650  Biso   1.000  C
  C201     1.0000 0.75000  0.25000  0.88800  Biso   1.000  C
  C202     1.0000 0.75000  0.25000  0.94350  Biso   1.000  C
  C203     1.0000 0.75000  0.75000  0.38800  Biso   1.000  C
  C204     1.0000 0.75000  0.75000  0.44350  Biso   1.000  C
  C205     1.0000 0.25000  0.25000  0.38800  Biso   1.000  C
  C206     1.0000 0.25000  0.25000  0.44350  Biso   1.000  C
  C207     1.0000 0.25000  0.75000  0.88800  Biso   1.000  C
  C208     1.0000 0.25000  0.75000  0.94350  Biso   1.000  C
  C209     1.0000 0.11200  0.25000  0.25000  Biso   1.000  C
  C210     1.0000 0.05650  0.25000  0.25000  Biso   1.000  C
  C211     1.0000 0.61200  0.25000  0.75000  Biso   1.000  C
  C212     1.0000 0.55650  0.25000  0.75000  Biso   1.000  C
  C213     1.0000 0.11200  0.75000  0.75000  Biso   1.000  C
  C214     1.0000 0.05650  0.75000  0.75000  Biso   1.000  C
  C215     1.0000 0.61200  0.75000  0.25000  Biso   1.000  C
  C216     1.0000 0.55650  0.75000  0.25000  Biso   1.000  C
  C217     1.0000 0.88800  0.75000  0.25000  Biso   1.000  C
  C218     1.0000 0.94350  0.75000  0.25000  Biso   1.000  C
  C219     1.0000 0.38800  0.75000  0.75000  Biso   1.000  C
  C220     1.0000 0.44350  0.75000  0.75000  Biso   1.000  C
  C221     1.0000 0.38800  0.25000  0.25000  Biso   1.000  C
  C222     1.0000 0.44350  0.25000  0.25000  Biso   1.000  C
  C223     1.0000 0.88800  0.25000  0.75000  Biso   1.000  C
  C224     1.0000 0.94350  0.25000  0.75000  Biso   1.000  C
  C225     1.0000 0.25000  0.11200  0.25000  Biso   1.000  C
  C226     1.0000 0.25000  0.05650  0.25000  Biso   1.000  C
  C227     1.0000 0.25000  0.61200  0.75000  Biso   1.000  C
  C228     1.0000 0.25000  0.55650  0.75000  Biso   1.000  C
  C229     1.0000 0.75000  0.11200  0.75000  Biso   1.000  C
  C230     1.0000 0.75000  0.05650  0.75000  Biso   1.000  C
  C231     1.0000 0.75000  0.61200  0.25000  Biso   1.000  C
  C232     1.0000 0.75000  0.55650  0.25000  Biso   1.000  C
  C233     1.0000 0.25000  0.88800  0.75000  Biso   1.000  C
  C234     1.0000 0.25000  0.94350  0.75000  Biso   1.000  C
  C235     1.0000 0.25000  0.38800  0.25000  Biso   1.000  C
  C236     1.0000 0.25000  0.44350  0.25000  Biso   1.000  C
  C237     1.0000 0.75000  0.88800  0.25000  Biso   1.000  C
  C238     1.0000 0.75000  0.94350  0.25000  Biso   1.000  C
  C239     1.0000 0.75000  0.38800  0.75000  Biso   1.000  C
  C240     1.0000 0.75000  0.44350  0.75000  Biso   1.000  C
  C241     1.0000 0.25000  0.25000  0.88800  Biso   1.000  C
  C242     1.0000 0.25000  0.25000  0.94350  Biso   1.000  C
  C243     1.0000 0.25000  0.75000  0.38800  Biso   1.000  C
  C244     1.0000 0.25000  0.75000  0.44350  Biso   1.000  C
  C245     1.0000 0.75000  0.75000  0.88800  Biso   1.000  C
  C246     1.0000 0.75000  0.75000  0.94350  Biso   1.000  C
  C247     1.0000 0.75000  0.25000  0.38800  Biso   1.000  C
  C248     1.0000 0.75000  0.25000  0.44350  Biso   1.000  C
  C249     1.0000 0.25000  0.75000  0.11200  Biso   1.000  C
  C250     1.0000 0.25000  0.75000  0.05650  Biso   1.000  C
  C251     1.0000 0.25000  0.25000  0.61200  Biso   1.000  C
  C252     1.0000 0.25000  0.25000  0.55650  Biso   1.000  C
  C253     1.0000 0.75000  0.25000  0.11200  Biso   1.000  C
  C254     1.0000 0.75000  0.25000  0.05650  Biso   1.000  C
  C255     1.0000 0.75000  0.75000  0.61200  Biso   1.000  C
  C256     1.0000 0.75000  0.75000  0.55650  Biso   1.000  C
  C257     1.0000 0.25000  0.11200  0.75000  Biso   1.000  C
  C258     1.0000 0.25000  0.05650  0.75000  Biso   1.000  C
  C259     1.0000 0.25000  0.61200  0.25000  Biso   1.000  C
  C260     1.0000 0.25000  0.55650  0.25000  Biso   1.000  C
  C261     1.0000 0.75000  0.11200  0.25000  Biso   1.000  C
  C262     1.0000 0.75000  0.05650  0.25000  Biso   1.000  C
  C263     1.0000 0.75000  0.61200  0.75000  Biso   1.000  C
  C264     1.0000 0.75000  0.55650  0.75000  Biso   1.000  C
  C265     1.0000 0.75000  0.88800  0.75000  Biso   1.000  C
  C266     1.0000 0.75000  0.94350  0.75000  Biso   1.000  C
  C267     1.0000 0.75000  0.38800  0.25000  Biso   1.000  C
  C268     1.0000 0.75000  0.44350  0.25000  Biso   1.000  C
  C269     1.0000 0.25000  0.88800  0.25000  Biso   1.000  C
  C270     1.0000 0.25000  0.94350  0.25000  Biso   1.000  C
  C271     1.0000 0.25000  0.38800  0.75000  Biso   1.000  C
  C272     1.0000 0.25000  0.44350  0.75000  Biso   1.000  C
  C273     1.0000 0.11200  0.25000  0.75000  Biso   1.000  C
  C274     1.0000 0.05650  0.25000  0.75000  Biso   1.000  C
  C275     1.0000 0.61200  0.25000  0.25000  Biso   1.000  C
  C276     1.0000 0.55650  0.25000  0.25000  Biso   1.000  C
  C277     1.0000 0.11200  0.75000  0.25000  Biso   1.000  C
  C278     1.0000 0.05650  0.75000  0.25000  Biso   1.000  C
  C279     1.0000 0.61200  0.75000  0.75000  Biso   1.000  C
  C280     1.0000 0.55650  0.75000  0.75000  Biso   1.000  C
  C281     1.0000 0.88800  0.25000  0.25000  Biso   1.000  C
  C282     1.0000 0.94350  0.25000  0.25000  Biso   1.000  C
  C283     1.0000 0.38800  0.25000  0.75000  Biso   1.000  C
  C284     1.0000 0.44350  0.25000  0.75000  Biso   1.000  C
  C285     1.0000 0.88800  0.75000  0.75000  Biso   1.000  C
  C286     1.0000 0.94350  0.75000  0.75000  Biso   1.000  C
  C287     1.0000 0.38800  0.75000  0.25000  Biso   1.000  C
  C288     1.0000 0.44350  0.75000  0.25000  Biso   1.000  C
