data_image0
_cell_length_a       24.311
_cell_length_b       24.311
_cell_length_c       24.311
_cell_angle_alpha    60
_cell_angle_beta     60
_cell_angle_gamma    60

_symmetry_space_group_name_H-M    P 1
_symmetry_int_tables_number       1

loop_
  _symmetry_equiv_pos_as_xyz
  'x, y, z'

loop_
  _atom_site_label
  _atom_site_occupancy
  _atom_site_fract_x
  _atom_site_fract_y
  _atom_site_fract_z
  _atom_site_thermal_displace_type
  _atom_site_B_iso_or_equiv
  _atom_site_type_symbol
  Zn1      1.0000 0.21725  0.34825  0.21725  Biso   1.000  Zn
  Zn2      1.0000 0.34825  0.21725  0.21725  Biso   1.000  Zn
  Zn3      1.0000 0.21725  0.21725  0.21725  Biso   1.000  Zn
  Zn4      1.0000 0.21725  0.21725  0.34825  Biso   1.000  Zn
  Zn5      1.0000 0.65175  0.78275  0.78275  Biso   1.000  Zn
  Zn6      1.0000 0.78275  0.65175  0.78275  Biso   1.000  Zn
  Zn7      1.0000 0.78275  0.78275  0.78275  Biso   1.000  Zn
  Zn8      1.0000 0.78275  0.78275  0.65175  Biso   1.000  Zn
  H1       1.0000 0.48660  0.32100  0.09620  Biso   1.000  H
  H2       1.0000 0.59510  0.33870  0.03310  Biso   1.000  H
  H3       1.0000 0.32100  0.48660  0.09620  Biso   1.000  H
  H4       1.0000 0.33870  0.59510  0.03310  Biso   1.000  H
  H5       1.0000 0.09620  0.09620  0.48660  Biso   1.000  H
  H6       1.0000 0.03310  0.03310  0.59510  Biso   1.000  H
  H7       1.0000 0.09620  0.09620  0.32100  Biso   1.000  H
  H8       1.0000 0.03310  0.03310  0.33870  Biso   1.000  H
  H9       1.0000 0.48660  0.09620  0.09620  Biso   1.000  H
  H10      1.0000 0.59510  0.03310  0.03310  Biso   1.000  H
  H11      1.0000 0.32100  0.09620  0.09620  Biso   1.000  H
  H12      1.0000 0.33870  0.03310  0.03310  Biso   1.000  H
  H13      1.0000 0.09620  0.48660  0.32100  Biso   1.000  H
  H14      1.0000 0.03310  0.59510  0.33870  Biso   1.000  H
  H15      1.0000 0.09620  0.32100  0.48660  Biso   1.000  H
  H16      1.0000 0.03310  0.33870  0.59510  Biso   1.000  H
  H17      1.0000 0.48660  0.09620  0.32100  Biso   1.000  H
  H18      1.0000 0.59510  0.03310  0.33870  Biso   1.000  H
  H19      1.0000 0.32100  0.09620  0.48660  Biso   1.000  H
  H20      1.0000 0.33870  0.03310  0.59510  Biso   1.000  H
  H21      1.0000 0.09620  0.32100  0.09620  Biso   1.000  H
  H22      1.0000 0.03310  0.33870  0.03310  Biso   1.000  H
  H23      1.0000 0.09620  0.48660  0.09620  Biso   1.000  H
  H24      1.0000 0.03310  0.59510  0.03310  Biso   1.000  H
  H25      1.0000 0.67900  0.51340  0.90380  Biso   1.000  H
  H26      1.0000 0.66130  0.40490  0.96690  Biso   1.000  H
  H27      1.0000 0.51340  0.67900  0.90380  Biso   1.000  H
  H28      1.0000 0.40490  0.66130  0.96690  Biso   1.000  H
  H29      1.0000 0.90380  0.90380  0.51340  Biso   1.000  H
  H30      1.0000 0.96690  0.96690  0.40490  Biso   1.000  H
  H31      1.0000 0.90380  0.90380  0.67900  Biso   1.000  H
  H32      1.0000 0.96690  0.96690  0.66130  Biso   1.000  H
  H33      1.0000 0.90380  0.51340  0.90380  Biso   1.000  H
  H34      1.0000 0.96690  0.40490  0.96690  Biso   1.000  H
  H35      1.0000 0.90380  0.67900  0.90380  Biso   1.000  H
  H36      1.0000 0.96690  0.66130  0.96690  Biso   1.000  H
  H37      1.0000 0.51340  0.90380  0.67900  Biso   1.000  H
  H38      1.0000 0.40490  0.96690  0.66130  Biso   1.000  H
  H39      1.0000 0.67900  0.90380  0.51340  Biso   1.000  H
  H40      1.0000 0.66130  0.96690  0.40490  Biso   1.000  H
  H41      1.0000 0.90380  0.51340  0.67900  Biso   1.000  H
  H42      1.0000 0.96690  0.40490  0.66130  Biso   1.000  H
  H43      1.0000 0.90380  0.67900  0.51340  Biso   1.000  H
  H44      1.0000 0.96690  0.66130  0.40490  Biso   1.000  H
  H45      1.0000 0.67900  0.90380  0.90380  Biso   1.000  H
  H46      1.0000 0.66130  0.96690  0.96690  Biso   1.000  H
  H47      1.0000 0.51340  0.90380  0.90380  Biso   1.000  H
  H48      1.0000 0.40490  0.96690  0.96690  Biso   1.000  H
  C1       1.0000 0.46550  0.36750  0.08350  Biso   1.000  C
  C2       1.0000 0.50380  0.41060  0.04280  Biso   1.000  C
  C3       1.0000 0.57410  0.38530  0.02030  Biso   1.000  C
  C4       1.0000 0.36750  0.46550  0.08350  Biso   1.000  C
  C5       1.0000 0.41060  0.50380  0.04280  Biso   1.000  C
  C6       1.0000 0.38530  0.57410  0.02030  Biso   1.000  C
  C7       1.0000 0.08350  0.08350  0.46550  Biso   1.000  C
  C8       1.0000 0.04280  0.04280  0.50380  Biso   1.000  C
  C9       1.0000 0.02030  0.02030  0.57410  Biso   1.000  C
  C10      1.0000 0.08350  0.08350  0.36750  Biso   1.000  C
  C11      1.0000 0.04280  0.04280  0.41060  Biso   1.000  C
  C12      1.0000 0.02030  0.02030  0.38530  Biso   1.000  C
  C13      1.0000 0.46550  0.08350  0.08350  Biso   1.000  C
  C14      1.0000 0.50380  0.04280  0.04280  Biso   1.000  C
  C15      1.0000 0.57410  0.02030  0.02030  Biso   1.000  C
  C16      1.0000 0.36750  0.08350  0.08350  Biso   1.000  C
  C17      1.0000 0.41060  0.04280  0.04280  Biso   1.000  C
  C18      1.0000 0.38530  0.02030  0.02030  Biso   1.000  C
  C19      1.0000 0.08350  0.46550  0.36750  Biso   1.000  C
  C20      1.0000 0.04280  0.50380  0.41060  Biso   1.000  C
  C21      1.0000 0.02030  0.57410  0.38530  Biso   1.000  C
  C22      1.0000 0.08350  0.36750  0.46550  Biso   1.000  C
  C23      1.0000 0.04280  0.41060  0.50380  Biso   1.000  C
  C24      1.0000 0.02030  0.38530  0.57410  Biso   1.000  C
  C25      1.0000 0.46550  0.08350  0.36750  Biso   1.000  C
  C26      1.0000 0.50380  0.04280  0.41060  Biso   1.000  C
  C27      1.0000 0.57410  0.02030  0.38530  Biso   1.000  C
  C28      1.0000 0.36750  0.08350  0.46550  Biso   1.000  C
  C29      1.0000 0.41060  0.04280  0.50380  Biso   1.000  C
  C30      1.0000 0.38530  0.02030  0.57410  Biso   1.000  C
  C31      1.0000 0.08350  0.36750  0.08350  Biso   1.000  C
  C32      1.0000 0.04280  0.41060  0.04280  Biso   1.000  C
  C33      1.0000 0.02030  0.38530  0.02030  Biso   1.000  C
  C34      1.0000 0.08350  0.46550  0.08350  Biso   1.000  C
  C35      1.0000 0.04280  0.50380  0.04280  Biso   1.000  C
  C36      1.0000 0.02030  0.57410  0.02030  Biso   1.000  C
  C37      1.0000 0.63250  0.53450  0.91650  Biso   1.000  C
  C38      1.0000 0.58940  0.49620  0.95720  Biso   1.000  C
  C39      1.0000 0.61470  0.42590  0.97970  Biso   1.000  C
  C40      1.0000 0.53450  0.63250  0.91650  Biso   1.000  C
  C41      1.0000 0.49620  0.58940  0.95720  Biso   1.000  C
  C42      1.0000 0.42590  0.61470  0.97970  Biso   1.000  C
  C43      1.0000 0.91650  0.91650  0.53450  Biso   1.000  C
  C44      1.0000 0.95720  0.95720  0.49620  Biso   1.000  C
  C45      1.0000 0.97970  0.97970  0.42590  Biso   1.000  C
  C46      1.0000 0.91650  0.91650  0.63250  Biso   1.000  C
  C47      1.0000 0.95720  0.95720  0.58940  Biso   1.000  C
  C48      1.0000 0.97970  0.97970  0.61470  Biso   1.000  C
  C49      1.0000 0.91650  0.53450  0.91650  Biso   1.000  C
  C50      1.0000 0.95720  0.49620  0.95720  Biso   1.000  C
  C51      1.0000 0.97970  0.42590  0.97970  Biso   1.000  C
  C52      1.0000 0.91650  0.63250  0.91650  Biso   1.000  C
  C53      1.0000 0.95720  0.58940  0.95720  Biso   1.000  C
  C54      1.0000 0.97970  0.61470  0.97970  Biso   1.000  C
  C55      1.0000 0.53450  0.91650  0.63250  Biso   1.000  C
  C56      1.0000 0.49620  0.95720  0.58940  Biso   1.000  C
  C57      1.0000 0.42590  0.97970  0.61470  Biso   1.000  C
  C58      1.0000 0.63250  0.91650  0.53450  Biso   1.000  C
  C59      1.0000 0.58940  0.95720  0.49620  Biso   1.000  C
  C60      1.0000 0.61470  0.97970  0.42590  Biso   1.000  C
  C61      1.0000 0.91650  0.53450  0.63250  Biso   1.000  C
  C62      1.0000 0.95720  0.49620  0.58940  Biso   1.000  C
  C63      1.0000 0.97970  0.42590  0.61470  Biso   1.000  C
  C64      1.0000 0.91650  0.63250  0.53450  Biso   1.000  C
  C65      1.0000 0.95720  0.58940  0.49620  Biso   1.000  C
  C66      1.0000 0.97970  0.61470  0.42590  Biso   1.000  C
  C67      1.0000 0.63250  0.91650  0.91650  Biso   1.000  C
  C68      1.0000 0.58940  0.95720  0.95720  Biso   1.000  C
  C69      1.0000 0.61470  0.97970  0.97970  Biso   1.000  C
  C70      1.0000 0.53450  0.91650  0.91650  Biso   1.000  C
  C71      1.0000 0.49620  0.95720  0.95720  Biso   1.000  C
  C72      1.0000 0.42590  0.97970  0.97970  Biso   1.000  C
  C73      1.0000 0.39520  0.39520  0.10480  Biso   1.000  C
  C74      1.0000 0.35630  0.35630  0.14370  Biso   1.000  C
  C75      1.0000 0.48080  0.48080  0.01920  Biso   1.000  C
  C76      1.0000 0.10480  0.10480  0.39520  Biso   1.000  C
  C77      1.0000 0.14370  0.14370  0.35630  Biso   1.000  C
  C78      1.0000 0.01920  0.01920  0.48080  Biso   1.000  C
  C79      1.0000 0.39520  0.10480  0.10480  Biso   1.000  C
  C80      1.0000 0.35630  0.14370  0.14370  Biso   1.000  C
  C81      1.0000 0.48080  0.01920  0.01920  Biso   1.000  C
  C82      1.0000 0.10480  0.39520  0.39520  Biso   1.000  C
  C83      1.0000 0.14370  0.35630  0.35630  Biso   1.000  C
  C84      1.0000 0.01920  0.48080  0.48080  Biso   1.000  C
  C85      1.0000 0.39520  0.10480  0.39520  Biso   1.000  C
  C86      1.0000 0.35630  0.14370  0.35630  Biso   1.000  C
  C87      1.0000 0.48080  0.01920  0.48080  Biso   1.000  C
  C88      1.0000 0.10480  0.39520  0.10480  Biso   1.000  C
  C89      1.0000 0.14370  0.35630  0.14370  Biso   1.000  C
  C90      1.0000 0.01920  0.48080  0.01920  Biso   1.000  C
  C91      1.0000 0.60480  0.60480  0.89520  Biso   1.000  C
  C92      1.0000 0.64370  0.64370  0.85630  Biso   1.000  C
  C93      1.0000 0.51920  0.51920  0.98080  Biso   1.000  C
  C94      1.0000 0.89520  0.89520  0.60480  Biso   1.000  C
  C95      1.0000 0.85630  0.85630  0.64370  Biso   1.000  C
  C96      1.0000 0.98080  0.98080  0.51920  Biso   1.000  C
  C97      1.0000 0.89520  0.60480  0.89520  Biso   1.000  C
  C98      1.0000 0.85630  0.64370  0.85630  Biso   1.000  C
  C99      1.0000 0.98080  0.51920  0.98080  Biso   1.000  C
  C100     1.0000 0.60480  0.89520  0.60480  Biso   1.000  C
  C101     1.0000 0.64370  0.85630  0.64370  Biso   1.000  C
  C102     1.0000 0.51920  0.98080  0.51920  Biso   1.000  C
  C103     1.0000 0.89520  0.60480  0.60480  Biso   1.000  C
  C104     1.0000 0.85630  0.64370  0.64370  Biso   1.000  C
  C105     1.0000 0.98080  0.51920  0.51920  Biso   1.000  C
  C106     1.0000 0.60480  0.89520  0.89520  Biso   1.000  C
  C107     1.0000 0.64370  0.85630  0.85630  Biso   1.000  C
  C108     1.0000 0.51920  0.98080  0.98080  Biso   1.000  C
  O1       1.0000 0.25000  0.25000  0.25000  Biso   1.000  O
  O2       1.0000 0.75000  0.75000  0.75000  Biso   1.000  O
  O3       1.0000 0.29370  0.38370  0.16130  Biso   1.000  O
  O4       1.0000 0.38370  0.29370  0.16130  Biso   1.000  O
  O5       1.0000 0.16130  0.16130  0.29370  Biso   1.000  O
  O6       1.0000 0.16130  0.16130  0.38370  Biso   1.000  O
  O7       1.0000 0.29370  0.16130  0.16130  Biso   1.000  O
  O8       1.0000 0.38370  0.16130  0.16130  Biso   1.000  O
  O9       1.0000 0.16130  0.29370  0.38370  Biso   1.000  O
  O10      1.0000 0.16130  0.38370  0.29370  Biso   1.000  O
  O11      1.0000 0.29370  0.16130  0.38370  Biso   1.000  O
  O12      1.0000 0.38370  0.16130  0.29370  Biso   1.000  O
  O13      1.0000 0.16130  0.38370  0.16130  Biso   1.000  O
  O14      1.0000 0.16130  0.29370  0.16130  Biso   1.000  O
  O15      1.0000 0.61630  0.70630  0.83870  Biso   1.000  O
  O16      1.0000 0.70630  0.61630  0.83870  Biso   1.000  O
  O17      1.0000 0.83870  0.83870  0.70630  Biso   1.000  O
  O18      1.0000 0.83870  0.83870  0.61630  Biso   1.000  O
  O19      1.0000 0.83870  0.70630  0.83870  Biso   1.000  O
  O20      1.0000 0.83870  0.61630  0.83870  Biso   1.000  O
  O21      1.0000 0.70630  0.83870  0.61630  Biso   1.000  O
  O22      1.0000 0.61630  0.83870  0.70630  Biso   1.000  O
  O23      1.0000 0.83870  0.70630  0.61630  Biso   1.000  O
  O24      1.0000 0.83870  0.61630  0.70630  Biso   1.000  O
  O25      1.0000 0.61630  0.83870  0.83870  Biso   1.000  O
  O26      1.0000 0.70630  0.83870  0.83870  Biso   1.000  O
