data_image0
_cell_length_a       29.5665
_cell_length_b       29.5665
_cell_length_c       31.1563
_cell_angle_alpha    103.726
_cell_angle_beta     103.726
_cell_angle_gamma    90.0038

_symmetry_space_group_name_H-M    P 1
_symmetry_int_tables_number       1

loop_
  _symmetry_equiv_pos_as_xyz
  'x, y, z'

loop_
  _atom_site_label
  _atom_site_occupancy
  _atom_site_fract_x
  _atom_site_fract_y
  _atom_site_fract_z
  _atom_site_thermal_displace_type
  _atom_site_B_iso_or_equiv
  _atom_site_type_symbol
  Zn1      1.0000 0.46691  0.00773  0.02982  Biso   1.000  Zn
  Zn2      1.0000 0.49256  0.70198  0.47037  Biso   1.000  Zn
  Zn3      1.0000 0.99275  0.03327  0.47040  Biso   1.000  Zn
  Zn4      1.0000 0.50742  0.79808  0.52982  Biso   1.000  Zn
  Zn5      1.0000 0.99227  0.53309  0.47018  Biso   1.000  Zn
  Zn6      1.0000 0.29802  0.50744  0.02963  Biso   1.000  Zn
  Zn7      1.0000 0.96673  0.00725  0.02960  Biso   1.000  Zn
  Zn8      1.0000 0.20192  0.49258  0.97018  Biso   1.000  Zn
  Zn9      1.0000 0.53309  0.99227  0.97018  Biso   1.000  Zn
  Zn10     1.0000 0.50744  0.29802  0.52963  Biso   1.000  Zn
  Zn11     1.0000 0.00725  0.96673  0.52960  Biso   1.000  Zn
  Zn12     1.0000 0.49258  0.20192  0.47018  Biso   1.000  Zn
  Zn13     1.0000 0.00773  0.46691  0.52982  Biso   1.000  Zn
  Zn14     1.0000 0.70198  0.49256  0.97037  Biso   1.000  Zn
  Zn15     1.0000 0.03327  0.99275  0.97040  Biso   1.000  Zn
  Zn16     1.0000 0.79808  0.50742  0.02982  Biso   1.000  Zn
  H1       1.0000 0.64880  0.77360  0.09810  Biso   1.000  H
  H2       1.0000 0.72650  0.85110  0.40210  Biso   1.000  H
  H3       1.0000 0.65920  0.84740  0.07910  Biso   1.000  H
  H4       1.0000 0.61900  0.89680  0.03670  Biso   1.000  H
  H5       1.0000 0.53650  0.92890  0.12530  Biso   1.000  H
  H6       1.0000 0.57680  0.87960  0.16780  Biso   1.000  H
  H7       1.0000 0.63030  0.69190  0.07980  Biso   1.000  H
  H8       1.0000 0.64970  0.62110  0.03800  Biso   1.000  H
  H9       1.0000 0.77690  0.63490  0.12610  Biso   1.000  H
  H10      1.0000 0.75760  0.70580  0.16790  Biso   1.000  H
  H11      1.0000 0.79550  0.92470  0.33210  Biso   1.000  H
  H12      1.0000 0.86640  0.96480  0.37420  Biso   1.000  H
  H13      1.0000 0.87860  0.88280  0.46330  Biso   1.000  H
  H14      1.0000 0.80780  0.84260  0.42120  Biso   1.000  H
  H15      1.0000 0.35200  0.72500  0.90360  Biso   1.000  H
  H16      1.0000 0.24350  0.61910  0.83120  Biso   1.000  H
  H17      1.0000 0.22440  0.56980  0.87370  Biso   1.000  H
  H18      1.0000 0.35010  0.60430  0.96390  Biso   1.000  H
  H19      1.0000 0.36920  0.65360  0.92130  Biso   1.000  H
  H20      1.0000 0.34070  0.80890  0.92110  Biso   1.000  H
  H21      1.0000 0.38080  0.88000  0.96280  Biso   1.000  H
  H22      1.0000 0.46320  0.86680  0.87410  Biso   1.000  H
  H23      1.0000 0.42310  0.79570  0.83240  Biso   1.000  H
  H24      1.0000 0.22490  0.85030  0.40420  Biso   1.000  H
  H25      1.0000 0.15140  0.84060  0.42170  Biso   1.000  H
  H26      1.0000 0.10220  0.88100  0.46440  Biso   1.000  H
  H27      1.0000 0.06990  0.96350  0.37570  Biso   1.000  H
  H28      1.0000 0.11910  0.92310  0.33310  Biso   1.000  H
  H29      1.0000 0.29660  0.74400  0.33250  Biso   1.000  H
  H30      1.0000 0.36760  0.72480  0.37420  Biso   1.000  H
  H31      1.0000 0.37920  0.85040  0.46470  Biso   1.000  H
  H32      1.0000 0.30820  0.86960  0.42290  Biso   1.000  H
  H33      1.0000 0.65170  0.87110  0.42230  Biso   1.000  H
  H34      1.0000 0.60140  0.85180  0.46370  Biso   1.000  H
  H35      1.0000 0.57120  0.72460  0.37530  Biso   1.000  H
  H36      1.0000 0.62160  0.74400  0.33390  Biso   1.000  H
  H37      1.0000 0.22640  0.35120  0.40190  Biso   1.000  H
  H38      1.0000 0.14890  0.27350  0.09790  Biso   1.000  H
  H39      1.0000 0.15260  0.34080  0.42090  Biso   1.000  H
  H40      1.0000 0.10320  0.38100  0.46330  Biso   1.000  H
  H41      1.0000 0.07110  0.46350  0.37470  Biso   1.000  H
  H42      1.0000 0.12040  0.42320  0.33220  Biso   1.000  H
  H43      1.0000 0.30810  0.36970  0.42020  Biso   1.000  H
  H44      1.0000 0.37890  0.35030  0.46200  Biso   1.000  H
  H45      1.0000 0.36510  0.22310  0.37390  Biso   1.000  H
  H46      1.0000 0.29420  0.24240  0.33210  Biso   1.000  H
  H47      1.0000 0.07530  0.20450  0.16790  Biso   1.000  H
  H48      1.0000 0.03520  0.13360  0.12580  Biso   1.000  H
  H49      1.0000 0.11720  0.12140  0.03670  Biso   1.000  H
  H50      1.0000 0.15740  0.19220  0.07880  Biso   1.000  H
  H51      1.0000 0.27500  0.64800  0.59640  Biso   1.000  H
  H52      1.0000 0.38090  0.75650  0.66880  Biso   1.000  H
  H53      1.0000 0.43020  0.77560  0.62630  Biso   1.000  H
  H54      1.0000 0.39570  0.64990  0.53610  Biso   1.000  H
  H55      1.0000 0.34640  0.63080  0.57870  Biso   1.000  H
  H56      1.0000 0.19110  0.65930  0.57890  Biso   1.000  H
  H57      1.0000 0.12000  0.61920  0.53720  Biso   1.000  H
  H58      1.0000 0.13320  0.53680  0.62590  Biso   1.000  H
  H59      1.0000 0.20430  0.57690  0.66760  Biso   1.000  H
  H60      1.0000 0.14970  0.77510  0.09580  Biso   1.000  H
  H61      1.0000 0.15940  0.84860  0.07830  Biso   1.000  H
  H62      1.0000 0.11900  0.89780  0.03560  Biso   1.000  H
  H63      1.0000 0.03650  0.93010  0.12430  Biso   1.000  H
  H64      1.0000 0.07690  0.88090  0.16690  Biso   1.000  H
  H65      1.0000 0.25600  0.70340  0.16750  Biso   1.000  H
  H66      1.0000 0.27520  0.63240  0.12580  Biso   1.000  H
  H67      1.0000 0.14960  0.62080  0.03530  Biso   1.000  H
  H68      1.0000 0.13040  0.69180  0.07710  Biso   1.000  H
  H69      1.0000 0.12890  0.34830  0.07770  Biso   1.000  H
  H70      1.0000 0.14820  0.39860  0.03630  Biso   1.000  H
  H71      1.0000 0.27540  0.42880  0.12470  Biso   1.000  H
  H72      1.0000 0.25600  0.37840  0.16610  Biso   1.000  H
  H73      1.0000 0.35120  0.22640  0.90190  Biso   1.000  H
  H74      1.0000 0.27350  0.14890  0.59790  Biso   1.000  H
  H75      1.0000 0.34080  0.15260  0.92090  Biso   1.000  H
  H76      1.0000 0.38100  0.10320  0.96330  Biso   1.000  H
  H77      1.0000 0.46350  0.07110  0.87470  Biso   1.000  H
  H78      1.0000 0.42320  0.12040  0.83220  Biso   1.000  H
  H79      1.0000 0.36970  0.30810  0.92020  Biso   1.000  H
  H80      1.0000 0.35030  0.37890  0.96200  Biso   1.000  H
  H81      1.0000 0.22310  0.36510  0.87390  Biso   1.000  H
  H82      1.0000 0.24240  0.29420  0.83210  Biso   1.000  H
  H83      1.0000 0.20450  0.07530  0.66790  Biso   1.000  H
  H84      1.0000 0.13360  0.03520  0.62580  Biso   1.000  H
  H85      1.0000 0.12140  0.11720  0.53670  Biso   1.000  H
  H86      1.0000 0.19220  0.15740  0.57880  Biso   1.000  H
  H87      1.0000 0.64800  0.27500  0.09640  Biso   1.000  H
  H88      1.0000 0.75650  0.38090  0.16880  Biso   1.000  H
  H89      1.0000 0.77560  0.43020  0.12630  Biso   1.000  H
  H90      1.0000 0.64990  0.39570  0.03610  Biso   1.000  H
  H91      1.0000 0.63080  0.34640  0.07870  Biso   1.000  H
  H92      1.0000 0.65930  0.19110  0.07890  Biso   1.000  H
  H93      1.0000 0.61920  0.12000  0.03720  Biso   1.000  H
  H94      1.0000 0.53680  0.13320  0.12590  Biso   1.000  H
  H95      1.0000 0.57690  0.20430  0.16760  Biso   1.000  H
  H96      1.0000 0.77510  0.14970  0.59580  Biso   1.000  H
  H97      1.0000 0.84860  0.15940  0.57830  Biso   1.000  H
  H98      1.0000 0.89780  0.11900  0.53560  Biso   1.000  H
  H99      1.0000 0.93010  0.03650  0.62430  Biso   1.000  H
  H100     1.0000 0.88090  0.07690  0.66690  Biso   1.000  H
  H101     1.0000 0.70340  0.25600  0.66750  Biso   1.000  H
  H102     1.0000 0.63240  0.27520  0.62580  Biso   1.000  H
  H103     1.0000 0.62080  0.14960  0.53530  Biso   1.000  H
  H104     1.0000 0.69180  0.13040  0.57710  Biso   1.000  H
  H105     1.0000 0.34830  0.12890  0.57770  Biso   1.000  H
  H106     1.0000 0.39860  0.14820  0.53630  Biso   1.000  H
  H107     1.0000 0.42880  0.27540  0.62470  Biso   1.000  H
  H108     1.0000 0.37840  0.25600  0.66610  Biso   1.000  H
  H109     1.0000 0.77360  0.64880  0.59810  Biso   1.000  H
  H110     1.0000 0.85110  0.72650  0.90210  Biso   1.000  H
  H111     1.0000 0.84740  0.65920  0.57910  Biso   1.000  H
  H112     1.0000 0.89680  0.61900  0.53670  Biso   1.000  H
  H113     1.0000 0.92890  0.53650  0.62530  Biso   1.000  H
  H114     1.0000 0.87960  0.57680  0.66780  Biso   1.000  H
  H115     1.0000 0.69190  0.63030  0.57980  Biso   1.000  H
  H116     1.0000 0.62110  0.64970  0.53800  Biso   1.000  H
  H117     1.0000 0.63490  0.77690  0.62610  Biso   1.000  H
  H118     1.0000 0.70580  0.75760  0.66790  Biso   1.000  H
  H119     1.0000 0.92470  0.79550  0.83210  Biso   1.000  H
  H120     1.0000 0.96480  0.86640  0.87420  Biso   1.000  H
  H121     1.0000 0.88280  0.87860  0.96330  Biso   1.000  H
  H122     1.0000 0.84260  0.80780  0.92120  Biso   1.000  H
  H123     1.0000 0.72500  0.35200  0.40360  Biso   1.000  H
  H124     1.0000 0.61910  0.24350  0.33120  Biso   1.000  H
  H125     1.0000 0.56980  0.22440  0.37370  Biso   1.000  H
  H126     1.0000 0.60430  0.35010  0.46390  Biso   1.000  H
  H127     1.0000 0.65360  0.36920  0.42130  Biso   1.000  H
  H128     1.0000 0.80890  0.34070  0.42110  Biso   1.000  H
  H129     1.0000 0.88000  0.38080  0.46280  Biso   1.000  H
  H130     1.0000 0.86680  0.46320  0.37410  Biso   1.000  H
  H131     1.0000 0.79570  0.42310  0.33240  Biso   1.000  H
  H132     1.0000 0.85030  0.22490  0.90420  Biso   1.000  H
  H133     1.0000 0.84060  0.15140  0.92170  Biso   1.000  H
  H134     1.0000 0.88100  0.10220  0.96440  Biso   1.000  H
  H135     1.0000 0.96350  0.06990  0.87570  Biso   1.000  H
  H136     1.0000 0.92310  0.11910  0.83310  Biso   1.000  H
  H137     1.0000 0.74400  0.29660  0.83250  Biso   1.000  H
  H138     1.0000 0.72480  0.36760  0.87420  Biso   1.000  H
  H139     1.0000 0.85040  0.37920  0.96470  Biso   1.000  H
  H140     1.0000 0.86960  0.30820  0.92290  Biso   1.000  H
  H141     1.0000 0.87110  0.65170  0.92230  Biso   1.000  H
  H142     1.0000 0.85180  0.60140  0.96370  Biso   1.000  H
  H143     1.0000 0.72460  0.57120  0.87530  Biso   1.000  H
  H144     1.0000 0.74400  0.62160  0.83390  Biso   1.000  H
  C1       1.0000 0.68146  0.80898  0.22585  Biso   1.000  C
  C2       1.0000 0.65748  0.83944  0.20090  Biso   1.000  C
  C3       1.0000 0.64519  0.82613  0.15290  Biso   1.000  C
  C4       1.0000 0.65687  0.78235  0.12980  Biso   1.000  C
  C5       1.0000 0.68085  0.75189  0.15470  Biso   1.000  C
  C6       1.0000 0.69314  0.76520  0.20280  Biso   1.000  C
  C7       1.0000 0.69101  0.81913  0.27441  Biso   1.000  C
  C8       1.0000 0.73476  0.84248  0.29730  Biso   1.000  C
  C9       1.0000 0.74811  0.85451  0.34540  Biso   1.000  C
  C10      1.0000 0.71771  0.84321  0.37045  Biso   1.000  C
  C11      1.0000 0.67395  0.81985  0.34750  Biso   1.000  C
  C12      1.0000 0.66060  0.80782  0.29950  Biso   1.000  C
  C13      1.0000 0.62217  0.85837  0.12780  Biso   1.000  C
  C14      1.0000 0.63486  0.86360  0.08830  Biso   1.000  C
  C15      1.0000 0.61057  0.89339  0.06273  Biso   1.000  C
  C16      1.0000 0.57357  0.91797  0.07666  Biso   1.000  C
  C17      1.0000 0.56088  0.91274  0.11620  Biso   1.000  C
  C18      1.0000 0.58517  0.88295  0.14172  Biso   1.000  C
  C19      1.0000 0.69199  0.70615  0.12810  Biso   1.000  C
  C20      1.0000 0.65947  0.68061  0.08900  Biso   1.000  C
  C21      1.0000 0.67112  0.63788  0.06381  Biso   1.000  C
  C22      1.0000 0.71528  0.62070  0.07775  Biso   1.000  C
  C23      1.0000 0.74781  0.64623  0.11690  Biso   1.000  C
  C24      1.0000 0.73616  0.68896  0.14207  Biso   1.000  C
  C25      1.0000 0.79437  0.87951  0.37234  Biso   1.000  C
  C26      1.0000 0.81202  0.91632  0.35819  Biso   1.000  C
  C27      1.0000 0.85471  0.94053  0.38360  Biso   1.000  C
  C28      1.0000 0.87973  0.92793  0.42310  Biso   1.000  C
  C29      1.0000 0.86209  0.89111  0.43723  Biso   1.000  C
  C30      1.0000 0.81940  0.86690  0.41190  Biso   1.000  C
  C31      1.0000 0.31878  0.69656  0.77585  Biso   1.000  C
  C32      1.0000 0.31023  0.66305  0.79900  Biso   1.000  C
  C33      1.0000 0.32271  0.67377  0.84700  Biso   1.000  C
  C34      1.0000 0.34374  0.71800  0.87189  Biso   1.000  C
  C35      1.0000 0.35227  0.75151  0.84880  Biso   1.000  C
  C36      1.0000 0.33979  0.74079  0.80080  Biso   1.000  C
  C37      1.0000 0.30835  0.64141  0.87190  Biso   1.000  C
  C38      1.0000 0.26472  0.61618  0.85754  Biso   1.000  C
  C39      1.0000 0.25318  0.58648  0.88320  Biso   1.000  C
  C40      1.0000 0.28529  0.58199  0.92317  Biso   1.000  C
  C41      1.0000 0.32892  0.60720  0.93752  Biso   1.000  C
  C42      1.0000 0.34045  0.63691  0.91190  Biso   1.000  C
  C43      1.0000 0.37776  0.79506  0.87250  Biso   1.000  C
  C44      1.0000 0.36501  0.82043  0.91180  Biso   1.000  C
  C45      1.0000 0.38918  0.86322  0.93692  Biso   1.000  C
  C46      1.0000 0.42610  0.88062  0.92274  Biso   1.000  C
  C47      1.0000 0.43885  0.85525  0.88340  Biso   1.000  C
  C48      1.0000 0.41468  0.81246  0.85830  Biso   1.000  C
  C49      1.0000 0.19656  0.81922  0.27654  Biso   1.000  C
  C50      1.0000 0.24067  0.81049  0.30150  Biso   1.000  C
  C51      1.0000 0.25132  0.82214  0.34960  Biso   1.000  C
  C52      1.0000 0.21785  0.84253  0.37258  Biso   1.000  C
  C53      1.0000 0.17375  0.85127  0.34760  Biso   1.000  C
  C54      1.0000 0.16309  0.83961  0.29960  Biso   1.000  C
  C55      1.0000 0.14033  0.87773  0.37306  Biso   1.000  C
  C56      1.0000 0.13522  0.86506  0.41260  Biso   1.000  C
  C57      1.0000 0.10555  0.88943  0.43828  Biso   1.000  C
  C58      1.0000 0.08099  0.92645  0.42441  Biso   1.000  C
  C59      1.0000 0.08610  0.93912  0.38490  Biso   1.000  C
  C60      1.0000 0.11576  0.91476  0.35919  Biso   1.000  C
  C61      1.0000 0.29514  0.80872  0.37344  Biso   1.000  C
  C62      1.0000 0.31304  0.76510  0.35876  Biso   1.000  C
  C63      1.0000 0.35584  0.75354  0.38390  Biso   1.000  C
  C64      1.0000 0.38074  0.78560  0.42371  Biso   1.000  C
  C65      1.0000 0.36283  0.82923  0.43839  Biso   1.000  C
  C66      1.0000 0.32005  0.84079  0.41330  Biso   1.000  C
  C67      1.0000 0.64183  0.80953  0.37380  Biso   1.000  C
  C68      1.0000 0.63574  0.84200  0.41290  Biso   1.000  C
  C69      1.0000 0.60537  0.83035  0.43790  Biso   1.000  C
  C70      1.0000 0.58109  0.78623  0.42374  Biso   1.000  C
  C71      1.0000 0.58718  0.75376  0.38460  Biso   1.000  C
  C72      1.0000 0.61756  0.76542  0.35967  Biso   1.000  C
  C73      1.0000 0.54810  0.94910  0.04790  Biso   1.000  C
  C74      1.0000 0.72600  0.57420  0.04790  Biso   1.000  C
  C75      1.0000 0.55130  0.77630  0.45310  Biso   1.000  C
  C76      1.0000 0.04990  0.95150  0.45260  Biso   1.000  C
  C77      1.0000 0.27390  0.55090  0.95090  Biso   1.000  C
  C78      1.0000 0.92420  0.95340  0.45100  Biso   1.000  C
  C79      1.0000 0.45220  0.92580  0.95070  Biso   1.000  C
  C80      1.0000 0.42580  0.77380  0.45240  Biso   1.000  C
  C81      1.0000 0.80250  0.81610  0.27450  Biso   1.000  C
  C82      1.0000 0.83290  0.83490  0.24490  Biso   1.000  C
  C83      1.0000 0.68870  0.91610  0.23420  Biso   1.000  C
  C84      1.0000 0.67540  0.96420  0.26360  Biso   1.000  C
  C85      1.0000 0.08180  0.81000  0.27650  Biso   1.000  C
  C86      1.0000 0.03410  0.82630  0.24590  Biso   1.000  C
  C87      1.0000 0.33110  0.58630  0.77630  Biso   1.000  C
  C88      1.0000 0.30250  0.53790  0.74980  Biso   1.000  C
  C89      1.0000 0.19102  0.31854  0.27415  Biso   1.000  C
  C90      1.0000 0.16056  0.34252  0.29910  Biso   1.000  C
  C91      1.0000 0.17387  0.35481  0.34710  Biso   1.000  C
  C92      1.0000 0.21765  0.34313  0.37020  Biso   1.000  C
  C93      1.0000 0.24811  0.31915  0.34530  Biso   1.000  C
  C94      1.0000 0.23480  0.30686  0.29720  Biso   1.000  C
  C95      1.0000 0.18087  0.30899  0.22559  Biso   1.000  C
  C96      1.0000 0.15752  0.26524  0.20270  Biso   1.000  C
  C97      1.0000 0.14549  0.25189  0.15460  Biso   1.000  C
  C98      1.0000 0.15679  0.28229  0.12955  Biso   1.000  C
  C99      1.0000 0.18015  0.32605  0.15250  Biso   1.000  C
  C100     1.0000 0.19218  0.33940  0.20050  Biso   1.000  C
  C101     1.0000 0.14163  0.37783  0.37220  Biso   1.000  C
  C102     1.0000 0.13640  0.36514  0.41170  Biso   1.000  C
  C103     1.0000 0.10661  0.38943  0.43727  Biso   1.000  C
  C104     1.0000 0.08203  0.42643  0.42334  Biso   1.000  C
  C105     1.0000 0.08726  0.43912  0.38380  Biso   1.000  C
  C106     1.0000 0.11705  0.41483  0.35828  Biso   1.000  C
  C107     1.0000 0.29385  0.30801  0.37190  Biso   1.000  C
  C108     1.0000 0.31939  0.34053  0.41100  Biso   1.000  C
  C109     1.0000 0.36212  0.32888  0.43619  Biso   1.000  C
  C110     1.0000 0.37930  0.28472  0.42225  Biso   1.000  C
  C111     1.0000 0.35377  0.25219  0.38310  Biso   1.000  C
  C112     1.0000 0.31104  0.26384  0.35793  Biso   1.000  C
  C113     1.0000 0.12049  0.20563  0.12766  Biso   1.000  C
  C114     1.0000 0.08368  0.18798  0.14181  Biso   1.000  C
  C115     1.0000 0.05947  0.14529  0.11640  Biso   1.000  C
  C116     1.0000 0.07207  0.12027  0.07690  Biso   1.000  C
  C117     1.0000 0.10889  0.13791  0.06277  Biso   1.000  C
  C118     1.0000 0.13310  0.18060  0.08810  Biso   1.000  C
  C119     1.0000 0.30344  0.68122  0.72415  Biso   1.000  C
  C120     1.0000 0.33695  0.68977  0.70100  Biso   1.000  C
  C121     1.0000 0.32623  0.67729  0.65300  Biso   1.000  C
  C122     1.0000 0.28200  0.65626  0.62811  Biso   1.000  C
  C123     1.0000 0.24849  0.64773  0.65120  Biso   1.000  C
  C124     1.0000 0.25921  0.66021  0.69920  Biso   1.000  C
  C125     1.0000 0.35859  0.69165  0.62810  Biso   1.000  C
  C126     1.0000 0.38382  0.73528  0.64246  Biso   1.000  C
  C127     1.0000 0.41352  0.74682  0.61680  Biso   1.000  C
  C128     1.0000 0.41801  0.71471  0.57683  Biso   1.000  C
  C129     1.0000 0.39280  0.67108  0.56248  Biso   1.000  C
  C130     1.0000 0.36309  0.65955  0.58810  Biso   1.000  C
  C131     1.0000 0.20494  0.62224  0.62750  Biso   1.000  C
  C132     1.0000 0.17957  0.63499  0.58820  Biso   1.000  C
  C133     1.0000 0.13678  0.61082  0.56308  Biso   1.000  C
  C134     1.0000 0.11938  0.57390  0.57726  Biso   1.000  C
  C135     1.0000 0.14475  0.56115  0.61660  Biso   1.000  C
  C136     1.0000 0.18754  0.58532  0.64170  Biso   1.000  C
  C137     1.0000 0.18078  0.80344  0.22346  Biso   1.000  C
  C138     1.0000 0.18951  0.75933  0.19850  Biso   1.000  C
  C139     1.0000 0.17786  0.74868  0.15040  Biso   1.000  C
  C140     1.0000 0.15747  0.78215  0.12742  Biso   1.000  C
  C141     1.0000 0.14873  0.82625  0.15240  Biso   1.000  C
  C142     1.0000 0.16039  0.83691  0.20040  Biso   1.000  C
  C143     1.0000 0.12227  0.85967  0.12694  Biso   1.000  C
  C144     1.0000 0.13494  0.86478  0.08740  Biso   1.000  C
  C145     1.0000 0.11057  0.89445  0.06172  Biso   1.000  C
  C146     1.0000 0.07355  0.91901  0.07559  Biso   1.000  C
  C147     1.0000 0.06088  0.91390  0.11510  Biso   1.000  C
  C148     1.0000 0.08524  0.88424  0.14081  Biso   1.000  C
  C149     1.0000 0.19128  0.70486  0.12656  Biso   1.000  C
  C150     1.0000 0.23490  0.68696  0.14124  Biso   1.000  C
  C151     1.0000 0.24646  0.64416  0.11610  Biso   1.000  C
  C152     1.0000 0.21440  0.61926  0.07629  Biso   1.000  C
  C153     1.0000 0.17077  0.63717  0.06161  Biso   1.000  C
  C154     1.0000 0.15921  0.67995  0.08670  Biso   1.000  C
  C155     1.0000 0.19047  0.35817  0.12620  Biso   1.000  C
  C156     1.0000 0.15800  0.36426  0.08710  Biso   1.000  C
  C157     1.0000 0.16965  0.39463  0.06210  Biso   1.000  C
  C158     1.0000 0.21377  0.41891  0.07626  Biso   1.000  C
  C159     1.0000 0.24624  0.41282  0.11540  Biso   1.000  C
  C160     1.0000 0.23458  0.38244  0.14033  Biso   1.000  C
  C161     1.0000 0.05090  0.45190  0.45210  Biso   1.000  C
  C162     1.0000 0.42580  0.27400  0.45210  Biso   1.000  C
  C163     1.0000 0.22370  0.44870  0.04690  Biso   1.000  C
  C164     1.0000 0.04850  0.95010  0.04740  Biso   1.000  C
  C165     1.0000 0.44910  0.72610  0.54910  Biso   1.000  C
  C166     1.0000 0.04660  0.07580  0.04900  Biso   1.000  C
  C167     1.0000 0.07420  0.54780  0.54930  Biso   1.000  C
  C168     1.0000 0.22620  0.57420  0.04760  Biso   1.000  C
  C169     1.0000 0.18390  0.19750  0.22550  Biso   1.000  C
  C170     1.0000 0.16510  0.16710  0.25510  Biso   1.000  C
  C171     1.0000 0.08390  0.31130  0.26580  Biso   1.000  C
  C172     1.0000 0.03580  0.32460  0.23640  Biso   1.000  C
  C173     1.0000 0.19000  0.91820  0.22350  Biso   1.000  C
  C174     1.0000 0.17370  0.96590  0.25410  Biso   1.000  C
  C175     1.0000 0.41370  0.66890  0.72370  Biso   1.000  C
  C176     1.0000 0.46210  0.69750  0.75020  Biso   1.000  C
  C177     1.0000 0.31854  0.19102  0.77415  Biso   1.000  C
  C178     1.0000 0.34252  0.16056  0.79910  Biso   1.000  C
  C179     1.0000 0.35481  0.17387  0.84710  Biso   1.000  C
  C180     1.0000 0.34313  0.21765  0.87020  Biso   1.000  C
  C181     1.0000 0.31915  0.24811  0.84530  Biso   1.000  C
  C182     1.0000 0.30686  0.23480  0.79720  Biso   1.000  C
  C183     1.0000 0.30899  0.18087  0.72559  Biso   1.000  C
  C184     1.0000 0.26524  0.15752  0.70270  Biso   1.000  C
  C185     1.0000 0.25189  0.14549  0.65460  Biso   1.000  C
  C186     1.0000 0.28229  0.15679  0.62955  Biso   1.000  C
  C187     1.0000 0.32605  0.18015  0.65250  Biso   1.000  C
  C188     1.0000 0.33940  0.19218  0.70050  Biso   1.000  C
  C189     1.0000 0.37783  0.14163  0.87220  Biso   1.000  C
  C190     1.0000 0.36514  0.13640  0.91170  Biso   1.000  C
  C191     1.0000 0.38943  0.10661  0.93727  Biso   1.000  C
  C192     1.0000 0.42643  0.08203  0.92334  Biso   1.000  C
  C193     1.0000 0.43912  0.08726  0.88380  Biso   1.000  C
  C194     1.0000 0.41483  0.11705  0.85828  Biso   1.000  C
  C195     1.0000 0.30801  0.29385  0.87190  Biso   1.000  C
  C196     1.0000 0.34053  0.31939  0.91100  Biso   1.000  C
  C197     1.0000 0.32888  0.36212  0.93619  Biso   1.000  C
  C198     1.0000 0.28472  0.37930  0.92225  Biso   1.000  C
  C199     1.0000 0.25219  0.35377  0.88310  Biso   1.000  C
  C200     1.0000 0.26384  0.31104  0.85793  Biso   1.000  C
  C201     1.0000 0.20563  0.12049  0.62766  Biso   1.000  C
  C202     1.0000 0.18798  0.08368  0.64181  Biso   1.000  C
  C203     1.0000 0.14529  0.05947  0.61640  Biso   1.000  C
  C204     1.0000 0.12027  0.07207  0.57690  Biso   1.000  C
  C205     1.0000 0.13791  0.10889  0.56277  Biso   1.000  C
  C206     1.0000 0.18060  0.13310  0.58810  Biso   1.000  C
  C207     1.0000 0.68122  0.30344  0.22415  Biso   1.000  C
  C208     1.0000 0.68977  0.33695  0.20100  Biso   1.000  C
  C209     1.0000 0.67729  0.32623  0.15300  Biso   1.000  C
  C210     1.0000 0.65626  0.28200  0.12811  Biso   1.000  C
  C211     1.0000 0.64773  0.24849  0.15120  Biso   1.000  C
  C212     1.0000 0.66021  0.25921  0.19920  Biso   1.000  C
  C213     1.0000 0.69165  0.35859  0.12810  Biso   1.000  C
  C214     1.0000 0.73528  0.38382  0.14246  Biso   1.000  C
  C215     1.0000 0.74682  0.41352  0.11680  Biso   1.000  C
  C216     1.0000 0.71471  0.41801  0.07683  Biso   1.000  C
  C217     1.0000 0.67108  0.39280  0.06248  Biso   1.000  C
  C218     1.0000 0.65955  0.36309  0.08810  Biso   1.000  C
  C219     1.0000 0.62224  0.20494  0.12750  Biso   1.000  C
  C220     1.0000 0.63499  0.17957  0.08820  Biso   1.000  C
  C221     1.0000 0.61082  0.13678  0.06308  Biso   1.000  C
  C222     1.0000 0.57390  0.11938  0.07726  Biso   1.000  C
  C223     1.0000 0.56115  0.14475  0.11660  Biso   1.000  C
  C224     1.0000 0.58532  0.18754  0.14170  Biso   1.000  C
  C225     1.0000 0.80344  0.18078  0.72346  Biso   1.000  C
  C226     1.0000 0.75933  0.18951  0.69850  Biso   1.000  C
  C227     1.0000 0.74868  0.17786  0.65040  Biso   1.000  C
  C228     1.0000 0.78215  0.15747  0.62742  Biso   1.000  C
  C229     1.0000 0.82625  0.14873  0.65240  Biso   1.000  C
  C230     1.0000 0.83691  0.16039  0.70040  Biso   1.000  C
  C231     1.0000 0.85967  0.12227  0.62694  Biso   1.000  C
  C232     1.0000 0.86478  0.13494  0.58740  Biso   1.000  C
  C233     1.0000 0.89445  0.11057  0.56172  Biso   1.000  C
  C234     1.0000 0.91901  0.07355  0.57559  Biso   1.000  C
  C235     1.0000 0.91390  0.06088  0.61510  Biso   1.000  C
  C236     1.0000 0.88424  0.08524  0.64081  Biso   1.000  C
  C237     1.0000 0.70486  0.19128  0.62656  Biso   1.000  C
  C238     1.0000 0.68696  0.23490  0.64124  Biso   1.000  C
  C239     1.0000 0.64416  0.24646  0.61610  Biso   1.000  C
  C240     1.0000 0.61926  0.21440  0.57629  Biso   1.000  C
  C241     1.0000 0.63717  0.17077  0.56161  Biso   1.000  C
  C242     1.0000 0.67995  0.15921  0.58670  Biso   1.000  C
  C243     1.0000 0.35817  0.19047  0.62620  Biso   1.000  C
  C244     1.0000 0.36426  0.15800  0.58710  Biso   1.000  C
  C245     1.0000 0.39463  0.16965  0.56210  Biso   1.000  C
  C246     1.0000 0.41891  0.21377  0.57626  Biso   1.000  C
  C247     1.0000 0.41282  0.24624  0.61540  Biso   1.000  C
  C248     1.0000 0.38244  0.23458  0.64033  Biso   1.000  C
  C249     1.0000 0.45190  0.05090  0.95210  Biso   1.000  C
  C250     1.0000 0.27400  0.42580  0.95210  Biso   1.000  C
  C251     1.0000 0.44870  0.22370  0.54690  Biso   1.000  C
  C252     1.0000 0.95010  0.04850  0.54740  Biso   1.000  C
  C253     1.0000 0.72610  0.44910  0.04910  Biso   1.000  C
  C254     1.0000 0.07580  0.04660  0.54900  Biso   1.000  C
  C255     1.0000 0.54780  0.07420  0.04930  Biso   1.000  C
  C256     1.0000 0.57420  0.22620  0.54760  Biso   1.000  C
  C257     1.0000 0.19750  0.18390  0.72550  Biso   1.000  C
  C258     1.0000 0.16710  0.16510  0.75510  Biso   1.000  C
  C259     1.0000 0.31130  0.08390  0.76580  Biso   1.000  C
  C260     1.0000 0.32460  0.03580  0.73640  Biso   1.000  C
  C261     1.0000 0.91820  0.19000  0.72350  Biso   1.000  C
  C262     1.0000 0.96590  0.17370  0.75410  Biso   1.000  C
  C263     1.0000 0.66890  0.41370  0.22370  Biso   1.000  C
  C264     1.0000 0.69750  0.46210  0.25020  Biso   1.000  C
  C265     1.0000 0.80898  0.68146  0.72585  Biso   1.000  C
  C266     1.0000 0.83944  0.65748  0.70090  Biso   1.000  C
  C267     1.0000 0.82613  0.64519  0.65290  Biso   1.000  C
  C268     1.0000 0.78235  0.65687  0.62980  Biso   1.000  C
  C269     1.0000 0.75189  0.68085  0.65470  Biso   1.000  C
  C270     1.0000 0.76520  0.69314  0.70280  Biso   1.000  C
  C271     1.0000 0.81913  0.69101  0.77441  Biso   1.000  C
  C272     1.0000 0.84248  0.73476  0.79730  Biso   1.000  C
  C273     1.0000 0.85451  0.74811  0.84540  Biso   1.000  C
  C274     1.0000 0.84321  0.71771  0.87045  Biso   1.000  C
  C275     1.0000 0.81985  0.67395  0.84750  Biso   1.000  C
  C276     1.0000 0.80782  0.66060  0.79950  Biso   1.000  C
  C277     1.0000 0.85837  0.62217  0.62780  Biso   1.000  C
  C278     1.0000 0.86360  0.63486  0.58830  Biso   1.000  C
  C279     1.0000 0.89339  0.61057  0.56273  Biso   1.000  C
  C280     1.0000 0.91797  0.57357  0.57666  Biso   1.000  C
  C281     1.0000 0.91274  0.56088  0.61620  Biso   1.000  C
  C282     1.0000 0.88295  0.58517  0.64172  Biso   1.000  C
  C283     1.0000 0.70615  0.69199  0.62810  Biso   1.000  C
  C284     1.0000 0.68061  0.65947  0.58900  Biso   1.000  C
  C285     1.0000 0.63788  0.67112  0.56381  Biso   1.000  C
  C286     1.0000 0.62070  0.71528  0.57775  Biso   1.000  C
  C287     1.0000 0.64623  0.74781  0.61690  Biso   1.000  C
  C288     1.0000 0.68896  0.73616  0.64207  Biso   1.000  C
  C289     1.0000 0.87951  0.79437  0.87234  Biso   1.000  C
  C290     1.0000 0.91632  0.81202  0.85819  Biso   1.000  C
  C291     1.0000 0.94053  0.85471  0.88360  Biso   1.000  C
  C292     1.0000 0.92793  0.87973  0.92310  Biso   1.000  C
  C293     1.0000 0.89111  0.86209  0.93723  Biso   1.000  C
  C294     1.0000 0.86690  0.81940  0.91190  Biso   1.000  C
  C295     1.0000 0.69656  0.31878  0.27585  Biso   1.000  C
  C296     1.0000 0.66305  0.31023  0.29900  Biso   1.000  C
  C297     1.0000 0.67377  0.32271  0.34700  Biso   1.000  C
  C298     1.0000 0.71800  0.34374  0.37189  Biso   1.000  C
  C299     1.0000 0.75151  0.35227  0.34880  Biso   1.000  C
  C300     1.0000 0.74079  0.33979  0.30080  Biso   1.000  C
  C301     1.0000 0.64141  0.30835  0.37190  Biso   1.000  C
  C302     1.0000 0.61618  0.26472  0.35754  Biso   1.000  C
  C303     1.0000 0.58648  0.25318  0.38320  Biso   1.000  C
  C304     1.0000 0.58199  0.28529  0.42317  Biso   1.000  C
  C305     1.0000 0.60720  0.32892  0.43752  Biso   1.000  C
  C306     1.0000 0.63691  0.34045  0.41190  Biso   1.000  C
  C307     1.0000 0.79506  0.37776  0.37250  Biso   1.000  C
  C308     1.0000 0.82043  0.36501  0.41180  Biso   1.000  C
  C309     1.0000 0.86322  0.38918  0.43692  Biso   1.000  C
  C310     1.0000 0.88062  0.42610  0.42274  Biso   1.000  C
  C311     1.0000 0.85525  0.43885  0.38340  Biso   1.000  C
  C312     1.0000 0.81246  0.41468  0.35830  Biso   1.000  C
  C313     1.0000 0.81922  0.19656  0.77654  Biso   1.000  C
  C314     1.0000 0.81049  0.24067  0.80150  Biso   1.000  C
  C315     1.0000 0.82214  0.25132  0.84960  Biso   1.000  C
  C316     1.0000 0.84253  0.21785  0.87258  Biso   1.000  C
  C317     1.0000 0.85127  0.17375  0.84760  Biso   1.000  C
  C318     1.0000 0.83961  0.16309  0.79960  Biso   1.000  C
  C319     1.0000 0.87773  0.14033  0.87306  Biso   1.000  C
  C320     1.0000 0.86506  0.13522  0.91260  Biso   1.000  C
  C321     1.0000 0.88943  0.10555  0.93828  Biso   1.000  C
  C322     1.0000 0.92645  0.08099  0.92441  Biso   1.000  C
  C323     1.0000 0.93912  0.08610  0.88490  Biso   1.000  C
  C324     1.0000 0.91476  0.11576  0.85919  Biso   1.000  C
  C325     1.0000 0.80872  0.29514  0.87344  Biso   1.000  C
  C326     1.0000 0.76510  0.31304  0.85876  Biso   1.000  C
  C327     1.0000 0.75354  0.35584  0.88390  Biso   1.000  C
  C328     1.0000 0.78560  0.38074  0.92371  Biso   1.000  C
  C329     1.0000 0.82923  0.36283  0.93839  Biso   1.000  C
  C330     1.0000 0.84079  0.32005  0.91330  Biso   1.000  C
  C331     1.0000 0.80953  0.64183  0.87380  Biso   1.000  C
  C332     1.0000 0.84200  0.63574  0.91290  Biso   1.000  C
  C333     1.0000 0.83035  0.60537  0.93790  Biso   1.000  C
  C334     1.0000 0.78623  0.58109  0.92374  Biso   1.000  C
  C335     1.0000 0.75376  0.58718  0.88460  Biso   1.000  C
  C336     1.0000 0.76542  0.61756  0.85967  Biso   1.000  C
  C337     1.0000 0.94910  0.54810  0.54790  Biso   1.000  C
  C338     1.0000 0.57420  0.72600  0.54790  Biso   1.000  C
  C339     1.0000 0.77630  0.55130  0.95310  Biso   1.000  C
  C340     1.0000 0.95150  0.04990  0.95260  Biso   1.000  C
  C341     1.0000 0.55090  0.27390  0.45090  Biso   1.000  C
  C342     1.0000 0.95340  0.92420  0.95100  Biso   1.000  C
  C343     1.0000 0.92580  0.45220  0.45070  Biso   1.000  C
  C344     1.0000 0.77380  0.42580  0.95240  Biso   1.000  C
  C345     1.0000 0.81610  0.80250  0.77450  Biso   1.000  C
  C346     1.0000 0.83490  0.83290  0.74490  Biso   1.000  C
  C347     1.0000 0.91610  0.68870  0.73420  Biso   1.000  C
  C348     1.0000 0.96420  0.67540  0.76360  Biso   1.000  C
  C349     1.0000 0.81000  0.08180  0.77650  Biso   1.000  C
  C350     1.0000 0.82630  0.03410  0.74590  Biso   1.000  C
  C351     1.0000 0.58630  0.33110  0.27630  Biso   1.000  C
  C352     1.0000 0.53790  0.30250  0.24980  Biso   1.000  C
  O1       1.0000 0.53335  0.73275  0.43920  Biso   1.000  O
  O2       1.0000 0.54371  0.80519  0.48440  Biso   1.000  O
  O3       1.0000 0.30402  0.54502  0.98420  Biso   1.000  O
  O4       1.0000 0.23179  0.53303  0.93830  Biso   1.000  O
  O5       1.0000 0.76854  0.56384  0.06220  Biso   1.000  O
  O6       1.0000 0.69574  0.55158  0.01630  Biso   1.000  O
  O7       1.0000 0.43651  0.73159  0.43794  Biso   1.000  O
  O8       1.0000 0.44720  0.80376  0.48430  Biso   1.000  O
  O9       1.0000 0.04409  0.93711  0.48400  Biso   1.000  O
  O10      1.0000 0.03297  0.98705  0.43830  Biso   1.000  O
  O11      1.0000 0.51260  0.96698  0.06100  Biso   1.000  O
  O12      1.0000 0.56202  0.95550  0.01580  Biso   1.000  O
  O13      1.0000 0.93734  0.98808  0.43920  Biso   1.000  O
  O14      1.0000 0.94756  0.93904  0.48400  Biso   1.000  O
  O15      1.0000 0.43740  0.94834  0.98430  Biso   1.000  O
  O16      1.0000 0.48786  0.93700  0.93880  Biso   1.000  O
  O17      1.0000 0.51811  0.86547  0.57190  Biso   1.000  O
  O18      1.0000 0.48289  0.63245  0.43080  Biso   1.000  O
  O19      1.0000 0.42122  0.01860  0.07050  Biso   1.000  O
  O20      1.0000 0.98221  0.08385  0.43010  Biso   1.000  O
  O21      1.0000 0.76610  0.85090  0.27480  Biso   1.000  O
  O22      1.0000 0.64900  0.88020  0.22600  Biso   1.000  O
  O23      1.0000 0.11760  0.84620  0.27640  Biso   1.000  O
  O24      1.0000 0.29290  0.61790  0.77490  Biso   1.000  O
  O25      1.0000 0.26725  0.46665  0.06080  Biso   1.000  O
  O26      1.0000 0.19481  0.45629  0.01560  Biso   1.000  O
  O27      1.0000 0.45498  0.69598  0.51580  Biso   1.000  O
  O28      1.0000 0.46697  0.76821  0.56170  Biso   1.000  O
  O29      1.0000 0.43616  0.23146  0.43780  Biso   1.000  O
  O30      1.0000 0.44842  0.30426  0.48370  Biso   1.000  O
  O31      1.0000 0.26841  0.56349  0.06206  Biso   1.000  O
  O32      1.0000 0.19624  0.55280  0.01570  Biso   1.000  O
  O33      1.0000 0.06289  0.95591  0.01600  Biso   1.000  O
  O34      1.0000 0.01295  0.96703  0.06170  Biso   1.000  O
  O35      1.0000 0.03302  0.48740  0.43900  Biso   1.000  O
  O36      1.0000 0.04450  0.43798  0.48420  Biso   1.000  O
  O37      1.0000 0.01192  0.06266  0.06080  Biso   1.000  O
  O38      1.0000 0.06096  0.05244  0.01600  Biso   1.000  O
  O39      1.0000 0.05166  0.56260  0.51570  Biso   1.000  O
  O40      1.0000 0.06300  0.51214  0.56120  Biso   1.000  O
  O41      1.0000 0.13453  0.48189  0.92810  Biso   1.000  O
  O42      1.0000 0.36755  0.51711  0.06920  Biso   1.000  O
  O43      1.0000 0.98140  0.57878  0.42950  Biso   1.000  O
  O44      1.0000 0.91615  0.01779  0.06990  Biso   1.000  O
  O45      1.0000 0.14910  0.23390  0.22520  Biso   1.000  O
  O46      1.0000 0.11980  0.35100  0.27400  Biso   1.000  O
  O47      1.0000 0.15380  0.88240  0.22360  Biso   1.000  O
  O48      1.0000 0.38210  0.70710  0.72510  Biso   1.000  O
  O49      1.0000 0.46665  0.26725  0.56080  Biso   1.000  O
  O50      1.0000 0.45629  0.19481  0.51560  Biso   1.000  O
  O51      1.0000 0.69598  0.45498  0.01580  Biso   1.000  O
  O52      1.0000 0.76821  0.46697  0.06170  Biso   1.000  O
  O53      1.0000 0.23146  0.43616  0.93780  Biso   1.000  O
  O54      1.0000 0.30426  0.44842  0.98370  Biso   1.000  O
  O55      1.0000 0.56349  0.26841  0.56206  Biso   1.000  O
  O56      1.0000 0.55280  0.19624  0.51570  Biso   1.000  O
  O57      1.0000 0.95591  0.06289  0.51600  Biso   1.000  O
  O58      1.0000 0.96703  0.01295  0.56170  Biso   1.000  O
  O59      1.0000 0.48740  0.03302  0.93900  Biso   1.000  O
  O60      1.0000 0.43798  0.04450  0.98420  Biso   1.000  O
  O61      1.0000 0.06266  0.01192  0.56080  Biso   1.000  O
  O62      1.0000 0.05244  0.06096  0.51600  Biso   1.000  O
  O63      1.0000 0.56260  0.05166  0.01570  Biso   1.000  O
  O64      1.0000 0.51214  0.06300  0.06120  Biso   1.000  O
  O65      1.0000 0.48189  0.13453  0.42810  Biso   1.000  O
  O66      1.0000 0.51711  0.36755  0.56920  Biso   1.000  O
  O67      1.0000 0.57878  0.98140  0.92950  Biso   1.000  O
  O68      1.0000 0.01779  0.91615  0.56990  Biso   1.000  O
  O69      1.0000 0.23390  0.14910  0.72520  Biso   1.000  O
  O70      1.0000 0.35100  0.11980  0.77400  Biso   1.000  O
  O71      1.0000 0.88240  0.15380  0.72360  Biso   1.000  O
  O72      1.0000 0.70710  0.38210  0.22510  Biso   1.000  O
  O73      1.0000 0.73275  0.53335  0.93920  Biso   1.000  O
  O74      1.0000 0.80519  0.54371  0.98440  Biso   1.000  O
  O75      1.0000 0.54502  0.30402  0.48420  Biso   1.000  O
  O76      1.0000 0.53303  0.23179  0.43830  Biso   1.000  O
  O77      1.0000 0.56384  0.76854  0.56220  Biso   1.000  O
  O78      1.0000 0.55158  0.69574  0.51630  Biso   1.000  O
  O79      1.0000 0.73159  0.43651  0.93794  Biso   1.000  O
  O80      1.0000 0.80376  0.44720  0.98430  Biso   1.000  O
  O81      1.0000 0.93711  0.04409  0.98400  Biso   1.000  O
  O82      1.0000 0.98705  0.03297  0.93830  Biso   1.000  O
  O83      1.0000 0.96698  0.51260  0.56100  Biso   1.000  O
  O84      1.0000 0.95550  0.56202  0.51580  Biso   1.000  O
  O85      1.0000 0.98808  0.93734  0.93920  Biso   1.000  O
  O86      1.0000 0.93904  0.94756  0.98400  Biso   1.000  O
  O87      1.0000 0.94834  0.43740  0.48430  Biso   1.000  O
  O88      1.0000 0.93700  0.48786  0.43880  Biso   1.000  O
  O89      1.0000 0.86547  0.51811  0.07190  Biso   1.000  O
  O90      1.0000 0.63245  0.48289  0.93080  Biso   1.000  O
  O91      1.0000 0.01860  0.42122  0.57050  Biso   1.000  O
  O92      1.0000 0.08385  0.98221  0.93010  Biso   1.000  O
  O93      1.0000 0.85090  0.76610  0.77480  Biso   1.000  O
  O94      1.0000 0.88020  0.64900  0.72600  Biso   1.000  O
  O95      1.0000 0.84620  0.11760  0.77640  Biso   1.000  O
  O96      1.0000 0.61790  0.29290  0.27490  Biso   1.000  O
