data_image0
_cell_length_a       11.34
_cell_length_b       19.22
_cell_length_c       13.798
_cell_angle_alpha    110.82
_cell_angle_beta     90
_cell_angle_gamma    90

_symmetry_space_group_name_H-M    P 1
_symmetry_int_tables_number       1

loop_
  _symmetry_equiv_pos_as_xyz
  'x, y, z'

loop_
  _atom_site_label
  _atom_site_occupancy
  _atom_site_fract_x
  _atom_site_fract_y
  _atom_site_fract_z
  _atom_site_thermal_displace_type
  _atom_site_B_iso_or_equiv
  _atom_site_type_symbol
  Fe1      1.0000 0.99919  0.99866  0.99798  Biso   1.000  Fe
  Fe2      1.0000 0.49234  0.50051  0.00130  Biso   1.000  Fe
  Fe3      1.0000 0.00137  0.00013  0.74866  Biso   1.000  Fe
  Fe4      1.0000 0.49552  0.50090  0.75033  Biso   1.000  Fe
  Fe5      1.0000 0.99681  0.00092  0.49920  Biso   1.000  Fe
  Fe6      1.0000 0.50868  0.49984  0.50229  Biso   1.000  Fe
  Fe7      1.0000 0.99929  0.99988  0.24849  Biso   1.000  Fe
  Fe8      1.0000 0.50159  0.50000  0.25138  Biso   1.000  Fe
  H1       1.0000 0.67080  0.70097  0.82273  Biso   1.000  H
  H2       1.0000 0.76898  0.82473  0.88394  Biso   1.000  H
  H3       1.0000 0.32761  0.49156  0.87120  Biso   1.000  H
  H4       1.0000 0.22359  0.17784  0.81162  Biso   1.000  H
  H5       1.0000 0.31924  0.30259  0.87573  Biso   1.000  H
  H6       1.0000 0.69506  0.31286  0.93652  Biso   1.000  H
  H7       1.0000 0.80122  0.19127  0.87455  Biso   1.000  H
  H8       1.0000 0.17689  0.79805  0.92508  Biso   1.000  H
  H9       1.0000 0.27532  0.67438  0.86253  Biso   1.000  H
  H10      1.0000 0.84113  0.98646  0.87359  Biso   1.000  H
  H11      1.0000 0.32725  0.29740  0.67615  Biso   1.000  H
  H12      1.0000 0.22690  0.17408  0.61375  Biso   1.000  H
  H13      1.0000 0.66296  0.53102  0.64792  Biso   1.000  H
  H14      1.0000 0.81925  0.81001  0.67713  Biso   1.000  H
  H15      1.0000 0.72103  0.68611  0.61468  Biso   1.000  H
  H16      1.0000 0.27775  0.67670  0.55679  Biso   1.000  H
  H17      1.0000 0.17948  0.80084  0.61922  Biso   1.000  H
  H18      1.0000 0.80550  0.19570  0.56955  Biso   1.000  H
  H19      1.0000 0.70024  0.31767  0.63157  Biso   1.000  H
  H20      1.0000 0.61757  0.72095  0.33970  Biso   1.000  H
  H21      1.0000 0.71872  0.84385  0.40107  Biso   1.000  H
  H22      1.0000 0.34201  0.47838  0.36849  Biso   1.000  H
  H23      1.0000 0.22410  0.17733  0.30808  Biso   1.000  H
  H24      1.0000 0.32578  0.30027  0.37022  Biso   1.000  H
  H25      1.0000 0.73325  0.32599  0.43929  Biso   1.000  H
  H26      1.0000 0.82849  0.20097  0.37616  Biso   1.000  H
  H27      1.0000 0.17969  0.80270  0.43229  Biso   1.000  H
  H28      1.0000 0.27890  0.67875  0.37162  Biso   1.000  H
  H29      1.0000 0.83915  0.96729  0.35583  Biso   1.000  H
  H30      1.0000 0.32450  0.29716  0.18030  Biso   1.000  H
  H31      1.0000 0.22734  0.17285  0.11644  Biso   1.000  H
  H32      1.0000 0.65856  0.52499  0.13369  Biso   1.000  H
  H33      1.0000 0.77768  0.82184  0.18992  Biso   1.000  H
  H34      1.0000 0.67832  0.69832  0.12886  Biso   1.000  H
  H35      1.0000 0.29125  0.68213  0.06624  Biso   1.000  H
  H36      1.0000 0.19244  0.80614  0.12693  Biso   1.000  H
  H37      1.0000 0.83383  0.20488  0.07087  Biso   1.000  H
  H38      1.0000 0.73847  0.32976  0.13399  Biso   1.000  H
  H39      1.0000 0.16783  0.02845  0.64348  Biso   1.000  H
  H40      1.0000 0.16098  0.02498  0.13573  Biso   1.000  H
  C1       1.0000 0.66930  0.69252  0.97214  Biso   1.000  C
  C2       1.0000 0.69327  0.72838  0.90276  Biso   1.000  C
  C3       1.0000 0.74787  0.79697  0.93672  Biso   1.000  C
  C4       1.0000 0.61246  0.61841  0.93470  Biso   1.000  C
  C5       1.0000 0.22007  0.16838  0.96024  Biso   1.000  C
  C6       1.0000 0.24638  0.20461  0.89172  Biso   1.000  C
  C7       1.0000 0.29903  0.27369  0.92731  Biso   1.000  C
  C8       1.0000 0.15665  0.09664  0.92248  Biso   1.000  C
  C9       1.0000 0.69358  0.32233  0.78790  Biso   1.000  C
  C10      1.0000 0.71996  0.28650  0.85687  Biso   1.000  C
  C11      1.0000 0.77831  0.21932  0.82256  Biso   1.000  C
  C12      1.0000 0.63471  0.39550  0.82620  Biso   1.000  C
  C13      1.0000 0.17281  0.80634  0.77579  Biso   1.000  C
  C14      1.0000 0.19866  0.77056  0.84490  Biso   1.000  C
  C15      1.0000 0.25252  0.70200  0.81028  Biso   1.000  C
  C16      1.0000 0.11554  0.88021  0.81372  Biso   1.000  C
  C17      1.0000 0.33110  0.30599  0.52697  Biso   1.000  C
  C18      1.0000 0.30466  0.27028  0.59607  Biso   1.000  C
  C19      1.0000 0.24943  0.20200  0.56150  Biso   1.000  C
  C20      1.0000 0.38859  0.37979  0.56511  Biso   1.000  C
  C21      1.0000 0.77472  0.83352  0.54248  Biso   1.000  C
  C22      1.0000 0.77369  0.79019  0.60442  Biso   1.000  C
  C23      1.0000 0.71847  0.72191  0.57030  Biso   1.000  C
  C24      1.0000 0.84245  0.90351  0.57637  Biso   1.000  C
  C25      1.0000 0.28084  0.66842  0.70607  Biso   1.000  C
  C26      1.0000 0.25448  0.70385  0.63668  Biso   1.000  C
  C27      1.0000 0.20055  0.77256  0.67135  Biso   1.000  C
  C28      1.0000 0.34301  0.59628  0.66980  Biso   1.000  C
  C29      1.0000 0.80943  0.18717  0.71864  Biso   1.000  C
  C30      1.0000 0.78107  0.22224  0.64929  Biso   1.000  C
  C31      1.0000 0.72306  0.28961  0.68361  Biso   1.000  C
  C32      1.0000 0.87562  0.11643  0.68244  Biso   1.000  C
  C33      1.0000 0.66329  0.69689  0.47402  Biso   1.000  C
  C34      1.0000 0.66127  0.74115  0.41334  Biso   1.000  C
  C35      1.0000 0.71715  0.80928  0.44730  Biso   1.000  C
  C36      1.0000 0.61049  0.62193  0.43503  Biso   1.000  C
  C37      1.0000 0.22003  0.16889  0.45725  Biso   1.000  C
  C38      1.0000 0.24771  0.20417  0.38796  Biso   1.000  C
  C39      1.0000 0.30344  0.27231  0.42248  Biso   1.000  C
  C40      1.0000 0.15455  0.09790  0.42100  Biso   1.000  C
  C41      1.0000 0.73078  0.33493  0.29044  Biso   1.000  C
  C42      1.0000 0.75671  0.29898  0.35938  Biso   1.000  C
  C43      1.0000 0.80884  0.22972  0.32429  Biso   1.000  C
  C44      1.0000 0.66627  0.40636  0.32788  Biso   1.000  C
  C45      1.0000 0.18027  0.81098  0.28291  Biso   1.000  C
  C46      1.0000 0.20449  0.77559  0.35278  Biso   1.000  C
  C47      1.0000 0.25874  0.70690  0.31913  Biso   1.000  C
  C48      1.0000 0.11781  0.88310  0.31803  Biso   1.000  C
  C49      1.0000 0.32650  0.30707  0.03191  Biso   1.000  C
  C50      1.0000 0.30210  0.27031  0.10013  Biso   1.000  C
  C51      1.0000 0.24881  0.20136  0.06466  Biso   1.000  C
  C52      1.0000 0.38127  0.38168  0.07037  Biso   1.000  C
  C53      1.0000 0.77850  0.83045  0.04062  Biso   1.000  C
  C54      1.0000 0.75307  0.79499  0.11026  Biso   1.000  C
  C55      1.0000 0.69852  0.72641  0.07628  Biso   1.000  C
  C56      1.0000 0.84283  0.90196  0.07648  Biso   1.000  C
  C57      1.0000 0.28846  0.67315  0.21513  Biso   1.000  C
  C58      1.0000 0.26597  0.70913  0.14563  Biso   1.000  C
  C59      1.0000 0.21186  0.77773  0.17927  Biso   1.000  C
  C60      1.0000 0.34571  0.59945  0.17712  Biso   1.000  C
  C61      1.0000 0.83560  0.19563  0.21969  Biso   1.000  C
  C62      1.0000 0.81210  0.23222  0.15109  Biso   1.000  C
  C63      1.0000 0.75984  0.30155  0.18617  Biso   1.000  C
  C64      1.0000 0.88771  0.12018  0.18148  Biso   1.000  C
  O1       1.0000 0.58629  0.59181  0.83984  Biso   1.000  O
  O2       1.0000 0.59548  0.59058  0.50017  Biso   1.000  O
  O3       1.0000 0.12977  0.07117  0.82762  Biso   1.000  O
  O4       1.0000 0.12688  0.07055  0.48843  Biso   1.000  O
  O5       1.0000 0.60865  0.42117  0.92092  Biso   1.000  O
  O6       1.0000 0.61997  0.42795  0.76216  Biso   1.000  O
  O7       1.0000 0.09002  0.90684  0.90870  Biso   1.000  O
  O8       1.0000 0.09711  0.91057  0.74785  Biso   1.000  O
  O9       1.0000 0.40266  0.40961  0.66172  Biso   1.000  O
  O10      1.0000 0.39111  0.41459  0.00652  Biso   1.000  O
  O11      1.0000 0.87399  0.92890  0.66998  Biso   1.000  O
  O12      1.0000 0.86744  0.93059  0.00969  Biso   1.000  O
  O13      1.0000 0.37316  0.56983  0.57607  Biso   1.000  O
  O14      1.0000 0.36072  0.56609  0.73641  Biso   1.000  O
  O15      1.0000 0.90213  0.09062  0.58763  Biso   1.000  O
  O16      1.0000 0.90131  0.08853  0.74953  Biso   1.000  O
  O17      1.0000 0.58506  0.50880  0.63297  Biso   1.000  O
  O18      1.0000 0.92460  0.99379  0.87388  Biso   1.000  O
  O19      1.0000 0.41148  0.49558  0.87305  Biso   1.000  O
  O20      1.0000 0.58617  0.59509  0.33973  Biso   1.000  O
  O21      1.0000 0.13004  0.07065  0.32580  Biso   1.000  O
  O22      1.0000 0.64017  0.43186  0.42273  Biso   1.000  O
  O23      1.0000 0.64103  0.43599  0.26226  Biso   1.000  O
  O24      1.0000 0.09089  0.91018  0.41259  Biso   1.000  O
  O25      1.0000 0.09591  0.91123  0.25027  Biso   1.000  O
  O26      1.0000 0.41320  0.40667  0.16402  Biso   1.000  O
  O27      1.0000 0.41861  0.40700  0.49817  Biso   1.000  O
  O28      1.0000 0.86924  0.92890  0.17134  Biso   1.000  O
  O29      1.0000 0.86541  0.93187  0.50895  Biso   1.000  O
  O30      1.0000 0.36891  0.57325  0.08156  Biso   1.000  O
  O31      1.0000 0.36629  0.56818  0.24157  Biso   1.000  O
  O32      1.0000 0.90877  0.09170  0.08573  Biso   1.000  O
  O33      1.0000 0.90561  0.09002  0.24769  Biso   1.000  O
  O34      1.0000 0.57881  0.50820  0.12855  Biso   1.000  O
  O35      1.0000 0.91660  0.98723  0.36689  Biso   1.000  O
  O36      1.0000 0.42403  0.49004  0.37256  Biso   1.000  O
  O37      1.0000 0.59507  0.58747  0.00013  Biso   1.000  O
  O38      1.0000 0.13311  0.06653  0.98778  Biso   1.000  O
  O39      1.0000 0.08821  0.00844  0.63046  Biso   1.000  O
  O40      1.0000 0.08147  0.00783  0.12820  Biso   1.000  O
