data_image0
_cell_length_a       18.035
_cell_length_b       10.513
_cell_length_c       14.293
_cell_angle_alpha    90
_cell_angle_beta     90
_cell_angle_gamma    90

_symmetry_space_group_name_H-M    "P 1"
_symmetry_int_tables_number       1

loop_
  _symmetry_equiv_pos_as_xyz
  'x, y, z'

loop_
  _atom_site_label
  _atom_site_occupancy
  _atom_site_fract_x
  _atom_site_fract_y
  _atom_site_fract_z
  _atom_site_thermal_displace_type
  _atom_site_B_iso_or_equiv
  _atom_site_type_symbol
  Ga1      1.0000 0.70280  0.80790  0.64850  Biso   1.000  Ga
  Ga2      1.0000 0.81500  0.62450  0.87470  Biso   1.000  Ga
  Ga3      1.0000 0.89070  0.85360  0.55750  Biso   1.000  Ga
  P1       1.0000 0.57510  0.64240  0.54440  Biso   1.000  P
  P2       1.0000 0.70420  0.83950  0.87470  Biso   1.000  P
  P3       1.0000 0.83070  0.61340  0.65980  Biso   1.000  P
  O1       1.0000 0.75040  0.64240  0.63600  Biso   1.000  O
  O2       1.0000 0.84750  0.66240  0.75790  Biso   1.000  O
  O3       1.0000 0.79150  0.88810  0.61060  Biso   1.000  O
  O4       1.0000 0.63280  0.83920  0.93000  Biso   1.000  O
  O5       1.0000 0.60260  0.61930  0.44470  Biso   1.000  O
  O6       1.0000 0.61830  0.75130  0.58840  Biso   1.000  O
  O7       1.0000 0.88440  0.68540  0.59470  Biso   1.000  O
  O8       1.0000 0.76140  0.75620  0.92390  Biso   1.000  O
  O9       1.0000 0.68840  0.78620  0.77820  Biso   1.000  O
  O10      1.0000 0.73610  0.97430  0.87160  Biso   1.000  O
  O11      1.0000 0.58590  0.51860  0.59910  Biso   1.000  O
  O12      1.0000 0.49430  0.68130  0.53790  Biso   1.000  O
  O13      1.0000 0.84440  0.47190  0.65110  Biso   1.000  O
  Ga4      1.0000 0.70280  0.30790  0.14850  Biso   1.000  Ga
  Ga5      1.0000 0.81500  0.12450  0.37470  Biso   1.000  Ga
  Ga6      1.0000 0.89070  0.35360  0.05750  Biso   1.000  Ga
  P4       1.0000 0.57510  0.14240  0.04440  Biso   1.000  P
  P5       1.0000 0.70420  0.33950  0.37470  Biso   1.000  P
  P6       1.0000 0.83070  0.11340  0.15980  Biso   1.000  P
  O14      1.0000 0.75040  0.14240  0.13600  Biso   1.000  O
  O15      1.0000 0.84750  0.16240  0.25790  Biso   1.000  O
  O16      1.0000 0.79150  0.38810  0.11060  Biso   1.000  O
  O17      1.0000 0.63280  0.33920  0.43000  Biso   1.000  O
  O18      1.0000 0.60260  0.11930  0.94470  Biso   1.000  O
  O19      1.0000 0.61830  0.25130  0.08840  Biso   1.000  O
  O20      1.0000 0.88440  0.18540  0.09470  Biso   1.000  O
  O21      1.0000 0.76140  0.25620  0.42390  Biso   1.000  O
  O22      1.0000 0.68840  0.28620  0.27820  Biso   1.000  O
  O23      1.0000 0.73610  0.47430  0.37160  Biso   1.000  O
  O24      1.0000 0.58590  0.01860  0.09910  Biso   1.000  O
  O25      1.0000 0.49430  0.18130  0.03790  Biso   1.000  O
  O26      1.0000 0.84440  0.97190  0.15110  Biso   1.000  O
  Ga7      1.0000 0.29720  0.19210  0.64850  Biso   1.000  Ga
  Ga8      1.0000 0.18500  0.37550  0.87470  Biso   1.000  Ga
  Ga9      1.0000 0.10930  0.14640  0.55750  Biso   1.000  Ga
  P7       1.0000 0.42490  0.35760  0.54440  Biso   1.000  P
  P8       1.0000 0.29580  0.16050  0.87470  Biso   1.000  P
  P9       1.0000 0.16930  0.38660  0.65980  Biso   1.000  P
  O27      1.0000 0.24960  0.35760  0.63600  Biso   1.000  O
  O28      1.0000 0.15250  0.33760  0.75790  Biso   1.000  O
  O29      1.0000 0.20850  0.11190  0.61060  Biso   1.000  O
  O30      1.0000 0.36720  0.16080  0.93000  Biso   1.000  O
  O31      1.0000 0.39740  0.38070  0.44470  Biso   1.000  O
  O32      1.0000 0.38170  0.24870  0.58840  Biso   1.000  O
  O33      1.0000 0.11560  0.31460  0.59470  Biso   1.000  O
  O34      1.0000 0.23860  0.24380  0.92390  Biso   1.000  O
  O35      1.0000 0.31160  0.21380  0.77820  Biso   1.000  O
  O36      1.0000 0.26390  0.02570  0.87160  Biso   1.000  O
  O37      1.0000 0.41410  0.48140  0.59910  Biso   1.000  O
  O38      1.0000 0.50570  0.31870  0.53790  Biso   1.000  O
  O39      1.0000 0.15560  0.52810  0.65110  Biso   1.000  O
  Ga10     1.0000 0.29720  0.69210  0.14850  Biso   1.000  Ga
  Ga11     1.0000 0.18500  0.87550  0.37470  Biso   1.000  Ga
  Ga12     1.0000 0.10930  0.64640  0.05750  Biso   1.000  Ga
  P10      1.0000 0.42490  0.85760  0.04440  Biso   1.000  P
  P11      1.0000 0.29580  0.66050  0.37470  Biso   1.000  P
  P12      1.0000 0.16930  0.88660  0.15980  Biso   1.000  P
  O40      1.0000 0.24960  0.85760  0.13600  Biso   1.000  O
  O41      1.0000 0.15250  0.83760  0.25790  Biso   1.000  O
  O42      1.0000 0.20850  0.61190  0.11060  Biso   1.000  O
  O43      1.0000 0.36720  0.66080  0.43000  Biso   1.000  O
  O44      1.0000 0.39740  0.88070  0.94470  Biso   1.000  O
  O45      1.0000 0.38170  0.74870  0.08840  Biso   1.000  O
  O46      1.0000 0.11560  0.81460  0.09470  Biso   1.000  O
  O47      1.0000 0.23860  0.74380  0.42390  Biso   1.000  O
  O48      1.0000 0.31160  0.71380  0.27820  Biso   1.000  O
  O49      1.0000 0.26390  0.52570  0.37160  Biso   1.000  O
  O50      1.0000 0.41410  0.98140  0.09910  Biso   1.000  O
  O51      1.0000 0.50570  0.81870  0.03790  Biso   1.000  O
  O52      1.0000 0.15560  0.02810  0.15110  Biso   1.000  O
  Ga13     1.0000 0.20280  0.69210  0.64850  Biso   1.000  Ga
  Ga14     1.0000 0.31500  0.87550  0.87470  Biso   1.000  Ga
  Ga15     1.0000 0.39070  0.64640  0.55750  Biso   1.000  Ga
  P13      1.0000 0.07510  0.85760  0.54440  Biso   1.000  P
  P14      1.0000 0.20420  0.66050  0.87470  Biso   1.000  P
  P15      1.0000 0.33070  0.88660  0.65980  Biso   1.000  P
  O53      1.0000 0.25040  0.85760  0.63600  Biso   1.000  O
  O54      1.0000 0.34750  0.83760  0.75790  Biso   1.000  O
  O55      1.0000 0.29150  0.61190  0.61060  Biso   1.000  O
  O56      1.0000 0.13280  0.66080  0.93000  Biso   1.000  O
  O57      1.0000 0.10260  0.88070  0.44470  Biso   1.000  O
  O58      1.0000 0.11830  0.74870  0.58840  Biso   1.000  O
  O59      1.0000 0.38440  0.81460  0.59470  Biso   1.000  O
  O60      1.0000 0.26140  0.74380  0.92390  Biso   1.000  O
  O61      1.0000 0.18840  0.71380  0.77820  Biso   1.000  O
  O62      1.0000 0.23610  0.52570  0.87160  Biso   1.000  O
  O63      1.0000 0.08590  0.98140  0.59910  Biso   1.000  O
  O64      1.0000 0.99430  0.81870  0.53790  Biso   1.000  O
  O65      1.0000 0.34440  0.02810  0.65110  Biso   1.000  O
  Ga16     1.0000 0.20280  0.19210  0.14850  Biso   1.000  Ga
  Ga17     1.0000 0.31500  0.37550  0.37470  Biso   1.000  Ga
  Ga18     1.0000 0.39070  0.14640  0.05750  Biso   1.000  Ga
  P16      1.0000 0.07510  0.35760  0.04440  Biso   1.000  P
  P17      1.0000 0.20420  0.16050  0.37470  Biso   1.000  P
  P18      1.0000 0.33070  0.38660  0.15980  Biso   1.000  P
  O66      1.0000 0.25040  0.35760  0.13600  Biso   1.000  O
  O67      1.0000 0.34750  0.33760  0.25790  Biso   1.000  O
  O68      1.0000 0.29150  0.11190  0.11060  Biso   1.000  O
  O69      1.0000 0.13280  0.16080  0.43000  Biso   1.000  O
  O70      1.0000 0.10260  0.38070  0.94470  Biso   1.000  O
  O71      1.0000 0.11830  0.24870  0.08840  Biso   1.000  O
  O72      1.0000 0.38440  0.31460  0.09470  Biso   1.000  O
  O73      1.0000 0.26140  0.24380  0.42390  Biso   1.000  O
  O74      1.0000 0.18840  0.21380  0.27820  Biso   1.000  O
  O75      1.0000 0.23610  0.02570  0.37160  Biso   1.000  O
  O76      1.0000 0.08590  0.48140  0.09910  Biso   1.000  O
  O77      1.0000 0.99430  0.31870  0.03790  Biso   1.000  O
  O78      1.0000 0.34440  0.52810  0.15110  Biso   1.000  O
  Ga19     1.0000 0.79720  0.30790  0.64850  Biso   1.000  Ga
  Ga20     1.0000 0.68500  0.12450  0.87470  Biso   1.000  Ga
  Ga21     1.0000 0.60930  0.35360  0.55750  Biso   1.000  Ga
  P19      1.0000 0.92490  0.14240  0.54440  Biso   1.000  P
  P20      1.0000 0.79580  0.33950  0.87470  Biso   1.000  P
  P21      1.0000 0.66930  0.11340  0.65980  Biso   1.000  P
  O79      1.0000 0.74960  0.14240  0.63600  Biso   1.000  O
  O80      1.0000 0.65250  0.16240  0.75790  Biso   1.000  O
  O81      1.0000 0.70850  0.38810  0.61060  Biso   1.000  O
  O82      1.0000 0.86720  0.33920  0.93000  Biso   1.000  O
  O83      1.0000 0.89740  0.11930  0.44470  Biso   1.000  O
  O84      1.0000 0.88170  0.25130  0.58840  Biso   1.000  O
  O85      1.0000 0.61560  0.18540  0.59470  Biso   1.000  O
  O86      1.0000 0.73860  0.25620  0.92390  Biso   1.000  O
  O87      1.0000 0.81160  0.28620  0.77820  Biso   1.000  O
  O88      1.0000 0.76390  0.47430  0.87160  Biso   1.000  O
  O89      1.0000 0.91410  0.01860  0.59910  Biso   1.000  O
  O90      1.0000 0.00570  0.18130  0.53790  Biso   1.000  O
  O91      1.0000 0.65560  0.97190  0.65110  Biso   1.000  O
  Ga22     1.0000 0.79720  0.80790  0.14850  Biso   1.000  Ga
  Ga23     1.0000 0.68500  0.62450  0.37470  Biso   1.000  Ga
  Ga24     1.0000 0.60930  0.85360  0.05750  Biso   1.000  Ga
  P22      1.0000 0.92490  0.64240  0.04440  Biso   1.000  P
  P23      1.0000 0.79580  0.83950  0.37470  Biso   1.000  P
  P24      1.0000 0.66930  0.61340  0.15980  Biso   1.000  P
  O92      1.0000 0.74960  0.64240  0.13600  Biso   1.000  O
  O93      1.0000 0.65250  0.66240  0.25790  Biso   1.000  O
  O94      1.0000 0.70850  0.88810  0.11060  Biso   1.000  O
  O95      1.0000 0.86720  0.83920  0.43000  Biso   1.000  O
  O96      1.0000 0.89740  0.61930  0.94470  Biso   1.000  O
  O97      1.0000 0.88170  0.75130  0.08840  Biso   1.000  O
  O98      1.0000 0.61560  0.68540  0.09470  Biso   1.000  O
  O99      1.0000 0.73860  0.75620  0.42390  Biso   1.000  O
  O100     1.0000 0.81160  0.78620  0.27820  Biso   1.000  O
  O101     1.0000 0.76390  0.97430  0.37160  Biso   1.000  O
  O102     1.0000 0.91410  0.51860  0.09910  Biso   1.000  O
  O103     1.0000 0.00570  0.68130  0.03790  Biso   1.000  O
  O104     1.0000 0.65560  0.47190  0.15110  Biso   1.000  O
