data_image0
_cell_length_a       13.056
_cell_length_b       13.056
_cell_length_c       9.485
_cell_angle_alpha    90
_cell_angle_beta     90
_cell_angle_gamma    120

_symmetry_space_group_name_H-M    "P 1"
_symmetry_int_tables_number       1

loop_
  _symmetry_equiv_pos_as_xyz
  'x, y, z'

loop_
  _atom_site_label
  _atom_site_occupancy
  _atom_site_fract_x
  _atom_site_fract_y
  _atom_site_fract_z
  _atom_site_thermal_displace_type
  _atom_site_B_iso_or_equiv
  _atom_site_type_symbol
  H1       1.0000 0.87320  0.42740  0.17640  Biso   1.000  H
  P1       1.0000 0.55655  0.88758  0.08991  Biso   1.000  P
  O1       1.0000 0.61770  0.99210  0.99220  Biso   1.000  O
  O2       1.0000 0.58530  0.79330  0.04030  Biso   1.000  O
  O3       1.0000 0.42080  0.83120  0.08310  Biso   1.000  O
  O4       1.0000 0.59910  0.92680  0.23920  Biso   1.000  O
  Be1      1.0000 0.66340  0.10830  0.90070  Biso   1.000  Be
  H2       1.0000 0.57260  0.44580  0.17640  Biso   1.000  H
  P2       1.0000 0.11242  0.66897  0.08991  Biso   1.000  P
  O5       1.0000 0.00790  0.62560  0.99220  Biso   1.000  O
  O6       1.0000 0.20670  0.79200  0.04030  Biso   1.000  O
  O7       1.0000 0.16880  0.58960  0.08310  Biso   1.000  O
  O8       1.0000 0.07320  0.67230  0.23920  Biso   1.000  O
  Be2      1.0000 0.89170  0.55510  0.90070  Biso   1.000  Be
  H3       1.0000 0.55420  0.12680  0.17640  Biso   1.000  H
  P3       1.0000 0.33103  0.44345  0.08991  Biso   1.000  P
  O9       1.0000 0.37440  0.38230  0.99220  Biso   1.000  O
  O10      1.0000 0.20800  0.41470  0.04030  Biso   1.000  O
  O11      1.0000 0.41040  0.57920  0.08310  Biso   1.000  O
  O12      1.0000 0.32770  0.40090  0.23920  Biso   1.000  O
  Be3      1.0000 0.44490  0.33660  0.90070  Biso   1.000  Be
  H4       1.0000 0.57260  0.12680  0.32360  Biso   1.000  H
  P4       1.0000 0.11242  0.44345  0.41009  Biso   1.000  P
  O13      1.0000 0.00790  0.38230  0.50780  Biso   1.000  O
  O14      1.0000 0.20670  0.41470  0.45970  Biso   1.000  O
  O15      1.0000 0.16880  0.57920  0.41690  Biso   1.000  O
  O16      1.0000 0.07320  0.40090  0.26080  Biso   1.000  O
  Be4      1.0000 0.89170  0.33660  0.59930  Biso   1.000  Be
  H5       1.0000 0.55420  0.42740  0.32360  Biso   1.000  H
  P5       1.0000 0.33103  0.88758  0.41009  Biso   1.000  P
  O17      1.0000 0.37440  0.99210  0.50780  Biso   1.000  O
  O18      1.0000 0.20800  0.79330  0.45970  Biso   1.000  O
  O19      1.0000 0.41040  0.83120  0.41690  Biso   1.000  O
  O20      1.0000 0.32770  0.92680  0.26080  Biso   1.000  O
  Be5      1.0000 0.44490  0.10830  0.59930  Biso   1.000  Be
  H6       1.0000 0.87320  0.44580  0.32360  Biso   1.000  H
  P6       1.0000 0.55655  0.66897  0.41009  Biso   1.000  P
  O21      1.0000 0.61770  0.62560  0.50780  Biso   1.000  O
  O22      1.0000 0.58530  0.79200  0.45970  Biso   1.000  O
  O23      1.0000 0.42080  0.58960  0.41690  Biso   1.000  O
  O24      1.0000 0.59910  0.67230  0.26080  Biso   1.000  O
  Be6      1.0000 0.66340  0.55510  0.59930  Biso   1.000  Be
  H7       1.0000 0.12680  0.57260  0.82360  Biso   1.000  H
  P7       1.0000 0.44345  0.11242  0.91009  Biso   1.000  P
  O25      1.0000 0.38230  0.00790  0.00780  Biso   1.000  O
  O26      1.0000 0.41470  0.20670  0.95970  Biso   1.000  O
  O27      1.0000 0.57920  0.16880  0.91690  Biso   1.000  O
  O28      1.0000 0.40090  0.07320  0.76080  Biso   1.000  O
  Be7      1.0000 0.33660  0.89170  0.09930  Biso   1.000  Be
  H8       1.0000 0.42740  0.55420  0.82360  Biso   1.000  H
  P8       1.0000 0.88758  0.33103  0.91009  Biso   1.000  P
  O29      1.0000 0.99210  0.37440  0.00780  Biso   1.000  O
  O30      1.0000 0.79330  0.20800  0.95970  Biso   1.000  O
  O31      1.0000 0.83120  0.41040  0.91690  Biso   1.000  O
  O32      1.0000 0.92680  0.32770  0.76080  Biso   1.000  O
  Be8      1.0000 0.10830  0.44490  0.09930  Biso   1.000  Be
  H9       1.0000 0.44580  0.87320  0.82360  Biso   1.000  H
  P9       1.0000 0.66897  0.55655  0.91009  Biso   1.000  P
  O33      1.0000 0.62560  0.61770  0.00780  Biso   1.000  O
  O34      1.0000 0.79200  0.58530  0.95970  Biso   1.000  O
  O35      1.0000 0.58960  0.42080  0.91690  Biso   1.000  O
  O36      1.0000 0.67230  0.59910  0.76080  Biso   1.000  O
  Be9      1.0000 0.55510  0.66340  0.09930  Biso   1.000  Be
  H10      1.0000 0.42740  0.87320  0.67640  Biso   1.000  H
  P10      1.0000 0.88758  0.55655  0.58991  Biso   1.000  P
  O37      1.0000 0.99210  0.61770  0.49220  Biso   1.000  O
  O38      1.0000 0.79330  0.58530  0.54030  Biso   1.000  O
  O39      1.0000 0.83120  0.42080  0.58310  Biso   1.000  O
  O40      1.0000 0.92680  0.59910  0.73920  Biso   1.000  O
  Be10     1.0000 0.10830  0.66340  0.40070  Biso   1.000  Be
  H11      1.0000 0.44580  0.57260  0.67640  Biso   1.000  H
  P11      1.0000 0.66897  0.11242  0.58991  Biso   1.000  P
  O41      1.0000 0.62560  0.00790  0.49220  Biso   1.000  O
  O42      1.0000 0.79200  0.20670  0.54030  Biso   1.000  O
  O43      1.0000 0.58960  0.16880  0.58310  Biso   1.000  O
  O44      1.0000 0.67230  0.07320  0.73920  Biso   1.000  O
  Be11     1.0000 0.55510  0.89170  0.40070  Biso   1.000  Be
  H12      1.0000 0.12680  0.55420  0.67640  Biso   1.000  H
  P12      1.0000 0.44345  0.33103  0.58991  Biso   1.000  P
  O45      1.0000 0.38230  0.37440  0.49220  Biso   1.000  O
  O46      1.0000 0.41470  0.20800  0.54030  Biso   1.000  O
  O47      1.0000 0.57920  0.41040  0.58310  Biso   1.000  O
  O48      1.0000 0.40090  0.32770  0.73920  Biso   1.000  O
  Be12     1.0000 0.33660  0.44490  0.40070  Biso   1.000  Be
  Na1      1.0000 0.33333  0.66667  0.25000  Biso   1.000  Na
  Na2      1.0000 0.66667  0.33333  0.75000  Biso   1.000  Na
  Na3      1.0000 0.66667  0.33333  0.08110  Biso   1.000  Na
  Na4      1.0000 0.66667  0.33333  0.41890  Biso   1.000  Na
  Na5      1.0000 0.33333  0.66667  0.91890  Biso   1.000  Na
  Na6      1.0000 0.33333  0.66667  0.58110  Biso   1.000  Na
  O49      1.0000 0.83500  0.41750  0.25000  Biso   1.000  O
  O50      1.0000 0.58250  0.41750  0.25000  Biso   1.000  O
  O51      1.0000 0.58250  0.16500  0.25000  Biso   1.000  O
  O52      1.0000 0.16500  0.58250  0.75000  Biso   1.000  O
  O53      1.0000 0.41750  0.58250  0.75000  Biso   1.000  O
  O54      1.0000 0.41750  0.83500  0.75000  Biso   1.000  O
