data_image0
_cell_length_a       17.0544
_cell_length_b       22.1816
_cell_length_c       24.8632
_cell_angle_alpha    90
_cell_angle_beta     90
_cell_angle_gamma    90

_symmetry_space_group_name_H-M    P 1
_symmetry_int_tables_number       1

loop_
  _symmetry_equiv_pos_as_xyz
  'x, y, z'

loop_
  _atom_site_label
  _atom_site_occupancy
  _atom_site_fract_x
  _atom_site_fract_y
  _atom_site_fract_z
  _atom_site_thermal_displace_type
  _atom_site_B_iso_or_equiv
  _atom_site_type_symbol
  Zn1      1.0000 0.01031  0.66686  0.38619  Biso   1.000  Zn
  Zn2      1.0000 0.48969  0.33314  0.88619  Biso   1.000  Zn
  Zn3      1.0000 0.01031  0.83314  0.38619  Biso   1.000  Zn
  Zn4      1.0000 0.48969  0.16686  0.88619  Biso   1.000  Zn
  Ni1      1.0000 0.12560  0.75000  0.31320  Biso   1.000  Ni
  Ni2      1.0000 0.37440  0.25000  0.81320  Biso   1.000  Ni
  H1       1.0000 0.66520  0.02280  0.99200  Biso   1.000  H
  H2       1.0000 0.78690  0.00690  0.02790  Biso   1.000  H
  H3       1.0000 0.85240  0.17240  0.98220  Biso   1.000  H
  H4       1.0000 0.72930  0.18800  0.94650  Biso   1.000  H
  H5       1.0000 0.88050  0.02690  0.09440  Biso   1.000  H
  H6       1.0000 0.11420  0.04010  0.07930  Biso   1.000  H
  H7       1.0000 0.97230  0.12280  0.97370  Biso   1.000  H
  H8       1.0000 0.91920  0.01620  0.18620  Biso   1.000  H
  H9       1.0000 0.93420  0.95110  0.25690  Biso   1.000  H
  H10      1.0000 0.11820  0.87580  0.18350  Biso   1.000  H
  H11      1.0000 0.10420  0.94180  0.11340  Biso   1.000  H
  H12      1.0000 0.19720  0.11410  0.05550  Biso   1.000  H
  H13      1.0000 0.30710  0.14410  0.00990  Biso   1.000  H
  H14      1.0000 0.18580  0.14050  0.87200  Biso   1.000  H
  H15      1.0000 0.07710  0.10720  0.91760  Biso   1.000  H
  H16      1.0000 0.23300  0.66270  0.25590  Biso   1.000  H
  H17      1.0000 0.31500  0.65990  0.18280  Biso   1.000  H
  H18      1.0000 0.83480  0.97720  0.49200  Biso   1.000  H
  H19      1.0000 0.71310  0.99310  0.52790  Biso   1.000  H
  H20      1.0000 0.64760  0.82760  0.48220  Biso   1.000  H
  H21      1.0000 0.77070  0.81200  0.44650  Biso   1.000  H
  H22      1.0000 0.61950  0.97310  0.59440  Biso   1.000  H
  H23      1.0000 0.38580  0.95990  0.57930  Biso   1.000  H
  H24      1.0000 0.52770  0.87720  0.47370  Biso   1.000  H
  H25      1.0000 0.58080  0.98380  0.68620  Biso   1.000  H
  H26      1.0000 0.56580  0.04890  0.75690  Biso   1.000  H
  H27      1.0000 0.38180  0.12420  0.68350  Biso   1.000  H
  H28      1.0000 0.39580  0.05820  0.61340  Biso   1.000  H
  H29      1.0000 0.30280  0.88590  0.55550  Biso   1.000  H
  H30      1.0000 0.19290  0.85590  0.50990  Biso   1.000  H
  H31      1.0000 0.31420  0.85950  0.37200  Biso   1.000  H
  H32      1.0000 0.42290  0.89280  0.41760  Biso   1.000  H
  H33      1.0000 0.26700  0.33730  0.75590  Biso   1.000  H
  H34      1.0000 0.18500  0.34010  0.68280  Biso   1.000  H
  H35      1.0000 0.66520  0.47720  0.99200  Biso   1.000  H
  H36      1.0000 0.78690  0.49310  0.02790  Biso   1.000  H
  H37      1.0000 0.85240  0.32760  0.98220  Biso   1.000  H
  H38      1.0000 0.72930  0.31200  0.94650  Biso   1.000  H
  H39      1.0000 0.88050  0.47310  0.09440  Biso   1.000  H
  H40      1.0000 0.11420  0.45990  0.07930  Biso   1.000  H
  H41      1.0000 0.97230  0.37720  0.97370  Biso   1.000  H
  H42      1.0000 0.91920  0.48380  0.18620  Biso   1.000  H
  H43      1.0000 0.93420  0.54890  0.25690  Biso   1.000  H
  H44      1.0000 0.11820  0.62420  0.18350  Biso   1.000  H
  H45      1.0000 0.10420  0.55820  0.11340  Biso   1.000  H
  H46      1.0000 0.19720  0.38590  0.05550  Biso   1.000  H
  H47      1.0000 0.30710  0.35590  0.00990  Biso   1.000  H
  H48      1.0000 0.18580  0.35950  0.87200  Biso   1.000  H
  H49      1.0000 0.07710  0.39280  0.91760  Biso   1.000  H
  H50      1.0000 0.23300  0.83730  0.25590  Biso   1.000  H
  H51      1.0000 0.31500  0.84010  0.18280  Biso   1.000  H
  H52      1.0000 0.83480  0.52280  0.49200  Biso   1.000  H
  H53      1.0000 0.71310  0.50690  0.52790  Biso   1.000  H
  H54      1.0000 0.64760  0.67240  0.48220  Biso   1.000  H
  H55      1.0000 0.77070  0.68800  0.44650  Biso   1.000  H
  H56      1.0000 0.61950  0.52690  0.59440  Biso   1.000  H
  H57      1.0000 0.38580  0.54010  0.57930  Biso   1.000  H
  H58      1.0000 0.52770  0.62280  0.47370  Biso   1.000  H
  H59      1.0000 0.58080  0.51620  0.68620  Biso   1.000  H
  H60      1.0000 0.56580  0.45110  0.75690  Biso   1.000  H
  H61      1.0000 0.38180  0.37580  0.68350  Biso   1.000  H
  H62      1.0000 0.39580  0.44180  0.61340  Biso   1.000  H
  H63      1.0000 0.30280  0.61410  0.55550  Biso   1.000  H
  H64      1.0000 0.19290  0.64410  0.50990  Biso   1.000  H
  H65      1.0000 0.31420  0.64050  0.37200  Biso   1.000  H
  H66      1.0000 0.42290  0.60720  0.41760  Biso   1.000  H
  H67      1.0000 0.26700  0.16270  0.75590  Biso   1.000  H
  H68      1.0000 0.18500  0.15990  0.68280  Biso   1.000  H
  H69      1.0000 0.35600  0.75000  0.14500  Biso   1.000  H
  H70      1.0000 0.14400  0.25000  0.64500  Biso   1.000  H
  C1       1.0000 0.60480  0.11670  0.94040  Biso   1.000  C
  C2       1.0000 0.68407  0.10633  0.96539  Biso   1.000  C
  C3       1.0000 0.70270  0.05310  0.98990  Biso   1.000  C
  C4       1.0000 0.77570  0.04352  0.01140  Biso   1.000  C
  C5       1.0000 0.83351  0.08803  0.00894  Biso   1.000  C
  C6       1.0000 0.81490  0.14205  0.98433  Biso   1.000  C
  C7       1.0000 0.74110  0.15137  0.96280  Biso   1.000  C
  C8       1.0000 0.91369  0.07598  0.03047  Biso   1.000  C
  C9       1.0000 0.92422  0.04101  0.07592  Biso   1.000  C
  C10      1.0000 0.99895  0.02638  0.09480  Biso   1.000  C
  C11      1.0000 0.06401  0.04918  0.06709  Biso   1.000  C
  C12      1.0000 0.05515  0.08529  0.02154  Biso   1.000  C
  C13      1.0000 0.97911  0.09849  0.00384  Biso   1.000  C
  C14      1.0000 0.00972  0.98658  0.14171  Biso   1.000  C
  C15      1.0000 0.95970  0.98810  0.18548  Biso   1.000  C
  C16      1.0000 0.96870  0.94910  0.22795  Biso   1.000  C
  C17      1.0000 0.02840  0.90677  0.22825  Biso   1.000  C
  C18      1.0000 0.07830  0.90438  0.18440  Biso   1.000  C
  C19      1.0000 0.06950  0.94376  0.14219  Biso   1.000  C
  C20      1.0000 0.03835  0.86374  0.27445  Biso   1.000  C
  C21      1.0000 0.12502  0.10749  0.99223  Biso   1.000  C
  C22      1.0000 0.19480  0.11890  0.01840  Biso   1.000  C
  C23      1.0000 0.26080  0.13720  0.99118  Biso   1.000  C
  C24      1.0000 0.25857  0.14562  0.93567  Biso   1.000  C
  C25      1.0000 0.18860  0.13463  0.90899  Biso   1.000  C
  C26      1.0000 0.12305  0.11522  0.93640  Biso   1.000  C
  C27      1.0000 0.32920  0.16514  0.90594  Biso   1.000  C
  C28      1.0000 0.24880  0.69890  0.24034  Biso   1.000  C
  C29      1.0000 0.29850  0.69670  0.19683  Biso   1.000  C
  C30      1.0000 0.89520  0.88330  0.44040  Biso   1.000  C
  C31      1.0000 0.81593  0.89367  0.46539  Biso   1.000  C
  C32      1.0000 0.79730  0.94690  0.48990  Biso   1.000  C
  C33      1.0000 0.72430  0.95648  0.51140  Biso   1.000  C
  C34      1.0000 0.66649  0.91197  0.50894  Biso   1.000  C
  C35      1.0000 0.68510  0.85795  0.48433  Biso   1.000  C
  C36      1.0000 0.75890  0.84863  0.46280  Biso   1.000  C
  C37      1.0000 0.58631  0.92402  0.53047  Biso   1.000  C
  C38      1.0000 0.57578  0.95899  0.57592  Biso   1.000  C
  C39      1.0000 0.50105  0.97362  0.59480  Biso   1.000  C
  C40      1.0000 0.43599  0.95082  0.56709  Biso   1.000  C
  C41      1.0000 0.44485  0.91471  0.52154  Biso   1.000  C
  C42      1.0000 0.52089  0.90151  0.50384  Biso   1.000  C
  C43      1.0000 0.49028  0.01342  0.64171  Biso   1.000  C
  C44      1.0000 0.54030  0.01190  0.68548  Biso   1.000  C
  C45      1.0000 0.53130  0.05090  0.72795  Biso   1.000  C
  C46      1.0000 0.47160  0.09323  0.72825  Biso   1.000  C
  C47      1.0000 0.42170  0.09562  0.68440  Biso   1.000  C
  C48      1.0000 0.43050  0.05624  0.64219  Biso   1.000  C
  C49      1.0000 0.46165  0.13626  0.77445  Biso   1.000  C
  C50      1.0000 0.37498  0.89251  0.49223  Biso   1.000  C
  C51      1.0000 0.30520  0.88110  0.51840  Biso   1.000  C
  C52      1.0000 0.23920  0.86280  0.49118  Biso   1.000  C
  C53      1.0000 0.24143  0.85438  0.43567  Biso   1.000  C
  C54      1.0000 0.31140  0.86537  0.40899  Biso   1.000  C
  C55      1.0000 0.37695  0.88478  0.43640  Biso   1.000  C
  C56      1.0000 0.17080  0.83486  0.40594  Biso   1.000  C
  C57      1.0000 0.25120  0.30110  0.74034  Biso   1.000  C
  C58      1.0000 0.20150  0.30330  0.69683  Biso   1.000  C
  C59      1.0000 0.60480  0.38330  0.94040  Biso   1.000  C
  C60      1.0000 0.68407  0.39367  0.96539  Biso   1.000  C
  C61      1.0000 0.70270  0.44690  0.98990  Biso   1.000  C
  C62      1.0000 0.77570  0.45648  0.01140  Biso   1.000  C
  C63      1.0000 0.83351  0.41197  0.00894  Biso   1.000  C
  C64      1.0000 0.81490  0.35795  0.98433  Biso   1.000  C
  C65      1.0000 0.74110  0.34863  0.96280  Biso   1.000  C
  C66      1.0000 0.91369  0.42402  0.03047  Biso   1.000  C
  C67      1.0000 0.92422  0.45899  0.07592  Biso   1.000  C
  C68      1.0000 0.99895  0.47362  0.09480  Biso   1.000  C
  C69      1.0000 0.06401  0.45082  0.06709  Biso   1.000  C
  C70      1.0000 0.05515  0.41471  0.02154  Biso   1.000  C
  C71      1.0000 0.97911  0.40151  0.00384  Biso   1.000  C
  C72      1.0000 0.00972  0.51342  0.14171  Biso   1.000  C
  C73      1.0000 0.95970  0.51190  0.18548  Biso   1.000  C
  C74      1.0000 0.96870  0.55090  0.22795  Biso   1.000  C
  C75      1.0000 0.02840  0.59323  0.22825  Biso   1.000  C
  C76      1.0000 0.07830  0.59562  0.18440  Biso   1.000  C
  C77      1.0000 0.06950  0.55624  0.14219  Biso   1.000  C
  C78      1.0000 0.03835  0.63626  0.27445  Biso   1.000  C
  C79      1.0000 0.12502  0.39251  0.99223  Biso   1.000  C
  C80      1.0000 0.19480  0.38110  0.01840  Biso   1.000  C
  C81      1.0000 0.26080  0.36280  0.99118  Biso   1.000  C
  C82      1.0000 0.25857  0.35438  0.93567  Biso   1.000  C
  C83      1.0000 0.18860  0.36537  0.90899  Biso   1.000  C
  C84      1.0000 0.12305  0.38478  0.93640  Biso   1.000  C
  C85      1.0000 0.32920  0.33486  0.90594  Biso   1.000  C
  C86      1.0000 0.24880  0.80110  0.24034  Biso   1.000  C
  C87      1.0000 0.29850  0.80330  0.19683  Biso   1.000  C
  C88      1.0000 0.89520  0.61670  0.44040  Biso   1.000  C
  C89      1.0000 0.81593  0.60633  0.46539  Biso   1.000  C
  C90      1.0000 0.79730  0.55310  0.48990  Biso   1.000  C
  C91      1.0000 0.72430  0.54352  0.51140  Biso   1.000  C
  C92      1.0000 0.66649  0.58803  0.50894  Biso   1.000  C
  C93      1.0000 0.68510  0.64205  0.48433  Biso   1.000  C
  C94      1.0000 0.75890  0.65137  0.46280  Biso   1.000  C
  C95      1.0000 0.58631  0.57598  0.53047  Biso   1.000  C
  C96      1.0000 0.57578  0.54101  0.57592  Biso   1.000  C
  C97      1.0000 0.50105  0.52638  0.59480  Biso   1.000  C
  C98      1.0000 0.43599  0.54918  0.56709  Biso   1.000  C
  C99      1.0000 0.44485  0.58529  0.52154  Biso   1.000  C
  C100     1.0000 0.52089  0.59849  0.50384  Biso   1.000  C
  C101     1.0000 0.49028  0.48658  0.64171  Biso   1.000  C
  C102     1.0000 0.54030  0.48810  0.68548  Biso   1.000  C
  C103     1.0000 0.53130  0.44910  0.72795  Biso   1.000  C
  C104     1.0000 0.47160  0.40677  0.72825  Biso   1.000  C
  C105     1.0000 0.42170  0.40438  0.68440  Biso   1.000  C
  C106     1.0000 0.43050  0.44376  0.64219  Biso   1.000  C
  C107     1.0000 0.46165  0.36374  0.77445  Biso   1.000  C
  C108     1.0000 0.37498  0.60749  0.49223  Biso   1.000  C
  C109     1.0000 0.30520  0.61890  0.51840  Biso   1.000  C
  C110     1.0000 0.23920  0.63720  0.49118  Biso   1.000  C
  C111     1.0000 0.24143  0.64562  0.43567  Biso   1.000  C
  C112     1.0000 0.31140  0.63463  0.40899  Biso   1.000  C
  C113     1.0000 0.37695  0.61522  0.43640  Biso   1.000  C
  C114     1.0000 0.17080  0.66514  0.40594  Biso   1.000  C
  C115     1.0000 0.25120  0.19890  0.74034  Biso   1.000  C
  C116     1.0000 0.20150  0.19670  0.69683  Biso   1.000  C
  C117     1.0000 0.32300  0.75000  0.17480  Biso   1.000  C
  C118     1.0000 0.17700  0.25000  0.67480  Biso   1.000  C
  N1       1.0000 0.22240  0.75000  0.26119  Biso   1.000  N
  N2       1.0000 0.27760  0.25000  0.76119  Biso   1.000  N
  O1       1.0000 0.59235  0.16753  0.91963  Biso   1.000  O
  O2       1.0000 0.55510  0.07664  0.94091  Biso   1.000  O
  O3       1.0000 0.00695  0.87881  0.31867  Biso   1.000  O
  O4       1.0000 0.07684  0.81692  0.26522  Biso   1.000  O
  O5       1.0000 0.39488  0.15973  0.92889  Biso   1.000  O
  O6       1.0000 0.32004  0.18468  0.85908  Biso   1.000  O
  O7       1.0000 0.90765  0.83247  0.41963  Biso   1.000  O
  O8       1.0000 0.94490  0.92336  0.44091  Biso   1.000  O
  O9       1.0000 0.49305  0.12119  0.81867  Biso   1.000  O
  O10      1.0000 0.42316  0.18308  0.76522  Biso   1.000  O
  O11      1.0000 0.10512  0.84027  0.42889  Biso   1.000  O
  O12      1.0000 0.17996  0.81532  0.35908  Biso   1.000  O
  O13      1.0000 0.59235  0.33247  0.91963  Biso   1.000  O
  O14      1.0000 0.55510  0.42336  0.94091  Biso   1.000  O
  O15      1.0000 0.00695  0.62119  0.31867  Biso   1.000  O
  O16      1.0000 0.07684  0.68308  0.26522  Biso   1.000  O
  O17      1.0000 0.39488  0.34027  0.92889  Biso   1.000  O
  O18      1.0000 0.32004  0.31532  0.85908  Biso   1.000  O
  O19      1.0000 0.90765  0.66753  0.41963  Biso   1.000  O
  O20      1.0000 0.94490  0.57664  0.44091  Biso   1.000  O
  O21      1.0000 0.49305  0.37881  0.81867  Biso   1.000  O
  O22      1.0000 0.42316  0.31692  0.76522  Biso   1.000  O
  O23      1.0000 0.10512  0.65973  0.42889  Biso   1.000  O
  O24      1.0000 0.17996  0.68468  0.35908  Biso   1.000  O
  O25      1.0000 0.01889  0.75000  0.35522  Biso   1.000  O
  O26      1.0000 0.48111  0.25000  0.85522  Biso   1.000  O
  Zn5      1.0000 0.98969  0.16686  0.61381  Biso   1.000  Zn
  Zn6      1.0000 0.51031  0.83314  0.11381  Biso   1.000  Zn
  Zn7      1.0000 0.98969  0.33314  0.61381  Biso   1.000  Zn
  Zn8      1.0000 0.51031  0.66686  0.11381  Biso   1.000  Zn
  Ni3      1.0000 0.87440  0.25000  0.68680  Biso   1.000  Ni
  Ni4      1.0000 0.62560  0.75000  0.18680  Biso   1.000  Ni
  H71      1.0000 0.33480  0.52280  0.00800  Biso   1.000  H
  H72      1.0000 0.21310  0.50690  0.97210  Biso   1.000  H
  H73      1.0000 0.14760  0.67240  0.01780  Biso   1.000  H
  H74      1.0000 0.27070  0.68800  0.05350  Biso   1.000  H
  H75      1.0000 0.11950  0.52690  0.90560  Biso   1.000  H
  H76      1.0000 0.88580  0.54010  0.92070  Biso   1.000  H
  H77      1.0000 0.02770  0.62280  0.02630  Biso   1.000  H
  H78      1.0000 0.08080  0.51620  0.81380  Biso   1.000  H
  H79      1.0000 0.06580  0.45110  0.74310  Biso   1.000  H
  H80      1.0000 0.88180  0.37580  0.81650  Biso   1.000  H
  H81      1.0000 0.89580  0.44180  0.88660  Biso   1.000  H
  H82      1.0000 0.80280  0.61410  0.94450  Biso   1.000  H
  H83      1.0000 0.69290  0.64410  0.99010  Biso   1.000  H
  H84      1.0000 0.81420  0.64050  0.12800  Biso   1.000  H
  H85      1.0000 0.92290  0.60720  0.08240  Biso   1.000  H
  H86      1.0000 0.76700  0.16270  0.74410  Biso   1.000  H
  H87      1.0000 0.68500  0.15990  0.81720  Biso   1.000  H
  H88      1.0000 0.16520  0.47720  0.50800  Biso   1.000  H
  H89      1.0000 0.28690  0.49310  0.47210  Biso   1.000  H
  H90      1.0000 0.35240  0.32760  0.51780  Biso   1.000  H
  H91      1.0000 0.22930  0.31200  0.55350  Biso   1.000  H
  H92      1.0000 0.38050  0.47310  0.40560  Biso   1.000  H
  H93      1.0000 0.61420  0.45990  0.42070  Biso   1.000  H
  H94      1.0000 0.47230  0.37720  0.52630  Biso   1.000  H
  H95      1.0000 0.41920  0.48380  0.31380  Biso   1.000  H
  H96      1.0000 0.43420  0.54890  0.24310  Biso   1.000  H
  H97      1.0000 0.61820  0.62420  0.31650  Biso   1.000  H
  H98      1.0000 0.60420  0.55820  0.38660  Biso   1.000  H
  H99      1.0000 0.69720  0.38590  0.44450  Biso   1.000  H
  H100     1.0000 0.80710  0.35590  0.49010  Biso   1.000  H
  H101     1.0000 0.68580  0.35950  0.62800  Biso   1.000  H
  H102     1.0000 0.57710  0.39280  0.58240  Biso   1.000  H
  H103     1.0000 0.73300  0.83730  0.24410  Biso   1.000  H
  H104     1.0000 0.81500  0.84010  0.31720  Biso   1.000  H
  H105     1.0000 0.33480  0.97720  0.00800  Biso   1.000  H
  H106     1.0000 0.21310  0.99310  0.97210  Biso   1.000  H
  H107     1.0000 0.14760  0.82760  0.01780  Biso   1.000  H
  H108     1.0000 0.27070  0.81200  0.05350  Biso   1.000  H
  H109     1.0000 0.11950  0.97310  0.90560  Biso   1.000  H
  H110     1.0000 0.88580  0.95990  0.92070  Biso   1.000  H
  H111     1.0000 0.02770  0.87720  0.02630  Biso   1.000  H
  H112     1.0000 0.08080  0.98380  0.81380  Biso   1.000  H
  H113     1.0000 0.06580  0.04890  0.74310  Biso   1.000  H
  H114     1.0000 0.88180  0.12420  0.81650  Biso   1.000  H
  H115     1.0000 0.89580  0.05820  0.88660  Biso   1.000  H
  H116     1.0000 0.80280  0.88590  0.94450  Biso   1.000  H
  H117     1.0000 0.69290  0.85590  0.99010  Biso   1.000  H
  H118     1.0000 0.81420  0.85950  0.12800  Biso   1.000  H
  H119     1.0000 0.92290  0.89280  0.08240  Biso   1.000  H
  H120     1.0000 0.76700  0.33730  0.74410  Biso   1.000  H
  H121     1.0000 0.68500  0.34010  0.81720  Biso   1.000  H
  H122     1.0000 0.16520  0.02280  0.50800  Biso   1.000  H
  H123     1.0000 0.28690  0.00690  0.47210  Biso   1.000  H
  H124     1.0000 0.35240  0.17240  0.51780  Biso   1.000  H
  H125     1.0000 0.22930  0.18800  0.55350  Biso   1.000  H
  H126     1.0000 0.38050  0.02690  0.40560  Biso   1.000  H
  H127     1.0000 0.61420  0.04010  0.42070  Biso   1.000  H
  H128     1.0000 0.47230  0.12280  0.52630  Biso   1.000  H
  H129     1.0000 0.41920  0.01620  0.31380  Biso   1.000  H
  H130     1.0000 0.43420  0.95110  0.24310  Biso   1.000  H
  H131     1.0000 0.61820  0.87580  0.31650  Biso   1.000  H
  H132     1.0000 0.60420  0.94180  0.38660  Biso   1.000  H
  H133     1.0000 0.69720  0.11410  0.44450  Biso   1.000  H
  H134     1.0000 0.80710  0.14410  0.49010  Biso   1.000  H
  H135     1.0000 0.68580  0.14050  0.62800  Biso   1.000  H
  H136     1.0000 0.57710  0.10720  0.58240  Biso   1.000  H
  H137     1.0000 0.73300  0.66270  0.24410  Biso   1.000  H
  H138     1.0000 0.81500  0.65990  0.31720  Biso   1.000  H
  H139     1.0000 0.64400  0.25000  0.85500  Biso   1.000  H
  H140     1.0000 0.85600  0.75000  0.35500  Biso   1.000  H
  C119     1.0000 0.39520  0.61670  0.05960  Biso   1.000  C
  C120     1.0000 0.31593  0.60633  0.03461  Biso   1.000  C
  C121     1.0000 0.29730  0.55310  0.01010  Biso   1.000  C
  C122     1.0000 0.22430  0.54352  0.98860  Biso   1.000  C
  C123     1.0000 0.16649  0.58803  0.99106  Biso   1.000  C
  C124     1.0000 0.18510  0.64205  0.01567  Biso   1.000  C
  C125     1.0000 0.25890  0.65137  0.03720  Biso   1.000  C
  C126     1.0000 0.08631  0.57598  0.96953  Biso   1.000  C
  C127     1.0000 0.07578  0.54101  0.92408  Biso   1.000  C
  C128     1.0000 0.00105  0.52638  0.90520  Biso   1.000  C
  C129     1.0000 0.93599  0.54918  0.93291  Biso   1.000  C
  C130     1.0000 0.94485  0.58529  0.97846  Biso   1.000  C
  C131     1.0000 0.02089  0.59849  0.99616  Biso   1.000  C
  C132     1.0000 0.99028  0.48658  0.85829  Biso   1.000  C
  C133     1.0000 0.04030  0.48810  0.81452  Biso   1.000  C
  C134     1.0000 0.03130  0.44910  0.77205  Biso   1.000  C
  C135     1.0000 0.97160  0.40677  0.77175  Biso   1.000  C
  C136     1.0000 0.92170  0.40438  0.81560  Biso   1.000  C
  C137     1.0000 0.93050  0.44376  0.85781  Biso   1.000  C
  C138     1.0000 0.96165  0.36374  0.72555  Biso   1.000  C
  C139     1.0000 0.87498  0.60749  0.00777  Biso   1.000  C
  C140     1.0000 0.80520  0.61890  0.98160  Biso   1.000  C
  C141     1.0000 0.73920  0.63720  0.00882  Biso   1.000  C
  C142     1.0000 0.74143  0.64562  0.06433  Biso   1.000  C
  C143     1.0000 0.81140  0.63463  0.09101  Biso   1.000  C
  C144     1.0000 0.87695  0.61522  0.06360  Biso   1.000  C
  C145     1.0000 0.67080  0.66514  0.09406  Biso   1.000  C
  C146     1.0000 0.75120  0.19890  0.75966  Biso   1.000  C
  C147     1.0000 0.70150  0.19670  0.80317  Biso   1.000  C
  C148     1.0000 0.10480  0.38330  0.55960  Biso   1.000  C
  C149     1.0000 0.18407  0.39367  0.53461  Biso   1.000  C
  C150     1.0000 0.20270  0.44690  0.51010  Biso   1.000  C
  C151     1.0000 0.27570  0.45648  0.48860  Biso   1.000  C
  C152     1.0000 0.33351  0.41197  0.49106  Biso   1.000  C
  C153     1.0000 0.31490  0.35795  0.51567  Biso   1.000  C
  C154     1.0000 0.24110  0.34863  0.53720  Biso   1.000  C
  C155     1.0000 0.41369  0.42402  0.46953  Biso   1.000  C
  C156     1.0000 0.42422  0.45899  0.42408  Biso   1.000  C
  C157     1.0000 0.49895  0.47362  0.40520  Biso   1.000  C
  C158     1.0000 0.56401  0.45082  0.43291  Biso   1.000  C
  C159     1.0000 0.55515  0.41471  0.47846  Biso   1.000  C
  C160     1.0000 0.47911  0.40151  0.49616  Biso   1.000  C
  C161     1.0000 0.50972  0.51342  0.35829  Biso   1.000  C
  C162     1.0000 0.45970  0.51190  0.31452  Biso   1.000  C
  C163     1.0000 0.46870  0.55090  0.27205  Biso   1.000  C
  C164     1.0000 0.52840  0.59323  0.27175  Biso   1.000  C
  C165     1.0000 0.57830  0.59562  0.31560  Biso   1.000  C
  C166     1.0000 0.56950  0.55624  0.35781  Biso   1.000  C
  C167     1.0000 0.53835  0.63626  0.22555  Biso   1.000  C
  C168     1.0000 0.62502  0.39251  0.50777  Biso   1.000  C
  C169     1.0000 0.69480  0.38110  0.48160  Biso   1.000  C
  C170     1.0000 0.76080  0.36280  0.50882  Biso   1.000  C
  C171     1.0000 0.75857  0.35438  0.56433  Biso   1.000  C
  C172     1.0000 0.68860  0.36537  0.59101  Biso   1.000  C
  C173     1.0000 0.62305  0.38478  0.56360  Biso   1.000  C
  C174     1.0000 0.82920  0.33486  0.59406  Biso   1.000  C
  C175     1.0000 0.74880  0.80110  0.25966  Biso   1.000  C
  C176     1.0000 0.79850  0.80330  0.30317  Biso   1.000  C
  C177     1.0000 0.39520  0.88330  0.05960  Biso   1.000  C
  C178     1.0000 0.31593  0.89367  0.03461  Biso   1.000  C
  C179     1.0000 0.29730  0.94690  0.01010  Biso   1.000  C
  C180     1.0000 0.22430  0.95648  0.98860  Biso   1.000  C
  C181     1.0000 0.16649  0.91197  0.99106  Biso   1.000  C
  C182     1.0000 0.18510  0.85795  0.01567  Biso   1.000  C
  C183     1.0000 0.25890  0.84863  0.03720  Biso   1.000  C
  C184     1.0000 0.08631  0.92402  0.96953  Biso   1.000  C
  C185     1.0000 0.07578  0.95899  0.92408  Biso   1.000  C
  C186     1.0000 0.00105  0.97362  0.90520  Biso   1.000  C
  C187     1.0000 0.93599  0.95082  0.93291  Biso   1.000  C
  C188     1.0000 0.94485  0.91471  0.97846  Biso   1.000  C
  C189     1.0000 0.02089  0.90151  0.99616  Biso   1.000  C
  C190     1.0000 0.99028  0.01342  0.85829  Biso   1.000  C
  C191     1.0000 0.04030  0.01190  0.81452  Biso   1.000  C
  C192     1.0000 0.03130  0.05090  0.77205  Biso   1.000  C
  C193     1.0000 0.97160  0.09323  0.77175  Biso   1.000  C
  C194     1.0000 0.92170  0.09562  0.81560  Biso   1.000  C
  C195     1.0000 0.93050  0.05624  0.85781  Biso   1.000  C
  C196     1.0000 0.96165  0.13626  0.72555  Biso   1.000  C
  C197     1.0000 0.87498  0.89251  0.00777  Biso   1.000  C
  C198     1.0000 0.80520  0.88110  0.98160  Biso   1.000  C
  C199     1.0000 0.73920  0.86280  0.00882  Biso   1.000  C
  C200     1.0000 0.74143  0.85438  0.06433  Biso   1.000  C
  C201     1.0000 0.81140  0.86537  0.09101  Biso   1.000  C
  C202     1.0000 0.87695  0.88478  0.06360  Biso   1.000  C
  C203     1.0000 0.67080  0.83486  0.09406  Biso   1.000  C
  C204     1.0000 0.75120  0.30110  0.75966  Biso   1.000  C
  C205     1.0000 0.70150  0.30330  0.80317  Biso   1.000  C
  C206     1.0000 0.10480  0.11670  0.55960  Biso   1.000  C
  C207     1.0000 0.18407  0.10633  0.53461  Biso   1.000  C
  C208     1.0000 0.20270  0.05310  0.51010  Biso   1.000  C
  C209     1.0000 0.27570  0.04352  0.48860  Biso   1.000  C
  C210     1.0000 0.33351  0.08803  0.49106  Biso   1.000  C
  C211     1.0000 0.31490  0.14205  0.51567  Biso   1.000  C
  C212     1.0000 0.24110  0.15137  0.53720  Biso   1.000  C
  C213     1.0000 0.41369  0.07598  0.46953  Biso   1.000  C
  C214     1.0000 0.42422  0.04101  0.42408  Biso   1.000  C
  C215     1.0000 0.49895  0.02638  0.40520  Biso   1.000  C
  C216     1.0000 0.56401  0.04918  0.43291  Biso   1.000  C
  C217     1.0000 0.55515  0.08529  0.47846  Biso   1.000  C
  C218     1.0000 0.47911  0.09849  0.49616  Biso   1.000  C
  C219     1.0000 0.50972  0.98658  0.35829  Biso   1.000  C
  C220     1.0000 0.45970  0.98810  0.31452  Biso   1.000  C
  C221     1.0000 0.46870  0.94910  0.27205  Biso   1.000  C
  C222     1.0000 0.52840  0.90677  0.27175  Biso   1.000  C
  C223     1.0000 0.57830  0.90438  0.31560  Biso   1.000  C
  C224     1.0000 0.56950  0.94376  0.35781  Biso   1.000  C
  C225     1.0000 0.53835  0.86374  0.22555  Biso   1.000  C
  C226     1.0000 0.62502  0.10749  0.50777  Biso   1.000  C
  C227     1.0000 0.69480  0.11890  0.48160  Biso   1.000  C
  C228     1.0000 0.76080  0.13720  0.50882  Biso   1.000  C
  C229     1.0000 0.75857  0.14562  0.56433  Biso   1.000  C
  C230     1.0000 0.68860  0.13463  0.59101  Biso   1.000  C
  C231     1.0000 0.62305  0.11522  0.56360  Biso   1.000  C
  C232     1.0000 0.82920  0.16514  0.59406  Biso   1.000  C
  C233     1.0000 0.74880  0.69890  0.25966  Biso   1.000  C
  C234     1.0000 0.79850  0.69670  0.30317  Biso   1.000  C
  C235     1.0000 0.67700  0.25000  0.82520  Biso   1.000  C
  C236     1.0000 0.82300  0.75000  0.32520  Biso   1.000  C
  N3       1.0000 0.77760  0.25000  0.73881  Biso   1.000  N
  N4       1.0000 0.72240  0.75000  0.23881  Biso   1.000  N
  O27      1.0000 0.40765  0.66753  0.08037  Biso   1.000  O
  O28      1.0000 0.44490  0.57664  0.05909  Biso   1.000  O
  O29      1.0000 0.99305  0.37881  0.68133  Biso   1.000  O
  O30      1.0000 0.92316  0.31692  0.73478  Biso   1.000  O
  O31      1.0000 0.60512  0.65973  0.07111  Biso   1.000  O
  O32      1.0000 0.67996  0.68468  0.14092  Biso   1.000  O
  O33      1.0000 0.09235  0.33247  0.58037  Biso   1.000  O
  O34      1.0000 0.05510  0.42336  0.55909  Biso   1.000  O
  O35      1.0000 0.50695  0.62119  0.18133  Biso   1.000  O
  O36      1.0000 0.57684  0.68308  0.23478  Biso   1.000  O
  O37      1.0000 0.89488  0.34027  0.57111  Biso   1.000  O
  O38      1.0000 0.82004  0.31532  0.64092  Biso   1.000  O
  O39      1.0000 0.40765  0.83247  0.08037  Biso   1.000  O
  O40      1.0000 0.44490  0.92336  0.05909  Biso   1.000  O
  O41      1.0000 0.99305  0.12119  0.68133  Biso   1.000  O
  O42      1.0000 0.92316  0.18308  0.73478  Biso   1.000  O
  O43      1.0000 0.60512  0.84027  0.07111  Biso   1.000  O
  O44      1.0000 0.67996  0.81532  0.14092  Biso   1.000  O
  O45      1.0000 0.09235  0.16753  0.58037  Biso   1.000  O
  O46      1.0000 0.05510  0.07664  0.55909  Biso   1.000  O
  O47      1.0000 0.50695  0.87881  0.18133  Biso   1.000  O
  O48      1.0000 0.57684  0.81692  0.23478  Biso   1.000  O
  O49      1.0000 0.89488  0.15973  0.57111  Biso   1.000  O
  O50      1.0000 0.82004  0.18468  0.64092  Biso   1.000  O
  O51      1.0000 0.98111  0.25000  0.64478  Biso   1.000  O
  O52      1.0000 0.51889  0.75000  0.14478  Biso   1.000  O
