data_EGEJIK_clean5b
_audit_creation_date              2014-07-02
_audit_creation_method            'Materials Studio'
_symmetry_space_group_name_H-M    'P1'
_symmetry_Int_Tables_number       1
_symmetry_cell_setting            triclinic
loop_
_symmetry_equiv_pos_as_xyz
  x,y,z
_cell_length_a                    16.9981
_cell_length_b                    16.9981
_cell_length_c                    17.1200
_cell_angle_alpha                 95.4935
_cell_angle_beta                  95.4935
_cell_angle_gamma                 95.7680
loop_
_atom_site_label
_atom_site_type_symbol
_atom_site_fract_x
_atom_site_fract_y
_atom_site_fract_z
_atom_site_U_iso_or_equiv
_atom_site_adp_type
_atom_site_occupancy
Zn1    Zn    0.90334   0.78615   0.67814   0.01267  Uiso   1.00
Zn2    Zn    0.78515   0.90260   0.67592   0.01267  Uiso   1.00
Zn3    Zn    0.91548   0.91865   0.81228   0.01267  Uiso   1.00
Zn4    Zn    0.78356   0.78465   0.79549   0.01267  Uiso   1.00
H1     H     0.13111   0.81220   0.62825   0.01267  Uiso   1.00
H2     H     0.27401   0.81140   0.62538   0.01267  Uiso   1.00
H3     H     0.31414   0.92550   0.86398   0.01267  Uiso   1.00
H4     H     0.16976   0.92770   0.86668   0.01267  Uiso   1.00
H5     H     0.39769   0.90895   0.62943   0.01267  Uiso   1.00
H6     H     0.53925   0.89649   0.62344   0.01267  Uiso   1.00
H7     H     0.55067   0.80076   0.84835   0.01267  Uiso   1.00
H8     H     0.40906   0.81440   0.85462   0.01267  Uiso   1.00
H9     H     0.79928   0.95256   0.29976   0.01267  Uiso   1.00
H10    H     0.79000   0.94875   0.44128   0.01267  Uiso   1.00
H11    H     0.81268   0.13162   0.62498   0.01267  Uiso   1.00
H12    H     0.81189   0.27463   0.62169   0.01267  Uiso   1.00
H13    H     0.90503   0.31390   0.86726   0.01267  Uiso   1.00
H14    H     0.90689   0.16972   0.87051   0.01267  Uiso   1.00
H15    H     0.90956   0.39845   0.63345   0.01267  Uiso   1.00
H16    H     0.90068   0.54065   0.62751   0.01267  Uiso   1.00
H17    H     0.78710   0.55075   0.84272   0.01267  Uiso   1.00
H18    H     0.79698   0.40863   0.84892   0.01267  Uiso   1.00
H19    H     0.90603   0.73267   0.29100   0.01267  Uiso   1.00
H20    H     0.89792   0.72924   0.43287   0.01267  Uiso   1.00
C1     C     0.05093   0.86412   0.74956   0.01267  Uiso   1.00
C2     C     0.13878   0.86930   0.74805   0.01267  Uiso   1.00
C3     C     0.17017   0.83760   0.68017   0.01267  Uiso   1.00
C4     C     0.25218   0.83745   0.67824   0.01267  Uiso   1.00
C5     C     0.30534   0.86789   0.74453   0.01267  Uiso   1.00
C6     C     0.27444   0.90089   0.81225   0.01267  Uiso   1.00
C7     C     0.19197   0.90248   0.81368   0.01267  Uiso   1.00
C8     C     0.39232   0.86302   0.74268   0.01267  Uiso   1.00
C9     C     0.43053   0.88524   0.67754   0.01267  Uiso   1.00
C10    C     0.51159   0.87800   0.67411   0.01267  Uiso   1.00
C11    C     0.55630   0.84693   0.73507   0.01267  Uiso   1.00
C12    C     0.51790   0.82415   0.80002   0.01267  Uiso   1.00
C13    C     0.43705   0.83277   0.80409   0.01267  Uiso   1.00
C14    C     0.64323   0.84244   0.73289   0.01267  Uiso   1.00
C15    C     0.82093   0.90348   0.32820   0.01267  Uiso   1.00
C16    C     0.81502   0.90090   0.40921   0.01267  Uiso   1.00
C17    C     0.85605   0.05150   0.74930   0.01267  Uiso   1.00
C18    C     0.85929   0.13916   0.74825   0.01267  Uiso   1.00
C19    C     0.83325   0.17060   0.67838   0.01267  Uiso   1.00
C20    C     0.83321   0.25260   0.67625   0.01267  Uiso   1.00
C21    C     0.85805   0.30549   0.74423   0.01267  Uiso   1.00
C22    C     0.88487   0.27441   0.81413   0.01267  Uiso   1.00
C23    C     0.88631   0.19207   0.81591   0.01267  Uiso   1.00
C24    C     0.85428   0.39247   0.74185   0.01267  Uiso   1.00
C25    C     0.88257   0.43114   0.67934   0.01267  Uiso   1.00
C26    C     0.87746   0.51255   0.67597   0.01267  Uiso   1.00
C27    C     0.84262   0.55706   0.73430   0.01267  Uiso   1.00
C28    C     0.81364   0.51815   0.79645   0.01267  Uiso   1.00
C29    C     0.82001   0.43698   0.80051   0.01267  Uiso   1.00
C30    C     0.84020   0.64422   0.73262   0.01267  Uiso   1.00
C31    C     0.83237   0.78029   0.06250   0.01267  Uiso   1.00
C32    C     0.83171   0.77718   0.14403   0.01267  Uiso   1.00
C33    C     0.88697   0.91482   0.16721   0.01267  Uiso   1.00
C34    C     0.88944   0.91763   0.08560   0.01267  Uiso   1.00
C35    C     0.88019   0.77988   0.32318   0.01267  Uiso   1.00
C36    C     0.87562   0.77804   0.40451   0.01267  Uiso   1.00
C37    C     0.85763   0.85334   0.94477   0.01267  Uiso   1.00
C38    C     0.86083   0.85062   0.03201   0.01267  Uiso   1.00
C39    C     0.85788   0.84481   0.19741   0.01267  Uiso   1.00
C40    C     0.85323   0.84281   0.28404   0.01267  Uiso   1.00
C41    C     0.84260   0.83832   0.44865   0.01267  Uiso   1.00
C42    C     0.84047   0.83812   0.53578   0.01267  Uiso   1.00
O1     O     0.01982   0.90964   0.79870   0.01267  Uiso   1.00
O2     O     0.00794   0.81304   0.70026   0.01267  Uiso   1.00
O3     O     0.67931   0.79881   0.77763   0.01267  Uiso   1.00
O4     O     0.88573   0.68196   0.69075   0.01267  Uiso   1.00
O5     O     0.88417   0.79506   0.57364   0.01267  Uiso   1.00
O6     O     0.90007   0.02156   0.80054   0.01267  Uiso   1.00
O7     O     0.80896   0.00751   0.69721   0.01267  Uiso   1.00
O8     O     0.79459   0.68031   0.77490   0.01267  Uiso   1.00
O9     O     0.68079   0.88441   0.68782   0.01267  Uiso   1.00
O10    O     0.79697   0.88284   0.57192   0.01267  Uiso   1.00
O11    O     0.84718   0.84827   0.74080   0.01267  Uiso   1.00
O12    O     0.90384   0.90376   0.91540   0.01267  Uiso   1.00
O13    O     0.80771   0.80401   0.90039   0.01267  Uiso   1.00
Zn5    Zn    0.21385   0.09666   0.32186   0.01267  Uiso   1.00
Zn6    Zn    0.09740   0.21485   0.32408   0.01267  Uiso   1.00
Zn7    Zn    0.08135   0.08452   0.18772   0.01267  Uiso   1.00
Zn8    Zn    0.21535   0.21644   0.20451   0.01267  Uiso   1.00
H21    H     0.18780   0.86889   0.37175   0.01267  Uiso   1.00
H22    H     0.18860   0.72599   0.37462   0.01267  Uiso   1.00
H23    H     0.07450   0.68586   0.13602   0.01267  Uiso   1.00
H24    H     0.07230   0.83024   0.13332   0.01267  Uiso   1.00
H25    H     0.09105   0.60231   0.37057   0.01267  Uiso   1.00
H26    H     0.10351   0.46075   0.37656   0.01267  Uiso   1.00
H27    H     0.19924   0.44933   0.15165   0.01267  Uiso   1.00
H28    H     0.18560   0.59094   0.14538   0.01267  Uiso   1.00
H29    H     0.04744   0.20072   0.70024   0.01267  Uiso   1.00
H30    H     0.05125   0.21000   0.55872   0.01267  Uiso   1.00
H31    H     0.86838   0.18732   0.37502   0.01267  Uiso   1.00
H32    H     0.72537   0.18811   0.37831   0.01267  Uiso   1.00
H33    H     0.68610   0.09497   0.13274   0.01267  Uiso   1.00
H34    H     0.83028   0.09311   0.12949   0.01267  Uiso   1.00
H35    H     0.60155   0.09044   0.36655   0.01267  Uiso   1.00
H36    H     0.45935   0.09932   0.37249   0.01267  Uiso   1.00
H37    H     0.44925   0.21290   0.15728   0.01267  Uiso   1.00
H38    H     0.59137   0.20302   0.15108   0.01267  Uiso   1.00
H39    H     0.26733   0.09397   0.70900   0.01267  Uiso   1.00
H40    H     0.27076   0.10208   0.56713   0.01267  Uiso   1.00
C43    C     0.13588   0.94907   0.25044   0.01267  Uiso   1.00
C44    C     0.13070   0.86122   0.25195   0.01267  Uiso   1.00
C45    C     0.16240   0.82983   0.31983   0.01267  Uiso   1.00
C46    C     0.16255   0.74782   0.32176   0.01267  Uiso   1.00
C47    C     0.13211   0.69466   0.25547   0.01267  Uiso   1.00
C48    C     0.09911   0.72556   0.18775   0.01267  Uiso   1.00
C49    C     0.09752   0.80803   0.18632   0.01267  Uiso   1.00
C50    C     0.13698   0.60768   0.25732   0.01267  Uiso   1.00
C51    C     0.11476   0.56947   0.32246   0.01267  Uiso   1.00
C52    C     0.12200   0.48841   0.32589   0.01267  Uiso   1.00
C53    C     0.15307   0.44370   0.26493   0.01267  Uiso   1.00
C54    C     0.17585   0.48210   0.19998   0.01267  Uiso   1.00
C55    C     0.16723   0.56295   0.19591   0.01267  Uiso   1.00
C56    C     0.15756   0.35677   0.26711   0.01267  Uiso   1.00
C57    C     0.09652   0.17907   0.67180   0.01267  Uiso   1.00
C58    C     0.09910   0.18498   0.59079   0.01267  Uiso   1.00
C59    C     0.94850   0.14395   0.25070   0.01267  Uiso   1.00
C60    C     0.86084   0.14071   0.25175   0.01267  Uiso   1.00
C61    C     0.82940   0.16675   0.32162   0.01267  Uiso   1.00
C62    C     0.74740   0.16679   0.32375   0.01267  Uiso   1.00
C63    C     0.69451   0.14195   0.25577   0.01267  Uiso   1.00
C64    C     0.72559   0.11513   0.18587   0.01267  Uiso   1.00
C65    C     0.80793   0.11369   0.18409   0.01267  Uiso   1.00
C66    C     0.60753   0.14572   0.25815   0.01267  Uiso   1.00
C67    C     0.56886   0.11743   0.32066   0.01267  Uiso   1.00
C68    C     0.48745   0.12254   0.32403   0.01267  Uiso   1.00
C69    C     0.44294   0.15738   0.26570   0.01267  Uiso   1.00
C70    C     0.48185   0.18636   0.20355   0.01267  Uiso   1.00
C71    C     0.56302   0.17999   0.19949   0.01267  Uiso   1.00
C72    C     0.35578   0.15980   0.26738   0.01267  Uiso   1.00
C73    C     0.21971   0.16763   0.93750   0.01267  Uiso   1.00
C74    C     0.22282   0.16829   0.85597   0.01267  Uiso   1.00
C75    C     0.08518   0.11303   0.83279   0.01267  Uiso   1.00
C76    C     0.08237   0.11056   0.91440   0.01267  Uiso   1.00
C77    C     0.22012   0.11981   0.67682   0.01267  Uiso   1.00
C78    C     0.22196   0.12438   0.59549   0.01267  Uiso   1.00
C79    C     0.14666   0.14237   0.05523   0.01267  Uiso   1.00
C80    C     0.14938   0.13917   0.96799   0.01267  Uiso   1.00
C81    C     0.15519   0.14212   0.80259   0.01267  Uiso   1.00
C82    C     0.15719   0.14677   0.71596   0.01267  Uiso   1.00
C83    C     0.16168   0.15740   0.55135   0.01267  Uiso   1.00
C84    C     0.16188   0.15953   0.46422   0.01267  Uiso   1.00
O14    O     0.09036   0.98018   0.20130   0.01267  Uiso   1.00
O15    O     0.18696   0.99206   0.29974   0.01267  Uiso   1.00
O16    O     0.20119   0.32069   0.22237   0.01267  Uiso   1.00
O17    O     0.31804   0.11427   0.30925   0.01267  Uiso   1.00
O18    O     0.20494   0.11583   0.42636   0.01267  Uiso   1.00
O19    O     0.97844   0.09993   0.19946   0.01267  Uiso   1.00
O20    O     0.99249   0.19104   0.30279   0.01267  Uiso   1.00
O21    O     0.31969   0.20541   0.22510   0.01267  Uiso   1.00
O22    O     0.11559   0.31921   0.31218   0.01267  Uiso   1.00
O23    O     0.11716   0.20303   0.42808   0.01267  Uiso   1.00
O24    O     0.15173   0.15282   0.25920   0.01267  Uiso   1.00
O25    O     0.09624   0.09616   0.08460   0.01267  Uiso   1.00
O26    O     0.19599   0.19229   0.09961   0.01267  Uiso   1.00
H41    H     0.81035   0.72734   0.02310   0.01267  Uiso   1.00
H42    H     0.80870   0.72235   0.16528   0.01267  Uiso   1.00
H43    H     0.90792   0.96714   0.20737   0.01267  Uiso   1.00
H44    H     0.91182   0.97269   0.06436   0.01267  Uiso   1.00
H45    H     0.27266   0.18965   0.97690   0.01267  Uiso   1.00
H46    H     0.27765   0.19130   0.83472   0.01267  Uiso   1.00
H47    H     0.03286   0.09208   0.79263   0.01267  Uiso   1.00
H48    H     0.02731   0.08818   0.93564   0.01267  Uiso   1.00
