data_image0
_cell_length_a       18.618
_cell_length_b       8.7601
_cell_length_c       17.484
_cell_angle_alpha    90
_cell_angle_beta     93.43
_cell_angle_gamma    90

_symmetry_space_group_name_H-M    "P 1"
_symmetry_int_tables_number       1

loop_
  _symmetry_equiv_pos_as_xyz
  'x, y, z'

loop_
  _atom_site_label
  _atom_site_occupancy
  _atom_site_fract_x
  _atom_site_fract_y
  _atom_site_fract_z
  _atom_site_thermal_displace_type
  _atom_site_B_iso_or_equiv
  _atom_site_type_symbol
  Zn1      1.0000 0.32058  0.97450  0.09684  Biso   1.000  Zn
  Zn2      1.0000 0.01556  0.99122  0.11550  Biso   1.000  Zn
  Zn3      1.0000 0.40725  0.48156  0.26241  Biso   1.000  Zn
  Zn4      1.0000 0.15988  0.48774  0.08921  Biso   1.000  Zn
  P1       1.0000 0.16524  0.84547  0.08224  Biso   1.000  P
  H1       1.0000 0.16500  0.94000  0.02500  Biso   1.000  H
  P2       1.0000 0.31070  0.33396  0.13306  Biso   1.000  P
  H2       1.0000 0.37200  0.33900  0.10000  Biso   1.000  H
  P3       1.0000 0.95364  0.74020  0.99768  Biso   1.000  P
  H3       1.0000 0.00400  0.65300  0.02300  Biso   1.000  H
  P4       1.0000 0.96333  0.01967  0.29259  Biso   1.000  P
  H4       1.0000 0.98400  0.15900  0.31900  Biso   1.000  H
  P5       1.0000 0.38641  0.01758  0.93814  Biso   1.000  P
  H5       1.0000 0.45100  0.98800  0.96800  Biso   1.000  H
  P6       1.0000 0.45105  0.80003  0.17605  Biso   1.000  P
  H6       1.0000 0.47100  0.78000  0.10300  Biso   1.000  H
  O1       1.0000 0.23910  0.84800  0.12390  Biso   1.000  O
  O2       1.0000 0.28340  0.17230  0.12360  Biso   1.000  O
  O3       1.0000 0.33920  0.93060  0.99230  Biso   1.000  O
  O4       1.0000 0.39490  0.92640  0.17580  Biso   1.000  O
  O5       1.0000 0.10820  0.89610  0.13580  Biso   1.000  O
  O6       1.0000 0.94780  0.87090  0.05360  Biso   1.000  O
  O7       1.0000 0.96860  0.02470  0.20810  Biso   1.000  O
  O8       1.0000 0.97730  0.79620  0.91980  Biso   1.000  O
  O9       1.0000 0.32300  0.37330  0.21710  Biso   1.000  O
  O10      1.0000 0.38000  0.93740  0.86060  Biso   1.000  O
  O11      1.0000 0.51580  0.83550  0.22920  Biso   1.000  O
  O12      1.0000 0.41870  0.64770  0.19250  Biso   1.000  O
  O13      1.0000 0.88580  0.64540  0.99020  Biso   1.000  O
  O14      1.0000 0.14830  0.69260  0.04510  Biso   1.000  O
  O15      1.0000 0.26110  0.44670  0.08890  Biso   1.000  O
  O16      1.0000 0.88970  0.97850  0.31760  Biso   1.000  O
  O17      1.0000 0.02230  0.91230  0.32960  Biso   1.000  O
  H7       1.0000 0.00360  0.85050  0.35750  Biso   1.000  H
  O18      1.0000 0.37380  0.18490  0.93530  Biso   1.000  O
  Zn5      1.0000 0.67942  0.47450  0.40316  Biso   1.000  Zn
  Zn6      1.0000 0.98444  0.49122  0.38450  Biso   1.000  Zn
  Zn7      1.0000 0.59275  0.98156  0.23759  Biso   1.000  Zn
  Zn8      1.0000 0.84012  0.98774  0.41079  Biso   1.000  Zn
  P7       1.0000 0.83476  0.34547  0.41776  Biso   1.000  P
  H8       1.0000 0.83500  0.44000  0.47500  Biso   1.000  H
  P8       1.0000 0.68930  0.83396  0.36694  Biso   1.000  P
  H9       1.0000 0.62800  0.83900  0.40000  Biso   1.000  H
  P9       1.0000 0.04636  0.24020  0.50232  Biso   1.000  P
  H10      1.0000 0.99600  0.15300  0.47700  Biso   1.000  H
  P10      1.0000 0.03667  0.51967  0.20741  Biso   1.000  P
  H11      1.0000 0.01600  0.65900  0.18100  Biso   1.000  H
  P11      1.0000 0.61359  0.51758  0.56186  Biso   1.000  P
  H12      1.0000 0.54900  0.48800  0.53200  Biso   1.000  H
  P12      1.0000 0.54895  0.30003  0.32395  Biso   1.000  P
  H13      1.0000 0.52900  0.28000  0.39700  Biso   1.000  H
  O19      1.0000 0.76090  0.34800  0.37610  Biso   1.000  O
  O20      1.0000 0.71660  0.67230  0.37640  Biso   1.000  O
  O21      1.0000 0.66080  0.43060  0.50770  Biso   1.000  O
  O22      1.0000 0.60510  0.42640  0.32420  Biso   1.000  O
  O23      1.0000 0.89180  0.39610  0.36420  Biso   1.000  O
  O24      1.0000 0.05220  0.37090  0.44640  Biso   1.000  O
  O25      1.0000 0.03140  0.52470  0.29190  Biso   1.000  O
  O26      1.0000 0.02270  0.29620  0.58020  Biso   1.000  O
  O27      1.0000 0.67700  0.87330  0.28290  Biso   1.000  O
  O28      1.0000 0.62000  0.43740  0.63940  Biso   1.000  O
  O29      1.0000 0.48420  0.33550  0.27080  Biso   1.000  O
  O30      1.0000 0.58130  0.14770  0.30750  Biso   1.000  O
  O31      1.0000 0.11420  0.14540  0.50980  Biso   1.000  O
  O32      1.0000 0.85170  0.19260  0.45490  Biso   1.000  O
  O33      1.0000 0.73890  0.94670  0.41110  Biso   1.000  O
  O34      1.0000 0.11030  0.47850  0.18240  Biso   1.000  O
  O35      1.0000 0.97770  0.41230  0.17040  Biso   1.000  O
  H14      1.0000 0.99640  0.35050  0.14250  Biso   1.000  H
  O36      1.0000 0.62620  0.68490  0.56470  Biso   1.000  O
  Zn9      1.0000 0.67942  0.02550  0.90316  Biso   1.000  Zn
  Zn10     1.0000 0.98444  0.00878  0.88450  Biso   1.000  Zn
  Zn11     1.0000 0.59275  0.51844  0.73759  Biso   1.000  Zn
  Zn12     1.0000 0.84012  0.51226  0.91079  Biso   1.000  Zn
  P13      1.0000 0.83476  0.15453  0.91776  Biso   1.000  P
  H15      1.0000 0.83500  0.06000  0.97500  Biso   1.000  H
  P14      1.0000 0.68930  0.66604  0.86694  Biso   1.000  P
  H16      1.0000 0.62800  0.66100  0.90000  Biso   1.000  H
  P15      1.0000 0.04636  0.25980  0.00232  Biso   1.000  P
  H17      1.0000 0.99600  0.34700  0.97700  Biso   1.000  H
  P16      1.0000 0.03667  0.98033  0.70741  Biso   1.000  P
  H18      1.0000 0.01600  0.84100  0.68100  Biso   1.000  H
  P17      1.0000 0.61359  0.98242  0.06186  Biso   1.000  P
  H19      1.0000 0.54900  0.01200  0.03200  Biso   1.000  H
  P18      1.0000 0.54895  0.19997  0.82395  Biso   1.000  P
  H20      1.0000 0.52900  0.22000  0.89700  Biso   1.000  H
  O37      1.0000 0.76090  0.15200  0.87610  Biso   1.000  O
  O38      1.0000 0.71660  0.82770  0.87640  Biso   1.000  O
  O39      1.0000 0.66080  0.06940  0.00770  Biso   1.000  O
  O40      1.0000 0.60510  0.07360  0.82420  Biso   1.000  O
  O41      1.0000 0.89180  0.10390  0.86420  Biso   1.000  O
  O42      1.0000 0.05220  0.12910  0.94640  Biso   1.000  O
  O43      1.0000 0.03140  0.97530  0.79190  Biso   1.000  O
  O44      1.0000 0.02270  0.20380  0.08020  Biso   1.000  O
  O45      1.0000 0.67700  0.62670  0.78290  Biso   1.000  O
  O46      1.0000 0.62000  0.06260  0.13940  Biso   1.000  O
  O47      1.0000 0.48420  0.16450  0.77080  Biso   1.000  O
  O48      1.0000 0.58130  0.35230  0.80750  Biso   1.000  O
  O49      1.0000 0.11420  0.35460  0.00980  Biso   1.000  O
  O50      1.0000 0.85170  0.30740  0.95490  Biso   1.000  O
  O51      1.0000 0.73890  0.55330  0.91110  Biso   1.000  O
  O52      1.0000 0.11030  0.02150  0.68240  Biso   1.000  O
  O53      1.0000 0.97770  0.08770  0.67040  Biso   1.000  O
  H21      1.0000 0.99640  0.14950  0.64250  Biso   1.000  H
  O54      1.0000 0.62620  0.81510  0.06470  Biso   1.000  O
  Zn13     1.0000 0.32058  0.52550  0.59684  Biso   1.000  Zn
  Zn14     1.0000 0.01556  0.50878  0.61550  Biso   1.000  Zn
  Zn15     1.0000 0.40725  0.01844  0.76241  Biso   1.000  Zn
  Zn16     1.0000 0.15988  0.01226  0.58921  Biso   1.000  Zn
  P19      1.0000 0.16524  0.65453  0.58224  Biso   1.000  P
  H22      1.0000 0.16500  0.56000  0.52500  Biso   1.000  H
  P20      1.0000 0.31070  0.16604  0.63306  Biso   1.000  P
  H23      1.0000 0.37200  0.16100  0.60000  Biso   1.000  H
  P21      1.0000 0.95364  0.75980  0.49768  Biso   1.000  P
  H24      1.0000 0.00400  0.84700  0.52300  Biso   1.000  H
  P22      1.0000 0.96333  0.48033  0.79259  Biso   1.000  P
  H25      1.0000 0.98400  0.34100  0.81900  Biso   1.000  H
  P23      1.0000 0.38641  0.48242  0.43814  Biso   1.000  P
  H26      1.0000 0.45100  0.51200  0.46800  Biso   1.000  H
  P24      1.0000 0.45105  0.69997  0.67605  Biso   1.000  P
  H27      1.0000 0.47100  0.72000  0.60300  Biso   1.000  H
  O55      1.0000 0.23910  0.65200  0.62390  Biso   1.000  O
  O56      1.0000 0.28340  0.32770  0.62360  Biso   1.000  O
  O57      1.0000 0.33920  0.56940  0.49230  Biso   1.000  O
  O58      1.0000 0.39490  0.57360  0.67580  Biso   1.000  O
  O59      1.0000 0.10820  0.60390  0.63580  Biso   1.000  O
  O60      1.0000 0.94780  0.62910  0.55360  Biso   1.000  O
  O61      1.0000 0.96860  0.47530  0.70810  Biso   1.000  O
  O62      1.0000 0.97730  0.70380  0.41980  Biso   1.000  O
  O63      1.0000 0.32300  0.12670  0.71710  Biso   1.000  O
  O64      1.0000 0.38000  0.56260  0.36060  Biso   1.000  O
  O65      1.0000 0.51580  0.66450  0.72920  Biso   1.000  O
  O66      1.0000 0.41870  0.85230  0.69250  Biso   1.000  O
  O67      1.0000 0.88580  0.85460  0.49020  Biso   1.000  O
  O68      1.0000 0.14830  0.80740  0.54510  Biso   1.000  O
  O69      1.0000 0.26110  0.05330  0.58890  Biso   1.000  O
  O70      1.0000 0.88970  0.52150  0.81760  Biso   1.000  O
  O71      1.0000 0.02230  0.58770  0.82960  Biso   1.000  O
  H28      1.0000 0.00360  0.64950  0.85750  Biso   1.000  H
  O72      1.0000 0.37380  0.31510  0.43530  Biso   1.000  O
