data_image0
_cell_length_a       10.587
_cell_length_b       11.487
_cell_length_c       13.372
_cell_angle_alpha    69.301
_cell_angle_beta     79.25
_cell_angle_gamma    63.14

_symmetry_space_group_name_H-M    "P 1"
_symmetry_int_tables_number       1

loop_
  _symmetry_equiv_pos_as_xyz
  'x, y, z'

loop_
  _atom_site_label
  _atom_site_occupancy
  _atom_site_fract_x
  _atom_site_fract_y
  _atom_site_fract_z
  _atom_site_thermal_displace_type
  _atom_site_B_iso_or_equiv
  _atom_site_type_symbol
  U1       1.0000 0.62533  0.71279  0.83466  Biso   1.000  U
  Gd1      1.0000 0.60381  0.22774  0.75457  Biso   1.000  Gd
  C1       1.0000 0.00180  0.34220  0.84990  Biso   1.000  C
  C2       1.0000 0.11340  0.31320  0.90640  Biso   1.000  C
  H1       1.0000 0.09740  0.36100  0.95430  Biso   1.000  H
  C3       1.0000 0.24750  0.21690  0.89550  Biso   1.000  C
  C4       1.0000 0.26930  0.14130  0.82630  Biso   1.000  C
  C5       1.0000 0.15250  0.16360  0.77680  Biso   1.000  C
  H2       1.0000 0.16450  0.10740  0.73670  Biso   1.000  H
  C6       1.0000 0.01940  0.26570  0.78450  Biso   1.000  C
  C7       1.0000 0.62380  0.99980  0.44980  Biso   1.000  C
  H3       1.0000 0.70930  0.99890  0.41620  Biso   1.000  H
  C8       1.0000 0.61530  0.87580  0.50370  Biso   1.000  C
  C9       1.0000 0.49020  0.87520  0.55580  Biso   1.000  C
  C10      1.0000 0.86420  0.46450  0.85340  Biso   1.000  C
  C11      1.0000 0.36030  0.19690  0.95710  Biso   1.000  C
  C12      1.0000 0.41000  0.03730  0.80310  Biso   1.000  C
  C13      1.0000 0.90010  0.29140  0.72410  Biso   1.000  C
  C14      1.0000 0.46860  0.74970  0.61940  Biso   1.000  C
  C15      1.0000 0.74310  0.74570  0.50340  Biso   1.000  C
  O1       1.0000 0.53790  0.63200  0.94090  Biso   1.000  O
  O2       1.0000 0.71600  0.79010  0.72930  Biso   1.000  O
  O3       1.0000 0.06500  0.50210  0.61050  Biso   1.000  O
  O4       1.0000 0.85250  0.53570  0.90960  Biso   1.000  O
  O5       1.0000 0.76390  0.49570  0.79890  Biso   1.000  O
  O6       1.0000 0.82480  0.22950  0.76750  Biso   1.000  O
  O7       1.0000 0.88930  0.36400  0.62540  Biso   1.000  O
  O8       1.0000 0.41920  0.91790  0.82330  Biso   1.000  O
  O9       1.0000 0.50760  0.07120  0.76210  Biso   1.000  O
  O10      1.0000 0.47940  0.17970  0.92010  Biso   1.000  O
  O11      1.0000 0.32240  0.20040  0.05370  Biso   1.000  O
  O12      1.0000 0.50380  0.69660  0.71630  Biso   1.000  O
  O13      1.0000 0.41420  0.70450  0.57770  Biso   1.000  O
  O14      1.0000 0.73290  0.63460  0.53230  Biso   1.000  O
  O15      1.0000 0.86100  0.74820  0.47700  Biso   1.000  O
  O16      1.0000 0.77150  0.00520  0.84280  Biso   1.000  O
  H4       1.0000 0.86330  0.97790  0.82120  Biso   1.000  H
  H5       1.0000 0.74360  0.94800  0.89770  Biso   1.000  H
  O17      1.0000 0.52940  0.41220  0.82460  Biso   1.000  O
  H6       1.0000 0.52490  0.49430  0.78140  Biso   1.000  H
  H7       1.0000 0.50480  0.40020  0.89440  Biso   1.000  H
  O18      1.0000 0.37360  0.36930  0.67900  Biso   1.000  O
  H8       1.0000 0.35930  0.44600  0.62350  Biso   1.000  H
  H9       1.0000 0.30150  0.34510  0.70670  Biso   1.000  H
  O19      1.0000 0.61180  0.42180  0.60970  Biso   1.000  O
  H10      1.0000 0.53280  0.48410  0.57360  Biso   1.000  H
  H11      1.0000 0.69320  0.43200  0.59130  Biso   1.000  H
  O20      1.0000 0.71430  0.14820  0.60750  Biso   1.000  O
  H12      1.0000 0.72660  0.20670  0.54500  Biso   1.000  H
  H13      1.0000 0.74480  0.05900  0.61380  Biso   1.000  H
  U2       1.0000 0.37467  0.28721  0.16534  Biso   1.000  U
  Gd2      1.0000 0.39619  0.77226  0.24543  Biso   1.000  Gd
  C16      1.0000 0.99820  0.65780  0.15010  Biso   1.000  C
  C17      1.0000 0.88660  0.68680  0.09360  Biso   1.000  C
  H14      1.0000 0.90260  0.63900  0.04570  Biso   1.000  H
  C18      1.0000 0.75250  0.78310  0.10450  Biso   1.000  C
  C19      1.0000 0.73070  0.85870  0.17370  Biso   1.000  C
  C20      1.0000 0.84750  0.83640  0.22320  Biso   1.000  C
  H15      1.0000 0.83550  0.89260  0.26330  Biso   1.000  H
  C21      1.0000 0.98060  0.73430  0.21550  Biso   1.000  C
  C22      1.0000 0.37620  0.00020  0.55020  Biso   1.000  C
  H16      1.0000 0.29070  0.00110  0.58380  Biso   1.000  H
  C23      1.0000 0.38470  0.12420  0.49630  Biso   1.000  C
  C24      1.0000 0.50980  0.12480  0.44420  Biso   1.000  C
  C25      1.0000 0.13580  0.53550  0.14660  Biso   1.000  C
  C26      1.0000 0.63970  0.80310  0.04290  Biso   1.000  C
  C27      1.0000 0.59000  0.96270  0.19690  Biso   1.000  C
  C28      1.0000 0.09990  0.70860  0.27590  Biso   1.000  C
  C29      1.0000 0.53140  0.25030  0.38060  Biso   1.000  C
  C30      1.0000 0.25690  0.25430  0.49660  Biso   1.000  C
  O21      1.0000 0.46210  0.36800  0.05910  Biso   1.000  O
  O22      1.0000 0.28400  0.20990  0.27070  Biso   1.000  O
  O23      1.0000 0.93500  0.49790  0.38950  Biso   1.000  O
  O24      1.0000 0.14750  0.46430  0.09040  Biso   1.000  O
  O25      1.0000 0.23610  0.50430  0.20110  Biso   1.000  O
  O26      1.0000 0.17520  0.77050  0.23250  Biso   1.000  O
  O27      1.0000 0.11070  0.63600  0.37460  Biso   1.000  O
  O28      1.0000 0.58080  0.08210  0.17670  Biso   1.000  O
  O29      1.0000 0.49240  0.92880  0.23790  Biso   1.000  O
  O30      1.0000 0.52060  0.82030  0.07990  Biso   1.000  O
  O31      1.0000 0.67760  0.79960  0.94630  Biso   1.000  O
  O32      1.0000 0.49620  0.30340  0.28370  Biso   1.000  O
  O33      1.0000 0.58580  0.29550  0.42230  Biso   1.000  O
  O34      1.0000 0.26710  0.36540  0.46770  Biso   1.000  O
  O35      1.0000 0.13900  0.25180  0.52300  Biso   1.000  O
  O36      1.0000 0.22850  0.99480  0.15720  Biso   1.000  O
  H17      1.0000 0.13670  0.02210  0.17880  Biso   1.000  H
  H18      1.0000 0.25640  0.05200  0.10230  Biso   1.000  H
  O37      1.0000 0.47060  0.58780  0.17540  Biso   1.000  O
  H19      1.0000 0.47510  0.50570  0.21860  Biso   1.000  H
  H20      1.0000 0.49520  0.59980  0.10560  Biso   1.000  H
  O38      1.0000 0.62640  0.63070  0.32100  Biso   1.000  O
  H21      1.0000 0.64070  0.55400  0.37650  Biso   1.000  H
  H22      1.0000 0.69850  0.65490  0.29330  Biso   1.000  H
  O39      1.0000 0.38820  0.57820  0.39030  Biso   1.000  O
  H23      1.0000 0.46720  0.51590  0.42640  Biso   1.000  H
  H24      1.0000 0.30680  0.56800  0.40870  Biso   1.000  H
  O40      1.0000 0.28570  0.85180  0.39250  Biso   1.000  O
  H25      1.0000 0.27340  0.79330  0.45500  Biso   1.000  H
  H26      1.0000 0.25520  0.94100  0.38620  Biso   1.000  H
  U3       1.0000 0.00000  0.50000  0.50000  Biso   1.000  U
