data_image0
_cell_length_a       10.5675
_cell_length_b       11.5148
_cell_length_c       13.4306
_cell_angle_alpha    69.151
_cell_angle_beta     78.569
_cell_angle_gamma    63.228

_symmetry_space_group_name_H-M    "P 1"
_symmetry_int_tables_number       1

loop_
  _symmetry_equiv_pos_as_xyz
  'x, y, z'

loop_
  _atom_site_label
  _atom_site_occupancy
  _atom_site_fract_x
  _atom_site_fract_y
  _atom_site_fract_z
  _atom_site_thermal_displace_type
  _atom_site_B_iso_or_equiv
  _atom_site_type_symbol
  U1       1.0000 0.62428  0.71303  0.83617  Biso   1.000  U
  Tb1      1.0000 0.60045  0.22954  0.75007  Biso   1.000  Tb
  O1       1.0000 0.53290  0.63450  0.94370  Biso   1.000  O
  O2       1.0000 0.71900  0.78830  0.73070  Biso   1.000  O
  O3       1.0000 0.06660  0.50030  0.61070  Biso   1.000  O
  O4       1.0000 0.85150  0.53610  0.91310  Biso   1.000  O
  O5       1.0000 0.76300  0.49540  0.80160  Biso   1.000  O
  O6       1.0000 0.81770  0.23300  0.77060  Biso   1.000  O
  O7       1.0000 0.88730  0.36330  0.62650  Biso   1.000  O
  O8       1.0000 0.41790  0.92000  0.82090  Biso   1.000  O
  O9       1.0000 0.50380  0.07680  0.75430  Biso   1.000  O
  O10      1.0000 0.48230  0.17660  0.91780  Biso   1.000  O
  O11      1.0000 0.32450  0.19780  0.05280  Biso   1.000  O
  O12      1.0000 0.50140  0.69690  0.71760  Biso   1.000  O
  O13      1.0000 0.41050  0.70310  0.58090  Biso   1.000  O
  O14      1.0000 0.73380  0.63400  0.53400  Biso   1.000  O
  O15      1.0000 0.86380  0.74860  0.47800  Biso   1.000  O
  O16      1.0000 0.71850  0.14980  0.60590  Biso   1.000  O
  H1       1.0000 0.67190  0.17750  0.54670  Biso   1.000  H
  H2       1.0000 0.81060  0.09090  0.60950  Biso   1.000  H
  O17      1.0000 0.60800  0.42270  0.60620  Biso   1.000  O
  H3       1.0000 0.52830  0.48660  0.57250  Biso   1.000  H
  H4       1.0000 0.69060  0.43130  0.58540  Biso   1.000  H
  O18      1.0000 0.36780  0.37680  0.68160  Biso   1.000  O
  H5       1.0000 0.35450  0.45370  0.62680  Biso   1.000  H
  H6       1.0000 0.29410  0.35480  0.71080  Biso   1.000  H
  O19      1.0000 0.52420  0.41130  0.82590  Biso   1.000  O
  H7       1.0000 0.43820  0.48120  0.81220  Biso   1.000  H
  H8       1.0000 0.58180  0.40960  0.86820  Biso   1.000  H
  O20      1.0000 0.76720  0.00980  0.83860  Biso   1.000  O
  H9       1.0000 0.74340  0.93830  0.86140  Biso   1.000  H
  H10      1.0000 0.85430  0.99750  0.84940  Biso   1.000  H
  C1       1.0000 0.99830  0.34330  0.85130  Biso   1.000  C
  C2       1.0000 0.11160  0.31260  0.90880  Biso   1.000  C
  H11      1.0000 0.09650  0.35850  0.95770  Biso   1.000  H
  C3       1.0000 0.24610  0.21550  0.89490  Biso   1.000  C
  C4       1.0000 0.26640  0.14240  0.82400  Biso   1.000  C
  C5       1.0000 0.14880  0.16590  0.77480  Biso   1.000  C
  H12      1.0000 0.16010  0.11180  0.73340  Biso   1.000  H
  C6       1.0000 0.01580  0.26710  0.78560  Biso   1.000  C
  C7       1.0000 0.62720  0.99890  0.44990  Biso   1.000  C
  H13      1.0000 0.71340  0.99810  0.41640  Biso   1.000  H
  C8       1.0000 0.61720  0.87550  0.50500  Biso   1.000  C
  C9       1.0000 0.48810  0.87700  0.55640  Biso   1.000  C
  C10      1.0000 0.86430  0.46270  0.85670  Biso   1.000  C
  C11      1.0000 0.36140  0.19480  0.95660  Biso   1.000  C
  C12      1.0000 0.40820  0.03920  0.79830  Biso   1.000  C
  C13      1.0000 0.89660  0.29110  0.72410  Biso   1.000  C
  C14      1.0000 0.46700  0.74890  0.62200  Biso   1.000  C
  C15      1.0000 0.74420  0.74650  0.50660  Biso   1.000  C
  U2       1.0000 0.37572  0.28697  0.16383  Biso   1.000  U
  Tb2      1.0000 0.39955  0.77046  0.24993  Biso   1.000  Tb
  O21      1.0000 0.46710  0.36550  0.05630  Biso   1.000  O
  O22      1.0000 0.28100  0.21170  0.26930  Biso   1.000  O
  O23      1.0000 0.93340  0.49970  0.38930  Biso   1.000  O
  O24      1.0000 0.14850  0.46390  0.08690  Biso   1.000  O
  O25      1.0000 0.23700  0.50460  0.19840  Biso   1.000  O
  O26      1.0000 0.18230  0.76700  0.22940  Biso   1.000  O
  O27      1.0000 0.11270  0.63670  0.37350  Biso   1.000  O
  O28      1.0000 0.58210  0.08000  0.17910  Biso   1.000  O
  O29      1.0000 0.49620  0.92320  0.24570  Biso   1.000  O
  O30      1.0000 0.51770  0.82340  0.08220  Biso   1.000  O
  O31      1.0000 0.67550  0.80220  0.94720  Biso   1.000  O
  O32      1.0000 0.49860  0.30310  0.28240  Biso   1.000  O
  O33      1.0000 0.58950  0.29690  0.41910  Biso   1.000  O
  O34      1.0000 0.26620  0.36600  0.46600  Biso   1.000  O
  O35      1.0000 0.13620  0.25140  0.52200  Biso   1.000  O
  O36      1.0000 0.28150  0.85020  0.39410  Biso   1.000  O
  H14      1.0000 0.32810  0.82250  0.45330  Biso   1.000  H
  H15      1.0000 0.18940  0.90910  0.39050  Biso   1.000  H
  O37      1.0000 0.39200  0.57730  0.39380  Biso   1.000  O
  H16      1.0000 0.47170  0.51340  0.42750  Biso   1.000  H
  H17      1.0000 0.30940  0.56870  0.41460  Biso   1.000  H
  O38      1.0000 0.63220  0.62320  0.31840  Biso   1.000  O
  H18      1.0000 0.64550  0.54630  0.37320  Biso   1.000  H
  H19      1.0000 0.70590  0.64520  0.28920  Biso   1.000  H
  O39      1.0000 0.47580  0.58870  0.17410  Biso   1.000  O
  H20      1.0000 0.56180  0.51880  0.18780  Biso   1.000  H
  H21      1.0000 0.41820  0.59040  0.13180  Biso   1.000  H
  O40      1.0000 0.23280  0.99020  0.16140  Biso   1.000  O
  H22      1.0000 0.25660  0.06170  0.13860  Biso   1.000  H
  H23      1.0000 0.14570  0.00250  0.15060  Biso   1.000  H
  C16      1.0000 0.00170  0.65670  0.14870  Biso   1.000  C
  C17      1.0000 0.88840  0.68740  0.09120  Biso   1.000  C
  H24      1.0000 0.90350  0.64150  0.04230  Biso   1.000  H
  C18      1.0000 0.75390  0.78450  0.10510  Biso   1.000  C
  C19      1.0000 0.73360  0.85760  0.17600  Biso   1.000  C
  C20      1.0000 0.85120  0.83410  0.22520  Biso   1.000  C
  H25      1.0000 0.83990  0.88820  0.26660  Biso   1.000  H
  C21      1.0000 0.98420  0.73290  0.21440  Biso   1.000  C
  C22      1.0000 0.37280  0.00110  0.55010  Biso   1.000  C
  H26      1.0000 0.28660  0.00190  0.58360  Biso   1.000  H
  C23      1.0000 0.38280  0.12450  0.49500  Biso   1.000  C
  C24      1.0000 0.51190  0.12300  0.44360  Biso   1.000  C
  C25      1.0000 0.13570  0.53730  0.14330  Biso   1.000  C
  C26      1.0000 0.63860  0.80520  0.04340  Biso   1.000  C
  C27      1.0000 0.59180  0.96080  0.20170  Biso   1.000  C
  C28      1.0000 0.10340  0.70890  0.27590  Biso   1.000  C
  C29      1.0000 0.53300  0.25110  0.37800  Biso   1.000  C
  C30      1.0000 0.25580  0.25350  0.49340  Biso   1.000  C
  U3       1.0000 0.00000  0.50000  0.50000  Biso   1.000  U
