data_EHALOP_fix
_audit_creation_date              2014-02-24
_audit_creation_method            'Materials Studio'
_symmetry_space_group_name_H-M    'P1'
_symmetry_Int_Tables_number       1
_symmetry_cell_setting            triclinic
loop_
_symmetry_equiv_pos_as_xyz
  x,y,z
_cell_length_a                    15.9473
_cell_length_b                    6.6310
_cell_length_c                    13.9205
_cell_angle_alpha                 90.0000
_cell_angle_beta                  90.0000
_cell_angle_gamma                 90.0000
loop_
_atom_site_label
_atom_site_type_symbol
_atom_site_fract_x
_atom_site_fract_y
_atom_site_fract_z
_atom_site_U_iso_or_equiv
_atom_site_adp_type
_atom_site_occupancy
C1     C     0.21636   0.56510   0.71871   0.00000  Uiso   1.00
O2     O     0.08062   0.57422   0.58505   0.00000  Uiso   1.00
H3     H     0.19167   0.42223   0.69458   0.00000  Uiso   1.00
C4     C     0.71722   0.06557   0.21719   0.00000  Uiso   1.00
O5     O     0.58134   0.07542   0.08297   0.00000  Uiso   1.00
H6     H     0.69240   0.92279   0.19292   0.00000  Uiso   1.00
C7     C     0.78381   0.92729   0.71670   0.00000  Uiso   1.00
O8     O     0.92025   0.91622   0.58289   0.00000  Uiso   1.00
H9     H     0.80897   0.06980   0.69266   0.00000  Uiso   1.00
C10    C     0.28434   0.42760   0.21808   0.00000  Uiso   1.00
O11    O     0.42024   0.41808   0.08417   0.00000  Uiso   1.00
H12    H     0.30901   0.57065   0.19401   0.00000  Uiso   1.00
C13    C     0.78444   0.06532   0.28298   0.00000  Uiso   1.00
O14    O     0.92045   0.07429   0.41733   0.00000  Uiso   1.00
H15    H     0.80904   0.92247   0.30738   0.00000  Uiso   1.00
C16    C     0.28400   0.56528   0.78389   0.00000  Uiso   1.00
O17    O     0.41955   0.57549   0.91758   0.00000  Uiso   1.00
H18    H     0.30922   0.42239   0.80767   0.00000  Uiso   1.00
C19    C     0.21653   0.42718   0.28305   0.00000  Uiso   1.00
O20    O     0.08166   0.41647   0.41779   0.00000  Uiso   1.00
H21    H     0.19125   0.56976   0.30689   0.00000  Uiso   1.00
C22    C     0.71607   0.92774   0.78188   0.00000  Uiso   1.00
O23    O     0.58038   0.91824   0.91689   0.00000  Uiso   1.00
H24    H     0.69135   0.07080   0.80595   0.00000  Uiso   1.00
C25    C     0.78453   0.42846   0.28316   0.00000  Uiso   1.00
O26    O     0.92017   0.41743   0.41820   0.00000  Uiso   1.00
H27    H     0.80922   0.57124   0.30769   0.00000  Uiso   1.00
C28    C     0.28392   0.92859   0.78378   0.00000  Uiso   1.00
O29    O     0.41953   0.91830   0.91797   0.00000  Uiso   1.00
H30    H     0.30906   0.07148   0.80749   0.00000  Uiso   1.00
C31    C     0.21676   0.06386   0.28278   0.00000  Uiso   1.00
O32    O     0.08136   0.07312   0.41698   0.00000  Uiso   1.00
H33    H     0.19170   0.92074   0.30637   0.00000  Uiso   1.00
C34    C     0.71580   0.56462   0.78208   0.00000  Uiso   1.00
O35    O     0.58003   0.57496   0.91643   0.00000  Uiso   1.00
H36    H     0.69084   0.42201   0.80632   0.00000  Uiso   1.00
C37    C     0.21628   0.92831   0.71853   0.00000  Uiso   1.00
O38    O     0.08094   0.91732   0.58415   0.00000  Uiso   1.00
H39    H     0.19151   0.07109   0.69425   0.00000  Uiso   1.00
C40    C     0.71731   0.42870   0.21729   0.00000  Uiso   1.00
O41    O     0.58133   0.41850   0.08258   0.00000  Uiso   1.00
H42    H     0.69255   0.57148   0.19308   0.00000  Uiso   1.00
C43    C     0.78356   0.56418   0.71696   0.00000  Uiso   1.00
O44    O     0.92054   0.57338   0.58370   0.00000  Uiso   1.00
H45    H     0.80848   0.42109   0.69317   0.00000  Uiso   1.00
C46    C     0.28460   0.06433   0.21787   0.00000  Uiso   1.00
O47    O     0.42062   0.07495   0.08463   0.00000  Uiso   1.00
H48    H     0.30950   0.92173   0.19360   0.00000  Uiso   1.00
Al49   Al    0.00127   0.49458   0.50093   0.00000  Uiso   1.00
Al50   Al    0.50021  -0.00359   0.00072   0.00000  Uiso   1.00
Al51   Al    0.00100  -0.00485   0.50031   0.00000  Uiso   1.00
Al52   Al    0.50004   0.49638   0.00040   0.00000  Uiso   1.00
O53    O     0.00339   0.74456   0.44919   0.00000  Uiso   1.00
O54    O     0.49828   0.24616   0.94921   0.00000  Uiso   1.00
O55    O     0.00294   0.24460   0.55192   0.00000  Uiso   1.00
O56    O     0.49957   0.74618   0.05199   0.00000  Uiso   1.00
C57    C     0.68240   0.24727   0.18287   0.00000  Uiso   1.00
C58    C     0.61065   0.24714   0.11180   0.00000  Uiso   1.00
C59    C     0.18111   0.74650   0.68495   0.00000  Uiso   1.00
C60    C     0.10966   0.74595   0.61402   0.00000  Uiso   1.00
C61    C     0.31984   0.24621   0.18450   0.00000  Uiso   1.00
C62    C     0.39149   0.24649   0.11377   0.00000  Uiso   1.00
C63    C     0.81895   0.74548   0.68299   0.00000  Uiso   1.00
C64    C     0.89112   0.74508   0.61241   0.00000  Uiso   1.00
C65    C     0.31892   0.74710   0.81776   0.00000  Uiso   1.00
C66    C     0.39047   0.74704   0.88852   0.00000  Uiso   1.00
C67    C     0.81947   0.24668   0.31727   0.00000  Uiso   1.00
C68    C     0.89109   0.24608   0.38855   0.00000  Uiso   1.00
C69    C     0.68084   0.74639   0.81599   0.00000  Uiso   1.00
C70    C     0.60929   0.74659   0.88729   0.00000  Uiso   1.00
C71    C     0.18174   0.24533   0.31692   0.00000  Uiso   1.00
C72    C     0.11049   0.24486   0.38808   0.00000  Uiso   1.00
H73    H     0.00570   0.24441   0.61384   0.00000  Uiso   1.00
H74    H     0.00693   0.74436   0.38739   0.00000  Uiso   1.00
H75    H     0.49850   0.74597   0.11392   0.00000  Uiso   1.00
H76    H     0.49513   0.24599   0.88731   0.00000  Uiso   1.00
loop_
_geom_bond_atom_site_label_1
_geom_bond_atom_site_label_2
_geom_bond_distance
_geom_bond_site_symmetry_2
_ccdc_geom_bond_type
C1     H3      1.080   .     S
C1     C16     1.409   .     D
C1     C59     1.408   .     S
O2     Al49    1.803   .     S
O2     C60     1.294   .     D
C4     H6      1.080   1_545 S
C4     C13     1.410   .     S
C4     C57     1.410   .     D
O5     Al50    1.805   .     S
O5     C58     1.295   .     S
H6     C4      1.080   1_565 S
C7     H9      1.080   1_565 S
C7     C22     1.411   .     S
C7     C63     1.410   .     D
O8     Al51    1.804   1_665 S
O8     C64     1.293   .     S
H9     C7      1.080   1_545 S
C10    H12     1.080   .     S
C10    C19     1.410   .     S
C10    C61     1.409   .     D
O11    Al52    1.803   .     S
O11    C62     1.294   .     S
C13    H15     1.080   1_545 S
C13    C67     1.409   .     D
O14    Al51    1.805   1_655 S
O14    C68     1.295   .     D
H15    C13     1.080   1_565 S
C16    H18     1.081   .     S
C16    C65     1.409   .     S
O17    Al52    1.803   1_556 S
O17    C66     1.293   .     S
C19    H21     1.080   .     S
C19    C71     1.409   .     D
O20    Al49    1.803   .     S
O20    C72     1.295   .     D
C22    H24     1.081   1_565 S
C22    C69     1.410   .     D
O23    Al50    1.807   1_566 S
O23    C70     1.295   .     S
H24    C22     1.081   1_545 S
C25    H27     1.081   .     S
C25    C40     1.411   .     D
C25    C67     1.410   .     S
O26    Al49    1.806   1_655 S
O26    C68     1.295   .     S
C28    H30     1.081   1_565 S
C28    C37     1.410   .     S
C28    C65     1.408   .     D
O29    Al50    1.803   1_566 S
O29    C66     1.293   .     D
H30    C28     1.081   1_545 S
C31    H33     1.081   1_545 S
C31    C46     1.410   .     D
C31    C71     1.409   .     S
O32    Al51    1.804   .     S
O32    C72     1.294   .     S
H33    C31     1.081   1_565 S
C34    H36     1.080   .     S
C34    C43     1.411   .     D
C34    C69     1.409   .     S
O35    Al52    1.807   1_556 S
O35    C70     1.295   .     D
C37    H39     1.080   1_565 S
C37    C59     1.409   .     D
O38    Al51    1.804   1_565 S
O38    C60     1.294   .     S
H39    C37     1.080   1_545 S
C40    H42     1.080   .     S
C40    C57     1.410   .     S
O41    Al52    1.804   .     S
O41    C58     1.294   .     D
C43    H45     1.081   .     S
C43    C63     1.410   .     S
O44    Al49    1.805   1_655 S
O44    C64     1.295   .     D
C46    H48     1.080   1_545 S
C46    C61     1.409   .     S
O47    Al50    1.802   .     S
O47    C62     1.294   .     D
H48    C46     1.080   1_565 S
Al49   O26     1.806   1_455 S
Al49   O44     1.805   1_455 S
Al49   O53     1.808   .     S
Al49   O55     1.803   .     S
Al50   O23     1.807   1_544 S
Al50   O29     1.803   1_544 S
Al50   O54     1.805   1_554 S
Al50   O56     1.806   1_545 S
Al51   O14     1.805   1_455 S
Al51   O8      1.804   1_445 S
Al51   O38     1.804   1_545 S
Al51   O53     1.808   1_545 S
Al51   O55     1.804   .     S
Al52   O17     1.803   1_554 S
Al52   O35     1.807   1_554 S
Al52   O54     1.806   1_554 S
Al52   O56     1.805   .     S
O53    Al51    1.808   1_565 S
O53    H74     0.862   .     S
O54    Al50    1.805   1_556 S
O54    Al52    1.806   1_556 S
O54    H76     0.863   .     S
O55    H73     0.863   .     S
O56    Al50    1.806   1_565 S
O56    H75     0.862   .     S
C57    C58     1.513   .     S
C59    C60     1.508   .     S
C61    C62     1.508   .     S
C63    C64     1.513   .     S
C65    C66     1.508   .     S
C67    C68     1.513   .     S
C69    C70     1.512   .     S
C71    C72     1.507   .     S
