data_image0
_cell_length_a       15.2978
_cell_length_b       15.5927
_cell_length_c       22.148
_cell_angle_alpha    88.841
_cell_angle_beta     86.538
_cell_angle_gamma    62.085

_symmetry_space_group_name_H-M    P 1
_symmetry_int_tables_number       1

loop_
  _symmetry_equiv_pos_as_xyz
  'x, y, z'

loop_
  _atom_site_label
  _atom_site_occupancy
  _atom_site_fract_x
  _atom_site_fract_y
  _atom_site_fract_z
  _atom_site_thermal_displace_type
  _atom_site_B_iso_or_equiv
  _atom_site_type_symbol
  H1       1.0000 0.67620  0.21390  0.93220  Biso   1.000  H
  H2       1.0000 0.49500  0.36780  0.83640  Biso   1.000  H
  H3       1.0000 0.49310  0.39870  0.90280  Biso   1.000  H
  H4       1.0000 0.51490  0.29350  0.88810  Biso   1.000  H
  H5       1.0000 0.62520  0.40840  0.79750  Biso   1.000  H
  H6       1.0000 0.79160  0.36240  0.78640  Biso   1.000  H
  H7       1.0000 0.90330  0.24450  0.84890  Biso   1.000  H
  H8       1.0000 0.09340  0.88410  0.79890  Biso   1.000  H
  H9       1.0000 0.11230  0.85980  0.68850  Biso   1.000  H
  H10      1.0000 0.09390  0.78020  0.65960  Biso   1.000  H
  H11      1.0000 0.19190  0.75170  0.69070  Biso   1.000  H
  H12      1.0000 0.04240  0.68040  0.72170  Biso   1.000  H
  H13      1.0000 0.97540  0.65750  0.81420  Biso   1.000  H
  H14      1.0000 0.96650  0.74760  0.89920  Biso   1.000  H
  H15      1.0000 0.95590  0.45270  0.86330  Biso   1.000  H
  H16      1.0000 0.81220  0.51670  0.93800  Biso   1.000  H
  H17      1.0000 0.75690  0.46910  0.90740  Biso   1.000  H
  H18      1.0000 0.70620  0.58070  0.91680  Biso   1.000  H
  H19      1.0000 0.67840  0.62040  0.80950  Biso   1.000  H
  H20      1.0000 0.74360  0.64290  0.71650  Biso   1.000  H
  H21      1.0000 0.91430  0.57430  0.69690  Biso   1.000  H
  H22      1.0000 0.28050  0.07450  0.69010  Biso   1.000  H
  H23      1.0000 0.28060  0.92070  0.66960  Biso   1.000  H
  H24      1.0000 0.38240  0.87350  0.63340  Biso   1.000  H
  H25      1.0000 0.28830  0.88560  0.60350  Biso   1.000  H
  H26      1.0000 0.30220  0.98170  0.51850  Biso   1.000  H
  H27      1.0000 0.27780  0.13220  0.48230  Biso   1.000  H
  H28      1.0000 0.25390  0.25580  0.55010  Biso   1.000  H
  H29      1.0000 0.59620  0.16090  0.77370  Biso   1.000  H
  H30      1.0000 0.76680  0.07090  0.80620  Biso   1.000  H
  H31      1.0000 0.85420  0.06960  0.76610  Biso   1.000  H
  H32      1.0000 0.80670  0.00550  0.74870  Biso   1.000  H
  H33      1.0000 0.82650  0.15670  0.67160  Biso   1.000  H
  H34      1.0000 0.71540  0.28330  0.61320  Biso   1.000  H
  H35      1.0000 0.54480  0.35000  0.63540  Biso   1.000  H
  H36      1.0000 0.28570  0.66200  0.79150  Biso   1.000  H
  H37      1.0000 0.28150  0.81870  0.80810  Biso   1.000  H
  H38      1.0000 0.38280  0.77800  0.83730  Biso   1.000  H
  H39      1.0000 0.28700  0.85170  0.87280  Biso   1.000  H
  H40      1.0000 0.30610  0.74590  0.95920  Biso   1.000  H
  H41      1.0000 0.28890  0.61600  0.00040  Biso   1.000  H
  H42      1.0000 0.27260  0.50600  0.93740  Biso   1.000  H
  H43      1.0000 0.68000  0.06620  0.58720  Biso   1.000  H
  H44      1.0000 0.51670  0.12320  0.63700  Biso   1.000  H
  H45      1.0000 0.49590  0.06070  0.68540  Biso   1.000  H
  H46      1.0000 0.50090  0.03680  0.61730  Biso   1.000  H
  H47      1.0000 0.62940  0.90070  0.71150  Biso   1.000  H
  H48      1.0000 0.80000  0.79710  0.71420  Biso   1.000  H
  H49      1.0000 0.91110  0.82590  0.65020  Biso   1.000  H
  H50      1.0000 0.90160  0.96440  0.30740  Biso   1.000  H
  H51      1.0000 0.82240  0.95730  0.21420  Biso   1.000  H
  H52      1.0000 0.85300  0.85850  0.18270  Biso   1.000  H
  H53      1.0000 0.92030  0.90800  0.17430  Biso   1.000  H
  H54      1.0000 0.97760  0.70780  0.22390  Biso   1.000  H
  H55      1.0000 0.06260  0.62530  0.30790  Biso   1.000  H
  H56      1.0000 0.06760  0.71110  0.39140  Biso   1.000  H
  H57      1.0000 0.32380  0.78610  0.06780  Biso   1.000  H
  H58      1.0000 0.50500  0.63220  0.16360  Biso   1.000  H
  H59      1.0000 0.50690  0.60130  0.09720  Biso   1.000  H
  H60      1.0000 0.48510  0.70650  0.11190  Biso   1.000  H
  H61      1.0000 0.37480  0.59160  0.20250  Biso   1.000  H
  H62      1.0000 0.20840  0.63760  0.21360  Biso   1.000  H
  H63      1.0000 0.09670  0.75550  0.15110  Biso   1.000  H
  H64      1.0000 0.90660  0.11590  0.20110  Biso   1.000  H
  H65      1.0000 0.88770  0.14020  0.31150  Biso   1.000  H
  H66      1.0000 0.90610  0.21980  0.34040  Biso   1.000  H
  H67      1.0000 0.80810  0.24830  0.30930  Biso   1.000  H
  H68      1.0000 0.95760  0.31960  0.27830  Biso   1.000  H
  H69      1.0000 0.02460  0.34250  0.18580  Biso   1.000  H
  H70      1.0000 0.03350  0.25240  0.10080  Biso   1.000  H
  H71      1.0000 0.04410  0.54730  0.13670  Biso   1.000  H
  H72      1.0000 0.18780  0.48330  0.06200  Biso   1.000  H
  H73      1.0000 0.24310  0.53090  0.09260  Biso   1.000  H
  H74      1.0000 0.29380  0.41930  0.08320  Biso   1.000  H
  H75      1.0000 0.32160  0.37960  0.19050  Biso   1.000  H
  H76      1.0000 0.25640  0.35710  0.28350  Biso   1.000  H
  H77      1.0000 0.08570  0.42570  0.30310  Biso   1.000  H
  H78      1.0000 0.71950  0.92550  0.30990  Biso   1.000  H
  H79      1.0000 0.71940  0.07930  0.33040  Biso   1.000  H
  H80      1.0000 0.61760  0.12650  0.36660  Biso   1.000  H
  H81      1.0000 0.71170  0.11440  0.39650  Biso   1.000  H
  H82      1.0000 0.69780  0.01830  0.48150  Biso   1.000  H
  H83      1.0000 0.72220  0.86780  0.51770  Biso   1.000  H
  H84      1.0000 0.74610  0.74420  0.44990  Biso   1.000  H
  H85      1.0000 0.40380  0.83910  0.22630  Biso   1.000  H
  H86      1.0000 0.23320  0.92910  0.19380  Biso   1.000  H
  H87      1.0000 0.14580  0.93040  0.23390  Biso   1.000  H
  H88      1.0000 0.19330  0.99450  0.25130  Biso   1.000  H
  H89      1.0000 0.17350  0.84330  0.32840  Biso   1.000  H
  H90      1.0000 0.28460  0.71670  0.38680  Biso   1.000  H
  H91      1.0000 0.45520  0.65000  0.36460  Biso   1.000  H
  H92      1.0000 0.71430  0.33800  0.20850  Biso   1.000  H
  H93      1.0000 0.71850  0.18130  0.19190  Biso   1.000  H
  H94      1.0000 0.61720  0.22200  0.16270  Biso   1.000  H
  H95      1.0000 0.71300  0.14830  0.12720  Biso   1.000  H
  H96      1.0000 0.69390  0.25410  0.04080  Biso   1.000  H
  H97      1.0000 0.71110  0.38400  0.99960  Biso   1.000  H
  H98      1.0000 0.72740  0.49400  0.06260  Biso   1.000  H
  H99      1.0000 0.32000  0.93380  0.41280  Biso   1.000  H
  H100     1.0000 0.48330  0.87680  0.36300  Biso   1.000  H
  H101     1.0000 0.50410  0.93930  0.31460  Biso   1.000  H
  H102     1.0000 0.49910  0.96320  0.38270  Biso   1.000  H
  H103     1.0000 0.37060  0.09930  0.28850  Biso   1.000  H
  H104     1.0000 0.20000  0.20290  0.28580  Biso   1.000  H
  H105     1.0000 0.08890  0.17410  0.34980  Biso   1.000  H
  H106     1.0000 0.09840  0.03560  0.69260  Biso   1.000  H
  H107     1.0000 0.17760  0.04270  0.78580  Biso   1.000  H
  H108     1.0000 0.14700  0.14150  0.81730  Biso   1.000  H
  H109     1.0000 0.07970  0.09200  0.82570  Biso   1.000  H
  H110     1.0000 0.02240  0.29220  0.77610  Biso   1.000  H
  H111     1.0000 0.93740  0.37470  0.69210  Biso   1.000  H
  H112     1.0000 0.93240  0.28890  0.60860  Biso   1.000  H
  Ru1      1.0000 0.06184  0.01376  0.97816  Biso   1.000  Ru
  Ru2      1.0000 0.26521  0.33041  0.78405  Biso   1.000  Ru
  Ru3      1.0000 0.24170  0.43371  0.70493  Biso   1.000  Ru
  Ru4      1.0000 0.06439  0.93138  0.51733  Biso   1.000  Ru
  Ru5      1.0000 0.93816  0.98624  0.02184  Biso   1.000  Ru
  Ru6      1.0000 0.73479  0.66959  0.21595  Biso   1.000  Ru
  Ru7      1.0000 0.75830  0.56629  0.29507  Biso   1.000  Ru
  Ru8      1.0000 0.93561  0.06862  0.48267  Biso   1.000  Ru
  C1       1.0000 0.87120  0.14200  0.93570  Biso   1.000  C
  C2       1.0000 0.80100  0.21830  0.89672  Biso   1.000  C
  C3       1.0000 0.69970  0.24540  0.90312  Biso   1.000  C
  C4       1.0000 0.63270  0.31700  0.86690  Biso   1.000  C
  C5       1.0000 0.52380  0.34780  0.87450  Biso   1.000  C
  C6       1.0000 0.66920  0.35960  0.82320  Biso   1.000  C
  C7       1.0000 0.76880  0.33220  0.81630  Biso   1.000  C
  C8       1.0000 0.83500  0.26230  0.85340  Biso   1.000  C
  C9       1.0000 0.02260  0.88330  0.90977  Biso   1.000  C
  C10      1.0000 0.02920  0.82430  0.85680  Biso   1.000  C
  C11      1.0000 0.06940  0.83770  0.80174  Biso   1.000  C
  C12      1.0000 0.07560  0.78390  0.75103  Biso   1.000  C
  C13      1.0000 0.12230  0.79530  0.69208  Biso   1.000  C
  C14      1.0000 0.03950  0.71730  0.75637  Biso   1.000  C
  C15      1.0000 0.99900  0.70410  0.81110  Biso   1.000  C
  C16      1.0000 0.99370  0.75750  0.86149  Biso   1.000  C
  C17      1.0000 0.24740  0.05890  0.93595  Biso   1.000  C
  C18      1.0000 0.31790  0.09250  0.93372  Biso   1.000  C
  C19      1.0000 0.29770  0.17150  0.89494  Biso   1.000  C
  C20      1.0000 0.40710  0.04660  0.96685  Biso   1.000  C
  C21      1.0000 0.45550  0.94760  0.97957  Biso   1.000  C
  C22      1.0000 0.54640  0.90100  0.01113  Biso   1.000  C
  C23      1.0000 0.06010  0.46100  0.76619  Biso   1.000  C
  C24      1.0000 0.95130  0.50560  0.77816  Biso   1.000  C
  C25      1.0000 0.91180  0.49200  0.83389  Biso   1.000  C
  C26      1.0000 0.81090  0.53510  0.84698  Biso   1.000  C
  C27      1.0000 0.76750  0.52410  0.90760  Biso   1.000  C
  C28      1.0000 0.74840  0.59120  0.80220  Biso   1.000  C
  C29      1.0000 0.78650  0.60550  0.74660  Biso   1.000  C
  C30      1.0000 0.88800  0.56340  0.73450  Biso   1.000  C
  C31      1.0000 0.25410  0.25210  0.66987  Biso   1.000  C
  C32      1.0000 0.26510  0.17690  0.62678  Biso   1.000  C
  C33      1.0000 0.28030  0.08570  0.64781  Biso   1.000  C
  C34      1.0000 0.29480  0.01220  0.60799  Biso   1.000  C
  C35      1.0000 0.31360  0.91370  0.63050  Biso   1.000  C
  C36      1.0000 0.29330  0.03130  0.54650  Biso   1.000  C
  C37      1.0000 0.27750  0.12110  0.52492  Biso   1.000  C
  C38      1.0000 0.26370  0.19400  0.56491  Biso   1.000  C
  C39      1.0000 0.44640  0.30430  0.72141  Biso   1.000  C
  C40      1.0000 0.55500  0.26190  0.70763  Biso   1.000  C
  C41      1.0000 0.62070  0.18630  0.74134  Biso   1.000  C
  C42      1.0000 0.72260  0.14700  0.72920  Biso   1.000  C
  C43      1.0000 0.79400  0.06600  0.76560  Biso   1.000  C
  C44      1.0000 0.75700  0.18360  0.68090  Biso   1.000  C
  C45      1.0000 0.69110  0.25880  0.64630  Biso   1.000  C
  C46      1.0000 0.59020  0.29830  0.65920  Biso   1.000  C
  C47      1.0000 0.26500  0.50700  0.81773  Biso   1.000  C
  C48      1.0000 0.27630  0.57460  0.85866  Biso   1.000  C
  C49      1.0000 0.28690  0.65260  0.83397  Biso   1.000  C
  C50      1.0000 0.29890  0.71670  0.87110  Biso   1.000  C
  C51      1.0000 0.31320  0.79910  0.84500  Biso   1.000  C
  C52      1.0000 0.29870  0.70240  0.93325  Biso   1.000  C
  C53      1.0000 0.28870  0.62480  0.95775  Biso   1.000  C
  C54      1.0000 0.27840  0.56000  0.92062  Biso   1.000  C
  C55      1.0000 0.25620  0.56910  0.59502  Biso   1.000  C
  C56      1.0000 0.29880  0.61230  0.55591  Biso   1.000  C
  C57      1.0000 0.24120  0.71260  0.54962  Biso   1.000  C
  C58      1.0000 0.39710  0.55730  0.52752  Biso   1.000  C
  C59      1.0000 0.44460  0.45520  0.52191  Biso   1.000  C
  C60      1.0000 0.54470  0.39950  0.49504  Biso   1.000  C
  C61      1.0000 0.87510  0.96610  0.57129  Biso   1.000  C
  C62      1.0000 0.80540  0.94860  0.61225  Biso   1.000  C
  C63      1.0000 0.70430  0.01080  0.61232  Biso   1.000  C
  C64      1.0000 0.63740  0.99260  0.64903  Biso   1.000  C
  C65      1.0000 0.52800  0.05890  0.64730  Biso   1.000  C
  C66      1.0000 0.67490  0.91320  0.68630  Biso   1.000  C
  C67      1.0000 0.77630  0.85140  0.68790  Biso   1.000  C
  C68      1.0000 0.84180  0.86870  0.65023  Biso   1.000  C
  C69      1.0000 0.98660  0.90090  0.40950  Biso   1.000  C
  C70      1.0000 0.98450  0.84550  0.35683  Biso   1.000  C
  C71      1.0000 0.93410  0.89520  0.30692  Biso   1.000  C
  C72      1.0000 0.93120  0.84490  0.25624  Biso   1.000  C
  C73      1.0000 0.87680  0.89730  0.20199  Biso   1.000  C
  C74      1.0000 0.97920  0.74400  0.25745  Biso   1.000  C
  C75      1.0000 0.02960  0.69460  0.30787  Biso   1.000  C
  C76      1.0000 0.03270  0.74500  0.35716  Biso   1.000  C
  C77      1.0000 0.12880  0.85800  0.06430  Biso   1.000  C
  C78      1.0000 0.19900  0.78170  0.10328  Biso   1.000  C
  C79      1.0000 0.30030  0.75460  0.09688  Biso   1.000  C
  C80      1.0000 0.36730  0.68300  0.13310  Biso   1.000  C
  C81      1.0000 0.47620  0.65220  0.12550  Biso   1.000  C
  C82      1.0000 0.33080  0.64040  0.17680  Biso   1.000  C
  C83      1.0000 0.23120  0.66780  0.18370  Biso   1.000  C
  C84      1.0000 0.16500  0.73770  0.14660  Biso   1.000  C
  C85      1.0000 0.97740  0.11670  0.09023  Biso   1.000  C
  C86      1.0000 0.97080  0.17570  0.14320  Biso   1.000  C
  C87      1.0000 0.93060  0.16230  0.19826  Biso   1.000  C
  C88      1.0000 0.92440  0.21610  0.24897  Biso   1.000  C
  C89      1.0000 0.87770  0.20470  0.30792  Biso   1.000  C
  C90      1.0000 0.96050  0.28270  0.24363  Biso   1.000  C
  C91      1.0000 0.00100  0.29590  0.18890  Biso   1.000  C
  C92      1.0000 0.00630  0.24250  0.13851  Biso   1.000  C
  C93      1.0000 0.75260  0.94110  0.06405  Biso   1.000  C
  C94      1.0000 0.68210  0.90750  0.06628  Biso   1.000  C
  C95      1.0000 0.70230  0.82850  0.10506  Biso   1.000  C
  C96      1.0000 0.59290  0.95340  0.03315  Biso   1.000  C
  C97      1.0000 0.54450  0.05240  0.02043  Biso   1.000  C
  C98      1.0000 0.45360  0.09900  0.98887  Biso   1.000  C
  C99      1.0000 0.93990  0.53900  0.23381  Biso   1.000  C
  C100     1.0000 0.04870  0.49440  0.22184  Biso   1.000  C
  C101     1.0000 0.08820  0.50800  0.16611  Biso   1.000  C
  C102     1.0000 0.18910  0.46490  0.15302  Biso   1.000  C
  C103     1.0000 0.23250  0.47590  0.09240  Biso   1.000  C
  C104     1.0000 0.25160  0.40880  0.19780  Biso   1.000  C
  C105     1.0000 0.21350  0.39450  0.25340  Biso   1.000  C
  C106     1.0000 0.11200  0.43660  0.26550  Biso   1.000  C
  C107     1.0000 0.74590  0.74790  0.33013  Biso   1.000  C
  C108     1.0000 0.73490  0.82310  0.37322  Biso   1.000  C
  C109     1.0000 0.71970  0.91430  0.35219  Biso   1.000  C
  C110     1.0000 0.70520  0.98780  0.39201  Biso   1.000  C
  C111     1.0000 0.68640  0.08630  0.36950  Biso   1.000  C
  C112     1.0000 0.70670  0.96870  0.45350  Biso   1.000  C
  C113     1.0000 0.72250  0.87890  0.47508  Biso   1.000  C
  C114     1.0000 0.73630  0.80600  0.43509  Biso   1.000  C
  C115     1.0000 0.55360  0.69570  0.27859  Biso   1.000  C
  C116     1.0000 0.44500  0.73810  0.29237  Biso   1.000  C
  C117     1.0000 0.37930  0.81370  0.25866  Biso   1.000  C
  C118     1.0000 0.27740  0.85300  0.27080  Biso   1.000  C
  C119     1.0000 0.20600  0.93400  0.23440  Biso   1.000  C
  C120     1.0000 0.24300  0.81640  0.31910  Biso   1.000  C
  C121     1.0000 0.30890  0.74120  0.35370  Biso   1.000  C
  C122     1.0000 0.40980  0.70170  0.34080  Biso   1.000  C
  C123     1.0000 0.73500  0.49300  0.18227  Biso   1.000  C
  C124     1.0000 0.72370  0.42540  0.14134  Biso   1.000  C
  C125     1.0000 0.71310  0.34740  0.16603  Biso   1.000  C
  C126     1.0000 0.70110  0.28330  0.12890  Biso   1.000  C
  C127     1.0000 0.68680  0.20090  0.15500  Biso   1.000  C
  C128     1.0000 0.70130  0.29760  0.06675  Biso   1.000  C
  C129     1.0000 0.71130  0.37520  0.04225  Biso   1.000  C
  C130     1.0000 0.72160  0.44000  0.07938  Biso   1.000  C
  C131     1.0000 0.74380  0.43090  0.40498  Biso   1.000  C
  C132     1.0000 0.70120  0.38770  0.44409  Biso   1.000  C
  C133     1.0000 0.75880  0.28740  0.45038  Biso   1.000  C
  C134     1.0000 0.60290  0.44270  0.47248  Biso   1.000  C
  C135     1.0000 0.55540  0.54480  0.47809  Biso   1.000  C
  C136     1.0000 0.45530  0.60050  0.50496  Biso   1.000  C
  C137     1.0000 0.12490  0.03390  0.42871  Biso   1.000  C
  C138     1.0000 0.19460  0.05140  0.38775  Biso   1.000  C
  C139     1.0000 0.29570  0.98920  0.38768  Biso   1.000  C
  C140     1.0000 0.36260  0.00740  0.35097  Biso   1.000  C
  C141     1.0000 0.47200  0.94110  0.35270  Biso   1.000  C
  C142     1.0000 0.32510  0.08680  0.31370  Biso   1.000  C
  C143     1.0000 0.22370  0.14860  0.31210  Biso   1.000  C
  C144     1.0000 0.15820  0.13130  0.34977  Biso   1.000  C
  C145     1.0000 0.01340  0.09910  0.59050  Biso   1.000  C
  C146     1.0000 0.01550  0.15450  0.64317  Biso   1.000  C
  C147     1.0000 0.06590  0.10480  0.69308  Biso   1.000  C
  C148     1.0000 0.06880  0.15510  0.74376  Biso   1.000  C
  C149     1.0000 0.12320  0.10270  0.79801  Biso   1.000  C
  C150     1.0000 0.02080  0.25600  0.74255  Biso   1.000  C
  C151     1.0000 0.97040  0.30540  0.69213  Biso   1.000  C
  C152     1.0000 0.96730  0.25500  0.64284  Biso   1.000  C
  S1       1.0000 0.50717  0.77784  0.98225  Biso   1.000  S
  S2       1.0000 0.48217  0.28877  0.52111  Biso   1.000  S
  S3       1.0000 0.49283  0.22216  0.01775  Biso   1.000  S
  S4       1.0000 0.51783  0.71123  0.47889  Biso   1.000  S
  N1       1.0000 0.18710  0.03420  0.93841  Biso   1.000  N
  N2       1.0000 0.42520  0.88250  0.96092  Biso   1.000  N
  N3       1.0000 0.58260  0.80340  0.01543  Biso   1.000  N
  N4       1.0000 0.28130  0.23320  0.86177  Biso   1.000  N
  N5       1.0000 0.22040  0.53510  0.62805  Biso   1.000  N
  N6       1.0000 0.40200  0.39830  0.53811  Biso   1.000  N
  N7       1.0000 0.57360  0.30250  0.49232  Biso   1.000  N
  N8       1.0000 0.19000  0.79480  0.54648  Biso   1.000  N
  N9       1.0000 0.81290  0.96580  0.06159  Biso   1.000  N
  N10      1.0000 0.57480  0.11750  0.03908  Biso   1.000  N
  N11      1.0000 0.41740  0.19660  0.98457  Biso   1.000  N
  N12      1.0000 0.71870  0.76680  0.13823  Biso   1.000  N
  N13      1.0000 0.77960  0.46490  0.37195  Biso   1.000  N
  N14      1.0000 0.59800  0.60170  0.46189  Biso   1.000  N
  N15      1.0000 0.42640  0.69750  0.50768  Biso   1.000  N
  N16      1.0000 0.81000  0.20520  0.45352  Biso   1.000  N
  O1       1.0000 0.96172  0.12374  0.93030  Biso   1.000  O
  O2       1.0000 0.83971  0.09745  0.97249  Biso   1.000  O
  O3       1.0000 0.07799  0.92401  0.90964  Biso   1.000  O
  O4       1.0000 0.95971  0.89350  0.95333  Biso   1.000  O
  O5       1.0000 0.11576  0.39292  0.80021  Biso   1.000  O
  O6       1.0000 0.09331  0.49182  0.72158  Biso   1.000  O
  O7       1.0000 0.26331  0.23223  0.72610  Biso   1.000  O
  O8       1.0000 0.23895  0.33470  0.64885  Biso   1.000  O
  O9       1.0000 0.41425  0.27124  0.76571  Biso   1.000  O
  O10      1.0000 0.38937  0.37346  0.68829  Biso   1.000  O
  O11      1.0000 0.27102  0.42801  0.83990  Biso   1.000  O
  O12      1.0000 0.25068  0.52824  0.76219  Biso   1.000  O
  O13      1.0000 0.96736  0.90587  0.57086  Biso   1.000  O
  O14      1.0000 0.84048  0.04069  0.53680  Biso   1.000  O
  O15      1.0000 0.05099  0.85585  0.44851  Biso   1.000  O
  O16      1.0000 0.92571  0.99104  0.41411  Biso   1.000  O
  O17      1.0000 0.03828  0.87626  0.06970  Biso   1.000  O
  O18      1.0000 0.16029  0.90255  0.02751  Biso   1.000  O
  O19      1.0000 0.92201  0.07599  0.09036  Biso   1.000  O
  O20      1.0000 0.04029  0.10650  0.04667  Biso   1.000  O
  O21      1.0000 0.88424  0.60708  0.19979  Biso   1.000  O
  O22      1.0000 0.90669  0.50818  0.27842  Biso   1.000  O
  O23      1.0000 0.73669  0.76777  0.27390  Biso   1.000  O
  O24      1.0000 0.76105  0.66530  0.35115  Biso   1.000  O
  O25      1.0000 0.58575  0.72876  0.23429  Biso   1.000  O
  O26      1.0000 0.61063  0.62654  0.31171  Biso   1.000  O
  O27      1.0000 0.72898  0.57199  0.16010  Biso   1.000  O
  O28      1.0000 0.74932  0.47176  0.23781  Biso   1.000  O
  O29      1.0000 0.03264  0.09413  0.42914  Biso   1.000  O
  O30      1.0000 0.15952  0.95931  0.46320  Biso   1.000  O
  O31      1.0000 0.94901  0.14415  0.55149  Biso   1.000  O
  O32      1.0000 0.07429  0.00896  0.58589  Biso   1.000  O
