data_image0
_cell_length_a       11.6335
_cell_length_b       16.7961
_cell_length_c       18.1575
_cell_angle_alpha    90
_cell_angle_beta     90
_cell_angle_gamma    90

_symmetry_space_group_name_H-M    P 1
_symmetry_int_tables_number       1

loop_
  _symmetry_equiv_pos_as_xyz
  'x, y, z'

loop_
  _atom_site_label
  _atom_site_occupancy
  _atom_site_fract_x
  _atom_site_fract_y
  _atom_site_fract_z
  _atom_site_thermal_displace_type
  _atom_site_B_iso_or_equiv
  _atom_site_type_symbol
  Mn1      1.0000 0.50000  0.89026  0.18434  Biso   1.000  Mn
  Mn2      1.0000 0.50000  0.10974  0.81566  Biso   1.000  Mn
  Mn3      1.0000 0.50000  0.60974  0.68434  Biso   1.000  Mn
  Mn4      1.0000 0.50000  0.39026  0.31566  Biso   1.000  Mn
  Mn5      1.0000 0.50000  0.50000  0.00000  Biso   1.000  Mn
  Mn6      1.0000 0.50000  0.00000  0.50000  Biso   1.000  Mn
  Cr1      1.0000 0.50000  0.80360  0.90096  Biso   1.000  Cr
  Cr2      1.0000 0.50000  0.19640  0.09904  Biso   1.000  Cr
  Cr3      1.0000 0.50000  0.69640  0.40096  Biso   1.000  Cr
  Cr4      1.0000 0.50000  0.30360  0.59904  Biso   1.000  Cr
  H1       1.0000 0.71420  0.82910  0.27630  Biso   1.000  H
  H2       1.0000 0.91220  0.83090  0.28130  Biso   1.000  H
  H3       1.0000 0.91020  0.96010  0.09700  Biso   1.000  H
  H4       1.0000 0.71260  0.95360  0.09710  Biso   1.000  H
  H5       1.0000 0.71610  0.57560  0.92140  Biso   1.000  H
  H6       1.0000 0.91330  0.57710  0.91870  Biso   1.000  H
  H7       1.0000 0.55650  0.40250  0.87320  Biso   1.000  H
  H8       1.0000 0.71420  0.17090  0.72370  Biso   1.000  H
  H9       1.0000 0.91220  0.16910  0.71870  Biso   1.000  H
  H10      1.0000 0.91020  0.03990  0.90300  Biso   1.000  H
  H11      1.0000 0.71260  0.04640  0.90290  Biso   1.000  H
  H12      1.0000 0.71610  0.42440  0.07860  Biso   1.000  H
  H13      1.0000 0.91330  0.42290  0.08130  Biso   1.000  H
  H14      1.0000 0.55650  0.59750  0.12680  Biso   1.000  H
  H15      1.0000 0.28580  0.67090  0.77630  Biso   1.000  H
  H16      1.0000 0.08780  0.66910  0.78130  Biso   1.000  H
  H17      1.0000 0.08980  0.53990  0.59700  Biso   1.000  H
  H18      1.0000 0.28740  0.54640  0.59710  Biso   1.000  H
  H19      1.0000 0.28390  0.92440  0.42140  Biso   1.000  H
  H20      1.0000 0.08670  0.92290  0.41870  Biso   1.000  H
  H21      1.0000 0.44350  0.09750  0.37320  Biso   1.000  H
  H22      1.0000 0.28580  0.32910  0.22370  Biso   1.000  H
  H23      1.0000 0.08780  0.33090  0.21870  Biso   1.000  H
  H24      1.0000 0.08980  0.46010  0.40300  Biso   1.000  H
  H25      1.0000 0.28740  0.45360  0.40290  Biso   1.000  H
  H26      1.0000 0.28390  0.07560  0.57860  Biso   1.000  H
  H27      1.0000 0.08670  0.07710  0.58130  Biso   1.000  H
  H28      1.0000 0.44350  0.90250  0.62680  Biso   1.000  H
  H29      1.0000 0.28580  0.17090  0.72370  Biso   1.000  H
  H30      1.0000 0.08780  0.16910  0.71870  Biso   1.000  H
  H31      1.0000 0.08980  0.03990  0.90300  Biso   1.000  H
  H32      1.0000 0.28740  0.04640  0.90290  Biso   1.000  H
  H33      1.0000 0.28390  0.42440  0.07860  Biso   1.000  H
  H34      1.0000 0.08670  0.42290  0.08130  Biso   1.000  H
  H35      1.0000 0.44350  0.59750  0.12680  Biso   1.000  H
  H36      1.0000 0.28580  0.82910  0.27630  Biso   1.000  H
  H37      1.0000 0.08780  0.83090  0.28130  Biso   1.000  H
  H38      1.0000 0.08980  0.96010  0.09700  Biso   1.000  H
  H39      1.0000 0.28740  0.95360  0.09710  Biso   1.000  H
  H40      1.0000 0.28390  0.57560  0.92140  Biso   1.000  H
  H41      1.0000 0.08670  0.57710  0.91870  Biso   1.000  H
  H42      1.0000 0.44350  0.40250  0.87320  Biso   1.000  H
  H43      1.0000 0.71420  0.32910  0.22370  Biso   1.000  H
  H44      1.0000 0.91220  0.33090  0.21870  Biso   1.000  H
  H45      1.0000 0.91020  0.46010  0.40300  Biso   1.000  H
  H46      1.0000 0.71260  0.45360  0.40290  Biso   1.000  H
  H47      1.0000 0.71610  0.07560  0.57860  Biso   1.000  H
  H48      1.0000 0.91330  0.07710  0.58130  Biso   1.000  H
  H49      1.0000 0.55650  0.90250  0.62680  Biso   1.000  H
  H50      1.0000 0.71420  0.67090  0.77630  Biso   1.000  H
  H51      1.0000 0.91220  0.66910  0.78130  Biso   1.000  H
  H52      1.0000 0.91020  0.53990  0.59700  Biso   1.000  H
  H53      1.0000 0.71260  0.54640  0.59710  Biso   1.000  H
  H54      1.0000 0.71610  0.92440  0.42140  Biso   1.000  H
  H55      1.0000 0.91330  0.92290  0.41870  Biso   1.000  H
  H56      1.0000 0.55650  0.09750  0.37320  Biso   1.000  H
  C1       1.0000 0.67890  0.80200  0.90230  Biso   1.000  C
  C2       1.0000 0.75440  0.85610  0.23960  Biso   1.000  C
  C3       1.0000 0.87400  0.85670  0.24310  Biso   1.000  C
  C4       1.0000 0.93510  0.89620  0.18910  Biso   1.000  C
  C5       1.0000 0.87250  0.93270  0.13440  Biso   1.000  C
  C6       1.0000 0.75320  0.92900  0.13490  Biso   1.000  C
  C7       1.0000 0.75560  0.54350  0.95460  Biso   1.000  C
  C8       1.0000 0.87560  0.54500  0.95270  Biso   1.000  C
  C9       1.0000 0.67890  0.19800  0.09770  Biso   1.000  C
  C10      1.0000 0.75440  0.14390  0.76040  Biso   1.000  C
  C11      1.0000 0.87400  0.14330  0.75690  Biso   1.000  C
  C12      1.0000 0.93510  0.10380  0.81090  Biso   1.000  C
  C13      1.0000 0.87250  0.06730  0.86560  Biso   1.000  C
  C14      1.0000 0.75320  0.07100  0.86510  Biso   1.000  C
  C15      1.0000 0.75560  0.45650  0.04540  Biso   1.000  C
  C16      1.0000 0.87560  0.45500  0.04730  Biso   1.000  C
  C17      1.0000 0.32110  0.69800  0.40230  Biso   1.000  C
  C18      1.0000 0.24560  0.64390  0.73960  Biso   1.000  C
  C19      1.0000 0.12600  0.64330  0.74310  Biso   1.000  C
  C20      1.0000 0.06490  0.60380  0.68910  Biso   1.000  C
  C21      1.0000 0.12750  0.56730  0.63440  Biso   1.000  C
  C22      1.0000 0.24680  0.57100  0.63490  Biso   1.000  C
  C23      1.0000 0.24440  0.95650  0.45460  Biso   1.000  C
  C24      1.0000 0.12440  0.95500  0.45270  Biso   1.000  C
  C25      1.0000 0.32110  0.30200  0.59770  Biso   1.000  C
  C26      1.0000 0.24560  0.35610  0.26040  Biso   1.000  C
  C27      1.0000 0.12600  0.35670  0.25690  Biso   1.000  C
  C28      1.0000 0.06490  0.39620  0.31090  Biso   1.000  C
  C29      1.0000 0.12750  0.43270  0.36560  Biso   1.000  C
  C30      1.0000 0.24680  0.42900  0.36510  Biso   1.000  C
  C31      1.0000 0.24440  0.04350  0.54540  Biso   1.000  C
  C32      1.0000 0.12440  0.04500  0.54730  Biso   1.000  C
  C33      1.0000 0.32110  0.19800  0.09770  Biso   1.000  C
  C34      1.0000 0.24560  0.14390  0.76040  Biso   1.000  C
  C35      1.0000 0.12600  0.14330  0.75690  Biso   1.000  C
  C36      1.0000 0.06490  0.10380  0.81090  Biso   1.000  C
  C37      1.0000 0.12750  0.06730  0.86560  Biso   1.000  C
  C38      1.0000 0.24680  0.07100  0.86510  Biso   1.000  C
  C39      1.0000 0.24440  0.45650  0.04540  Biso   1.000  C
  C40      1.0000 0.12440  0.45500  0.04730  Biso   1.000  C
  C41      1.0000 0.32110  0.80200  0.90230  Biso   1.000  C
  C42      1.0000 0.24560  0.85610  0.23960  Biso   1.000  C
  C43      1.0000 0.12600  0.85670  0.24310  Biso   1.000  C
  C44      1.0000 0.06490  0.89620  0.18910  Biso   1.000  C
  C45      1.0000 0.12750  0.93270  0.13440  Biso   1.000  C
  C46      1.0000 0.24680  0.92900  0.13490  Biso   1.000  C
  C47      1.0000 0.24440  0.54350  0.95460  Biso   1.000  C
  C48      1.0000 0.12440  0.54500  0.95270  Biso   1.000  C
  C49      1.0000 0.67890  0.30200  0.59770  Biso   1.000  C
  C50      1.0000 0.75440  0.35610  0.26040  Biso   1.000  C
  C51      1.0000 0.87400  0.35670  0.25690  Biso   1.000  C
  C52      1.0000 0.93510  0.39620  0.31090  Biso   1.000  C
  C53      1.0000 0.87250  0.43270  0.36560  Biso   1.000  C
  C54      1.0000 0.75320  0.42900  0.36510  Biso   1.000  C
  C55      1.0000 0.75560  0.04350  0.54540  Biso   1.000  C
  C56      1.0000 0.87560  0.04500  0.54730  Biso   1.000  C
  C57      1.0000 0.67890  0.69800  0.40230  Biso   1.000  C
  C58      1.0000 0.75440  0.64390  0.73960  Biso   1.000  C
  C59      1.0000 0.87400  0.64330  0.74310  Biso   1.000  C
  C60      1.0000 0.93510  0.60380  0.68910  Biso   1.000  C
  C61      1.0000 0.87250  0.56730  0.63440  Biso   1.000  C
  C62      1.0000 0.75320  0.57100  0.63490  Biso   1.000  C
  C63      1.0000 0.75560  0.95650  0.45460  Biso   1.000  C
  C64      1.0000 0.87560  0.95500  0.45270  Biso   1.000  C
  C65      1.0000 0.50000  0.83870  0.01040  Biso   1.000  C
  C66      1.0000 0.50000  0.68710  0.93690  Biso   1.000  C
  C67      1.0000 0.50000  0.76050  0.79500  Biso   1.000  C
  C68      1.0000 0.50000  0.91890  0.86450  Biso   1.000  C
  C69      1.0000 0.50000  0.16130  0.98960  Biso   1.000  C
  C70      1.0000 0.50000  0.31290  0.06310  Biso   1.000  C
  C71      1.0000 0.50000  0.23950  0.20500  Biso   1.000  C
  C72      1.0000 0.50000  0.08110  0.13550  Biso   1.000  C
  C73      1.0000 0.50000  0.66130  0.51040  Biso   1.000  C
  C74      1.0000 0.50000  0.81290  0.43690  Biso   1.000  C
  C75      1.0000 0.50000  0.73950  0.29500  Biso   1.000  C
  C76      1.0000 0.50000  0.58110  0.36450  Biso   1.000  C
  C77      1.0000 0.50000  0.33870  0.48960  Biso   1.000  C
  C78      1.0000 0.50000  0.18710  0.56310  Biso   1.000  C
  C79      1.0000 0.50000  0.26050  0.70500  Biso   1.000  C
  C80      1.0000 0.50000  0.41890  0.63550  Biso   1.000  C
  C81      1.0000 0.93690  0.50000  0.00000  Biso   1.000  C
  C82      1.0000 0.06310  0.00000  0.50000  Biso   1.000  C
  C83      1.0000 0.06310  0.50000  0.00000  Biso   1.000  C
  C84      1.0000 0.93690  0.00000  0.50000  Biso   1.000  C
  N1       1.0000 0.77850  0.80090  0.90460  Biso   1.000  N
  N2       1.0000 0.69510  0.89160  0.18720  Biso   1.000  N
  N3       1.0000 0.77850  0.19910  0.09540  Biso   1.000  N
  N4       1.0000 0.69510  0.10840  0.81280  Biso   1.000  N
  N5       1.0000 0.22150  0.69910  0.40460  Biso   1.000  N
  N6       1.0000 0.30490  0.60840  0.68720  Biso   1.000  N
  N7       1.0000 0.22150  0.30090  0.59540  Biso   1.000  N
  N8       1.0000 0.30490  0.39160  0.31280  Biso   1.000  N
  N9       1.0000 0.22150  0.19910  0.09540  Biso   1.000  N
  N10      1.0000 0.30490  0.10840  0.81280  Biso   1.000  N
  N11      1.0000 0.22150  0.80090  0.90460  Biso   1.000  N
  N12      1.0000 0.30490  0.89160  0.18720  Biso   1.000  N
  N13      1.0000 0.77850  0.30090  0.59540  Biso   1.000  N
  N14      1.0000 0.69510  0.39160  0.31280  Biso   1.000  N
  N15      1.0000 0.77850  0.69910  0.40460  Biso   1.000  N
  N16      1.0000 0.69510  0.60840  0.68720  Biso   1.000  N
  N17      1.0000 0.50000  0.85450  0.06960  Biso   1.000  N
  N18      1.0000 0.50000  0.61990  0.95250  Biso   1.000  N
  N19      1.0000 0.50000  0.72700  0.73880  Biso   1.000  N
  N20      1.0000 0.50000  0.98250  0.84300  Biso   1.000  N
  N21      1.0000 0.50000  0.14550  0.93040  Biso   1.000  N
  N22      1.0000 0.50000  0.38010  0.04750  Biso   1.000  N
  N23      1.0000 0.50000  0.27300  0.26120  Biso   1.000  N
  N24      1.0000 0.50000  0.01750  0.15700  Biso   1.000  N
  N25      1.0000 0.50000  0.64550  0.56960  Biso   1.000  N
  N26      1.0000 0.50000  0.88010  0.45250  Biso   1.000  N
  N27      1.0000 0.50000  0.77300  0.23880  Biso   1.000  N
  N28      1.0000 0.50000  0.51750  0.34300  Biso   1.000  N
  N29      1.0000 0.50000  0.35450  0.43040  Biso   1.000  N
  N30      1.0000 0.50000  0.11990  0.54750  Biso   1.000  N
  N31      1.0000 0.50000  0.22700  0.76120  Biso   1.000  N
  N32      1.0000 0.50000  0.48250  0.65700  Biso   1.000  N
  N33      1.0000 0.69530  0.50000  0.00000  Biso   1.000  N
  N34      1.0000 0.30470  0.00000  0.50000  Biso   1.000  N
  N35      1.0000 0.30470  0.50000  0.00000  Biso   1.000  N
  N36      1.0000 0.69530  0.00000  0.50000  Biso   1.000  N
  O1       1.0000 0.50000  0.93620  0.29890  Biso   1.000  O
  O2       1.0000 0.50000  0.43690  0.89000  Biso   1.000  O
  O3       1.0000 0.50000  0.06380  0.70110  Biso   1.000  O
  O4       1.0000 0.50000  0.56310  0.11000  Biso   1.000  O
  O5       1.0000 0.50000  0.56380  0.79890  Biso   1.000  O
  O6       1.0000 0.50000  0.06310  0.39000  Biso   1.000  O
  O7       1.0000 0.50000  0.43620  0.20110  Biso   1.000  O
  O8       1.0000 0.50000  0.93690  0.61000  Biso   1.000  O
