data_image0
_cell_length_a       9.241
_cell_length_b       9.74595
_cell_length_c       10.661
_cell_angle_alpha    67.7116
_cell_angle_beta     84.68
_cell_angle_gamma    61.7352

_symmetry_space_group_name_H-M    P 1
_symmetry_int_tables_number       1

loop_
  _symmetry_equiv_pos_as_xyz
  'x, y, z'

loop_
  _atom_site_label
  _atom_site_occupancy
  _atom_site_fract_x
  _atom_site_fract_y
  _atom_site_fract_z
  _atom_site_thermal_displace_type
  _atom_site_B_iso_or_equiv
  _atom_site_type_symbol
  Nd1      1.0000 0.77969  0.45649  0.01839  Biso   1.000  Nd
  Nd2      1.0000 0.22031  0.54351  0.98161  Biso   1.000  Nd
  H1       1.0000 0.58830  0.96270  0.12790  Biso   1.000  H
  H2       1.0000 0.56400  0.96700  0.27280  Biso   1.000  H
  H3       1.0000 0.56620  0.69980  0.38950  Biso   1.000  H
  H4       1.0000 0.63820  0.65970  0.24940  Biso   1.000  H
  H5       1.0000 0.54480  0.46230  0.38200  Biso   1.000  H
  H6       1.0000 0.36180  0.62200  0.37390  Biso   1.000  H
  H7       1.0000 0.11590  0.27710  0.43050  Biso   1.000  H
  H8       1.0000 0.17670  0.40620  0.35670  Biso   1.000  H
  H9       1.0000 0.32360  0.93990  0.26390  Biso   1.000  H
  H10      1.0000 0.37900  0.90540  0.13500  Biso   1.000  H
  H11      1.0000 0.12020  0.19750  0.03000  Biso   1.000  H
  H12      1.0000 0.05270  0.09370  0.08150  Biso   1.000  H
  H13      1.0000 0.80610  0.10920  0.18490  Biso   1.000  H
  H14      1.0000 0.65060  0.21610  0.16710  Biso   1.000  H
  H15      1.0000 0.87410  0.47790  0.46340  Biso   1.000  H
  H16      1.0000 0.90150  0.63280  0.36730  Biso   1.000  H
  H17      1.0000 0.41170  0.03730  0.87210  Biso   1.000  H
  H18      1.0000 0.43600  0.03300  0.72720  Biso   1.000  H
  H19      1.0000 0.43380  0.30020  0.61050  Biso   1.000  H
  H20      1.0000 0.36180  0.34030  0.75060  Biso   1.000  H
  H21      1.0000 0.45520  0.53770  0.61800  Biso   1.000  H
  H22      1.0000 0.63820  0.37800  0.62610  Biso   1.000  H
  H23      1.0000 0.88410  0.72290  0.56950  Biso   1.000  H
  H24      1.0000 0.82330  0.59380  0.64330  Biso   1.000  H
  H25      1.0000 0.67640  0.06010  0.73610  Biso   1.000  H
  H26      1.0000 0.62100  0.09460  0.86500  Biso   1.000  H
  H27      1.0000 0.87980  0.80250  0.97000  Biso   1.000  H
  H28      1.0000 0.94730  0.90630  0.91850  Biso   1.000  H
  H29      1.0000 0.19390  0.89080  0.81510  Biso   1.000  H
  H30      1.0000 0.34940  0.78390  0.83290  Biso   1.000  H
  H31      1.0000 0.12590  0.52210  0.53660  Biso   1.000  H
  H32      1.0000 0.09850  0.36720  0.63270  Biso   1.000  H
  C1       1.0000 0.40930  0.58520  0.19054  Biso   1.000  C
  C2       1.0000 0.51320  0.98650  0.18990  Biso   1.000  C
  C3       1.0000 0.53550  0.69940  0.29850  Biso   1.000  C
  C4       1.0000 0.99220  0.40510  0.25053  Biso   1.000  C
  C5       1.0000 0.45550  0.58730  0.32080  Biso   1.000  C
  C6       1.0000 0.07820  0.38430  0.37420  Biso   1.000  C
  C7       1.0000 0.40560  0.17480  0.12210  Biso   1.000  C
  C8       1.0000 0.42150  0.88490  0.21490  Biso   1.000  C
  C9       1.0000 0.95840  0.50550  0.43880  Biso   1.000  C
  C10      1.0000 0.59070  0.41480  0.80946  Biso   1.000  C
  C11      1.0000 0.48680  0.01350  0.81010  Biso   1.000  C
  C12      1.0000 0.46450  0.30060  0.70150  Biso   1.000  C
  C13      1.0000 0.00780  0.59490  0.74947  Biso   1.000  C
  C14      1.0000 0.54450  0.41270  0.67920  Biso   1.000  C
  C15      1.0000 0.92180  0.61570  0.62580  Biso   1.000  C
  C16      1.0000 0.59440  0.82520  0.87790  Biso   1.000  C
  C17      1.0000 0.57850  0.11510  0.78510  Biso   1.000  C
  C18      1.0000 0.04160  0.49450  0.56120  Biso   1.000  C
  O1       1.0000 0.51660  0.54890  0.11082  Biso   1.000  O
  O2       1.0000 0.02816  0.46680  0.13285  Biso   1.000  O
  O3       1.0000 0.30521  0.23722  0.01884  Biso   1.000  O
  O4       1.0000 0.26342  0.61690  0.16619  Biso   1.000  O
  O5       1.0000 0.42071  0.27039  0.16802  Biso   1.000  O
  O6       1.0000 0.87780  0.36630  0.26385  Biso   1.000  O
  O7       1.0000 0.03430  0.19250  0.03738  Biso   1.000  O
  O8       1.0000 0.74550  0.20580  0.15050  Biso   1.000  O
  O9       1.0000 0.48340  0.45110  0.88918  Biso   1.000  O
  O10      1.0000 0.97184  0.53320  0.86715  Biso   1.000  O
  O11      1.0000 0.69479  0.76278  0.98116  Biso   1.000  O
  O12      1.0000 0.73658  0.38310  0.83381  Biso   1.000  O
  O13      1.0000 0.57929  0.72961  0.83198  Biso   1.000  O
  O14      1.0000 0.12220  0.63370  0.73615  Biso   1.000  O
  O15      1.0000 0.96570  0.80750  0.96262  Biso   1.000  O
  O16      1.0000 0.25450  0.79420  0.84950  Biso   1.000  O
