data_image0
_cell_length_a       9.182
_cell_length_b       9.687
_cell_length_c       10.639
_cell_angle_alpha    106.807
_cell_angle_beta     95.625
_cell_angle_gamma    118.06

_symmetry_space_group_name_H-M    P 1
_symmetry_int_tables_number       1

loop_
  _symmetry_equiv_pos_as_xyz
  'x, y, z'

loop_
  _atom_site_label
  _atom_site_occupancy
  _atom_site_fract_x
  _atom_site_fract_y
  _atom_site_fract_z
  _atom_site_thermal_displace_type
  _atom_site_B_iso_or_equiv
  _atom_site_type_symbol
  Nd1      1.0000 0.23498  0.45502  0.98180  Biso   1.000  Nd
  Nd2      1.0000 0.76502  0.54498  0.01820  Biso   1.000  Nd
  H1       1.0000 0.57650  0.40080  0.65140  Biso   1.000  H
  H2       1.0000 0.38410  0.26210  0.55680  Biso   1.000  H
  H3       1.0000 0.53230  0.62140  0.63050  Biso   1.000  H
  H4       1.0000 0.34440  0.47960  0.53030  Biso   1.000  H
  H5       1.0000 0.98140  0.62580  0.62870  Biso   1.000  H
  H6       1.0000 0.00300  0.46860  0.61760  Biso   1.000  H
  H7       1.0000 0.29480  0.65730  0.74810  Biso   1.000  H
  H8       1.0000 0.25970  0.68700  0.61090  Biso   1.000  H
  H9       1.0000 0.27950  0.89710  0.87300  Biso   1.000  H
  H10      1.0000 0.25460  0.92930  0.73500  Biso   1.000  H
  H11      1.0000 0.52130  0.94980  0.71680  Biso   1.000  H
  H12      1.0000 0.54670  0.94400  0.86290  Biso   1.000  H
  H13      1.0000 0.91200  0.11400  0.82500  Biso   1.000  H
  H14      1.0000 0.86400  0.20700  0.83600  Biso   1.000  H
  H15      1.0000 0.12600  0.07700  0.89800  Biso   1.000  H
  H16      1.0000 0.28500  0.17600  0.97700  Biso   1.000  H
  H17      1.0000 0.42350  0.59920  0.34860  Biso   1.000  H
  H18      1.0000 0.61590  0.73790  0.44320  Biso   1.000  H
  H19      1.0000 0.46770  0.37860  0.36950  Biso   1.000  H
  H20      1.0000 0.65560  0.52040  0.46970  Biso   1.000  H
  H21      1.0000 0.01860  0.37420  0.37130  Biso   1.000  H
  H22      1.0000 0.99700  0.53140  0.38240  Biso   1.000  H
  H23      1.0000 0.70520  0.34270  0.25190  Biso   1.000  H
  H24      1.0000 0.74030  0.31300  0.38910  Biso   1.000  H
  H25      1.0000 0.72050  0.10290  0.12700  Biso   1.000  H
  H26      1.0000 0.74540  0.07070  0.26500  Biso   1.000  H
  H27      1.0000 0.47870  0.05020  0.28320  Biso   1.000  H
  H28      1.0000 0.45330  0.05600  0.13710  Biso   1.000  H
  H29      1.0000 0.08800  0.88600  0.17500  Biso   1.000  H
  H30      1.0000 0.13600  0.79300  0.16400  Biso   1.000  H
  H31      1.0000 0.87400  0.92300  0.10200  Biso   1.000  H
  H32      1.0000 0.71500  0.82400  0.02300  Biso   1.000  H
  C1       1.0000 0.39290  0.40160  0.74790  Biso   1.000  C
  C2       1.0000 0.45920  0.37960  0.62450  Biso   1.000  C
  C3       1.0000 0.46280  0.50480  0.56040  Biso   1.000  C
  C4       1.0000 0.99070  0.58500  0.80760  Biso   1.000  C
  C5       1.0000 0.04150  0.58580  0.67720  Biso   1.000  C
  C6       1.0000 0.23510  0.69830  0.70070  Biso   1.000  C
  C7       1.0000 0.30760  0.88460  0.78450  Biso   1.000  C
  C8       1.0000 0.50250  0.98550  0.80960  Biso   1.000  C
  C9       1.0000 0.58320  0.17490  0.87770  Biso   1.000  C
  C10      1.0000 0.60710  0.59840  0.25210  Biso   1.000  C
  C11      1.0000 0.54080  0.62040  0.37550  Biso   1.000  C
  C12      1.0000 0.53720  0.49520  0.43960  Biso   1.000  C
  C13      1.0000 0.00930  0.41500  0.19240  Biso   1.000  C
  C14      1.0000 0.95850  0.41420  0.32280  Biso   1.000  C
  C15      1.0000 0.76490  0.30170  0.29930  Biso   1.000  C
  C16      1.0000 0.69240  0.11540  0.21550  Biso   1.000  C
  C17      1.0000 0.49750  0.01450  0.19040  Biso   1.000  C
  C18      1.0000 0.41680  0.82510  0.12230  Biso   1.000  C
  O1       1.0000 0.23740  0.36200  0.73380  Biso   1.000  O
  O2       1.0000 0.49160  0.46570  0.86710  Biso   1.000  O
  O3       1.0000 0.06210  0.54930  0.88950  Biso   1.000  O
  O4       1.0000 0.87540  0.61770  0.83040  Biso   1.000  O
  O5       1.0000 0.69180  0.27180  0.83010  Biso   1.000  O
  O6       1.0000 0.54560  0.23730  0.98210  Biso   1.000  O
  O7       1.0000 0.94990  0.20390  0.85290  Biso   1.000  O
  O8       1.0000 0.22690  0.19030  0.96220  Biso   1.000  O
  O9       1.0000 0.76260  0.63800  0.26620  Biso   1.000  O
  O10      1.0000 0.50840  0.53430  0.13290  Biso   1.000  O
  O11      1.0000 0.93790  0.45070  0.11050  Biso   1.000  O
  O12      1.0000 0.12460  0.38230  0.16960  Biso   1.000  O
  O13      1.0000 0.30820  0.72820  0.16990  Biso   1.000  O
  O14      1.0000 0.45440  0.76270  0.01790  Biso   1.000  O
  O15      1.0000 0.05010  0.79610  0.14710  Biso   1.000  O
  O16      1.0000 0.77310  0.80970  0.03780  Biso   1.000  O
