data_image0
_cell_length_a       8.2152
_cell_length_b       8.9387
_cell_length_c       12.3961
_cell_angle_alpha    109.846
_cell_angle_beta     92.651
_cell_angle_gamma    106.725

_symmetry_space_group_name_H-M    P 1
_symmetry_int_tables_number       1

loop_
  _symmetry_equiv_pos_as_xyz
  'x, y, z'

loop_
  _atom_site_label
  _atom_site_occupancy
  _atom_site_fract_x
  _atom_site_fract_y
  _atom_site_fract_z
  _atom_site_thermal_displace_type
  _atom_site_B_iso_or_equiv
  _atom_site_type_symbol
  Co1      1.0000 0.03208  0.05585  0.17923  Biso   1.000  Co
  Co2      1.0000 0.96792  0.94415  0.82077  Biso   1.000  Co
  Co3      1.0000 0.50000  0.50000  0.50000  Biso   1.000  Co
  H1       1.0000 0.26540  0.35890  0.25870  Biso   1.000  H
  H2       1.0000 0.22170  0.30390  0.13370  Biso   1.000  H
  H3       1.0000 0.79960  0.81570  0.21100  Biso   1.000  H
  H4       1.0000 0.78020  0.78090  0.08720  Biso   1.000  H
  H5       1.0000 0.97100  0.22400  0.44900  Biso   1.000  H
  H6       1.0000 0.80400  0.37610  0.54440  Biso   1.000  H
  H7       1.0000 0.57730  0.33550  0.24770  Biso   1.000  H
  H8       1.0000 0.37810  0.86720  0.30620  Biso   1.000  H
  H9       1.0000 0.73460  0.64110  0.74130  Biso   1.000  H
  H10      1.0000 0.77830  0.69610  0.86630  Biso   1.000  H
  H11      1.0000 0.20040  0.18430  0.78900  Biso   1.000  H
  H12      1.0000 0.21980  0.21910  0.91280  Biso   1.000  H
  H13      1.0000 0.02900  0.77600  0.55100  Biso   1.000  H
  H14      1.0000 0.19600  0.62390  0.45560  Biso   1.000  H
  H15      1.0000 0.42270  0.66450  0.75230  Biso   1.000  H
  H16      1.0000 0.62190  0.13280  0.69380  Biso   1.000  H
  C1       1.0000 0.75840  0.16990  0.10680  Biso   1.000  C
  C2       1.0000 0.76230  0.22680  0.23250  Biso   1.000  C
  C3       1.0000 0.89180  0.24680  0.40620  Biso   1.000  C
  C4       1.0000 0.78990  0.33740  0.46380  Biso   1.000  C
  C5       1.0000 0.65850  0.31480  0.29040  Biso   1.000  C
  C6       1.0000 0.53310  0.85470  0.43120  Biso   1.000  C
  C7       1.0000 0.60800  0.93510  0.54860  Biso   1.000  C
  C8       1.0000 0.42700  0.92060  0.38420  Biso   1.000  C
  C9       1.0000 0.55170  0.69170  0.35280  Biso   1.000  C
  C10      1.0000 0.72500  0.87210  0.60620  Biso   1.000  C
  C11      1.0000 0.24160  0.83010  0.89320  Biso   1.000  C
  C12      1.0000 0.23770  0.77320  0.76750  Biso   1.000  C
  C13      1.0000 0.10820  0.75320  0.59380  Biso   1.000  C
  C14      1.0000 0.21010  0.66260  0.53620  Biso   1.000  C
  C15      1.0000 0.34150  0.68520  0.70960  Biso   1.000  C
  C16      1.0000 0.46690  0.14530  0.56880  Biso   1.000  C
  C17      1.0000 0.39200  0.06490  0.45140  Biso   1.000  C
  C18      1.0000 0.57300  0.07940  0.61580  Biso   1.000  C
  C19      1.0000 0.44830  0.30830  0.64720  Biso   1.000  C
  C20      1.0000 0.27500  0.12790  0.39380  Biso   1.000  C
  N1       1.0000 0.86600  0.09120  0.05806  Biso   1.000  N
  N2       1.0000 0.83340  0.06350  0.94512  Biso   1.000  N
  N3       1.0000 0.70960  0.12220  0.92680  Biso   1.000  N
  N4       1.0000 0.66000  0.19060  0.02850  Biso   1.000  N
  N5       1.0000 0.87910  0.19160  0.29104  Biso   1.000  N
  N6       1.0000 0.67200  0.37040  0.40614  Biso   1.000  N
  N7       1.0000 0.13400  0.90880  0.94194  Biso   1.000  N
  N8       1.0000 0.16660  0.93650  0.05488  Biso   1.000  N
  N9       1.0000 0.29040  0.87780  0.07320  Biso   1.000  N
  N10      1.0000 0.34000  0.80940  0.97150  Biso   1.000  N
  N11      1.0000 0.12090  0.80840  0.70896  Biso   1.000  N
  N12      1.0000 0.32800  0.62960  0.59386  Biso   1.000  N
  O1       1.0000 0.65600  0.69350  0.28520  Biso   1.000  O
  O2       1.0000 0.45180  0.55850  0.35965  Biso   1.000  O
  O3       1.0000 0.70650  0.71790  0.57058  Biso   1.000  O
  O4       1.0000 0.83830  0.98070  0.68900  Biso   1.000  O
  O5       1.0000 0.20090  0.28770  0.19599  Biso   1.000  O
  O6       1.0000 0.84420  0.83000  0.15327  Biso   1.000  O
  O7       1.0000 0.34400  0.30650  0.71480  Biso   1.000  O
  O8       1.0000 0.54820  0.44150  0.64035  Biso   1.000  O
  O9       1.0000 0.29350  0.28210  0.42942  Biso   1.000  O
  O10      1.0000 0.16170  0.01930  0.31100  Biso   1.000  O
  O11      1.0000 0.79910  0.71230  0.80401  Biso   1.000  O
  O12      1.0000 0.15580  0.17000  0.84673  Biso   1.000  O
