data_image0
_cell_length_a       39.9
_cell_length_b       9.9925
_cell_length_c       28.728
_cell_angle_alpha    90
_cell_angle_beta     133.799
_cell_angle_gamma    90

_symmetry_space_group_name_H-M    "P 1"
_symmetry_int_tables_number       1

loop_
  _symmetry_equiv_pos_as_xyz
  'x, y, z'

loop_
  _atom_site_label
  _atom_site_occupancy
  _atom_site_fract_x
  _atom_site_fract_y
  _atom_site_fract_z
  _atom_site_thermal_displace_type
  _atom_site_B_iso_or_equiv
  _atom_site_type_symbol
  Cu1      1.0000 0.42533  0.85743  0.08497  Biso   1.000  Cu
  Cu2      1.0000 0.40646  0.89400  0.23489  Biso   1.000  Cu
  O1       1.0000 0.58113  0.01530  0.46103  Biso   1.000  O
  O2       1.0000 0.50900  0.90100  0.34235  Biso   1.000  O
  O3       1.0000 0.42340  0.46980  0.87176  Biso   1.000  O
  O4       1.0000 0.43026  0.70870  0.13496  Biso   1.000  O
  O5       1.0000 0.41504  0.85030  0.17727  Biso   1.000  O
  O6       1.0000 0.45191  0.04130  0.27271  Biso   1.000  O
  O7       1.0000 0.34234  0.53660  0.15830  Biso   1.000  O
  N1       1.0000 0.43642  0.30130  0.93588  Biso   1.000  N
  H1       1.0000 0.44450  0.28540  0.97270  Biso   1.000  H
  N2       1.0000 0.41397  0.08870  0.81165  Biso   1.000  N
  C1       1.0000 0.55602  0.12060  0.43357  Biso   1.000  C
  C2       1.0000 0.52600  0.13970  0.36060  Biso   1.000  C
  O8       1.0000 0.55700  0.21030  0.46367  Biso   1.000  O
  C3       1.0000 0.49361  0.01860  0.32262  Biso   1.000  C
  N3       1.0000 0.43092  0.71600  0.03032  Biso   1.000  N
  C4       1.0000 0.45857  0.60940  0.05828  Biso   1.000  C
  H2       1.0000 0.47830  0.59840  0.10350  Biso   1.000  H
  C5       1.0000 0.46013  0.51390  0.02505  Biso   1.000  C
  H3       1.0000 0.48050  0.43950  0.04710  Biso   1.000  H
  C6       1.0000 0.43169  0.52800  0.95934  Biso   1.000  C
  C7       1.0000 0.42986  0.43090  0.91786  Biso   1.000  C
  C8       1.0000 0.43171  0.18890  0.90215  Biso   1.000  C
  C9       1.0000 0.40283  0.63950  0.92962  Biso   1.000  C
  H4       1.0000 0.38310  0.65350  0.88460  Biso   1.000  H
  C10      1.0000 0.40337  0.72960  0.96667  Biso   1.000  C
  H5       1.0000 0.38320  0.80470  0.94590  Biso   1.000  H
  N4       1.0000 0.14450  0.65960  0.97687  Biso   1.000  N
  C11      1.0000 0.16425  0.78180  0.99324  Biso   1.000  C
  H6       1.0000 0.14540  0.85900  0.97900  Biso   1.000  H
  C12      1.0000 0.21054  0.79690  0.02970  Biso   1.000  C
  H7       1.0000 0.22360  0.88400  0.04020  Biso   1.000  H
  C13      1.0000 0.23832  0.68610  0.05130  Biso   1.000  C
  H8       1.0000 0.27060  0.69590  0.07670  Biso   1.000  H
  C14      1.0000 0.21860  0.55920  0.03571  Biso   1.000  C
  C15      1.0000 0.17108  0.55150  0.99744  Biso   1.000  C
  H9       1.0000 0.15690  0.46570  0.98540  Biso   1.000  H
  N5       1.0000 0.24800  0.44820  0.06106  Biso   1.000  N
  H10      1.0000 0.27740  0.46410  0.08300  Biso   1.000  H
  C16      1.0000 0.42038  0.73210  0.16735  Biso   1.000  C
  N6       1.0000 0.34755  0.03580  0.17194  Biso   1.000  N
  C17      1.0000 0.35014  0.14100  0.14630  Biso   1.000  C
  H11      1.0000 0.37760  0.15220  0.15470  Biso   1.000  H
  C18      1.0000 0.31534  0.23500  0.10809  Biso   1.000  C
  H12      1.0000 0.31880  0.30760  0.09030  Biso   1.000  H
  C19      1.0000 0.27565  0.22200  0.09616  Biso   1.000  C
  C20      1.0000 0.23558  0.31820  0.05509  Biso   1.000  C
  O9       1.0000 0.19567  0.27960  0.01995  Biso   1.000  O
  C21      1.0000 0.27243  0.11340  0.12330  Biso   1.000  C
  H13      1.0000 0.24550  0.10110  0.11600  Biso   1.000  H
  C22      1.0000 0.30871  0.02430  0.16070  Biso   1.000  C
  H14      1.0000 0.30640  0.95120  0.17940  Biso   1.000  H
  C23      1.0000 0.49827  0.26970  0.33688  Biso   1.000  C
  H15      1.0000 0.47730  0.26600  0.34360  Biso   1.000  H
  H16      1.0000 0.48010  0.28120  0.29080  Biso   1.000  H
  H17      1.0000 0.51960  0.34530  0.36100  Biso   1.000  H
  C24      1.0000 0.55954  0.14650  0.35108  Biso   1.000  C
  H18      1.0000 0.58280  0.21610  0.37910  Biso   1.000  H
  H19      1.0000 0.54200  0.16780  0.30600  Biso   1.000  H
  H20      1.0000 0.57500  0.05990  0.36220  Biso   1.000  H
  C25      1.0000 0.41882  0.96690  0.83590  Biso   1.000  C
  H21      1.0000 0.41360  0.88930  0.81240  Biso   1.000  H
  C26      1.0000 0.43111  0.95210  0.89350  Biso   1.000  C
  H22      1.0000 0.43470  0.86510  0.90980  Biso   1.000  H
  C27      1.0000 0.43832  0.06350  0.92800  Biso   1.000  C
  H23      1.0000 0.44760  0.05440  0.96850  Biso   1.000  H
  C28      1.0000 0.42019  0.19790  0.84429  Biso   1.000  C
  H24      1.0000 0.41660  0.28390  0.82720  Biso   1.000  H
  O10      1.0000 0.36724  0.73570  0.20440  Biso   1.000  O
  C29      1.0000 0.37071  0.62940  0.18312  Biso   1.000  C
  C30      1.0000 0.41418  0.61160  0.19405  Biso   1.000  C
  C31      1.0000 0.41145  0.48110  0.16362  Biso   1.000  C
  H25      1.0000 0.38450  0.48410  0.11690  Biso   1.000  H
  H26      1.0000 0.40820  0.40550  0.18200  Biso   1.000  H
  H27      1.0000 0.43980  0.47020  0.17250  Biso   1.000  H
  C32      1.0000 0.45658  0.60560  0.26772  Biso   1.000  C
  H28      1.0000 0.48450  0.58340  0.27650  Biso   1.000  H
  H29      1.0000 0.45140  0.53690  0.28650  Biso   1.000  H
  H30      1.0000 0.46080  0.69270  0.28680  Biso   1.000  H
  Cu3      1.0000 0.92533  0.35743  0.08497  Biso   1.000  Cu
  Cu4      1.0000 0.90646  0.39400  0.23489  Biso   1.000  Cu
  O11      1.0000 0.08113  0.51530  0.46103  Biso   1.000  O
  O12      1.0000 0.00900  0.40100  0.34235  Biso   1.000  O
  O13      1.0000 0.92340  0.96980  0.87176  Biso   1.000  O
  O14      1.0000 0.93026  0.20870  0.13496  Biso   1.000  O
  O15      1.0000 0.91504  0.35030  0.17727  Biso   1.000  O
  O16      1.0000 0.95191  0.54130  0.27271  Biso   1.000  O
  O17      1.0000 0.84234  0.03660  0.15830  Biso   1.000  O
  N7       1.0000 0.93642  0.80130  0.93588  Biso   1.000  N
  H31      1.0000 0.94450  0.78540  0.97270  Biso   1.000  H
  N8       1.0000 0.91397  0.58870  0.81165  Biso   1.000  N
  C33      1.0000 0.05602  0.62060  0.43357  Biso   1.000  C
  C34      1.0000 0.02600  0.63970  0.36060  Biso   1.000  C
  O18      1.0000 0.05700  0.71030  0.46367  Biso   1.000  O
  C35      1.0000 0.99361  0.51860  0.32262  Biso   1.000  C
  N9       1.0000 0.93092  0.21600  0.03032  Biso   1.000  N
  C36      1.0000 0.95857  0.10940  0.05828  Biso   1.000  C
  H32      1.0000 0.97830  0.09840  0.10350  Biso   1.000  H
  C37      1.0000 0.96013  0.01390  0.02505  Biso   1.000  C
  H33      1.0000 0.98050  0.93950  0.04710  Biso   1.000  H
  C38      1.0000 0.93169  0.02800  0.95934  Biso   1.000  C
  C39      1.0000 0.92986  0.93090  0.91786  Biso   1.000  C
  C40      1.0000 0.93171  0.68890  0.90215  Biso   1.000  C
  C41      1.0000 0.90283  0.13950  0.92962  Biso   1.000  C
  H34      1.0000 0.88310  0.15350  0.88460  Biso   1.000  H
  C42      1.0000 0.90337  0.22960  0.96667  Biso   1.000  C
  H35      1.0000 0.88320  0.30470  0.94590  Biso   1.000  H
  N10      1.0000 0.64450  0.15960  0.97687  Biso   1.000  N
  C43      1.0000 0.66425  0.28180  0.99324  Biso   1.000  C
  H36      1.0000 0.64540  0.35900  0.97900  Biso   1.000  H
  C44      1.0000 0.71054  0.29690  0.02970  Biso   1.000  C
  H37      1.0000 0.72360  0.38400  0.04020  Biso   1.000  H
  C45      1.0000 0.73832  0.18610  0.05130  Biso   1.000  C
  H38      1.0000 0.77060  0.19590  0.07670  Biso   1.000  H
  C46      1.0000 0.71860  0.05920  0.03571  Biso   1.000  C
  C47      1.0000 0.67108  0.05150  0.99744  Biso   1.000  C
  H39      1.0000 0.65690  0.96570  0.98540  Biso   1.000  H
  N11      1.0000 0.74800  0.94820  0.06106  Biso   1.000  N
  H40      1.0000 0.77740  0.96410  0.08300  Biso   1.000  H
  C48      1.0000 0.92038  0.23210  0.16735  Biso   1.000  C
  N12      1.0000 0.84755  0.53580  0.17194  Biso   1.000  N
  C49      1.0000 0.85014  0.64100  0.14630  Biso   1.000  C
  H41      1.0000 0.87760  0.65220  0.15470  Biso   1.000  H
  C50      1.0000 0.81534  0.73500  0.10809  Biso   1.000  C
  H42      1.0000 0.81880  0.80760  0.09030  Biso   1.000  H
  C51      1.0000 0.77565  0.72200  0.09616  Biso   1.000  C
  C52      1.0000 0.73558  0.81820  0.05509  Biso   1.000  C
  O19      1.0000 0.69567  0.77960  0.01995  Biso   1.000  O
  C53      1.0000 0.77243  0.61340  0.12330  Biso   1.000  C
  H43      1.0000 0.74550  0.60110  0.11600  Biso   1.000  H
  C54      1.0000 0.80871  0.52430  0.16070  Biso   1.000  C
  H44      1.0000 0.80640  0.45120  0.17940  Biso   1.000  H
  C55      1.0000 0.99827  0.76970  0.33688  Biso   1.000  C
  H45      1.0000 0.97730  0.76600  0.34360  Biso   1.000  H
  H46      1.0000 0.98010  0.78120  0.29080  Biso   1.000  H
  H47      1.0000 0.01960  0.84530  0.36100  Biso   1.000  H
  C56      1.0000 0.05954  0.64650  0.35108  Biso   1.000  C
  H48      1.0000 0.08280  0.71610  0.37910  Biso   1.000  H
  H49      1.0000 0.04200  0.66780  0.30600  Biso   1.000  H
  H50      1.0000 0.07500  0.55990  0.36220  Biso   1.000  H
  C57      1.0000 0.91882  0.46690  0.83590  Biso   1.000  C
  H51      1.0000 0.91360  0.38930  0.81240  Biso   1.000  H
  C58      1.0000 0.93111  0.45210  0.89350  Biso   1.000  C
  H52      1.0000 0.93470  0.36510  0.90980  Biso   1.000  H
  C59      1.0000 0.93832  0.56350  0.92800  Biso   1.000  C
  H53      1.0000 0.94760  0.55440  0.96850  Biso   1.000  H
  C60      1.0000 0.92019  0.69790  0.84429  Biso   1.000  C
  H54      1.0000 0.91660  0.78390  0.82720  Biso   1.000  H
  O20      1.0000 0.86724  0.23570  0.20440  Biso   1.000  O
  C61      1.0000 0.87071  0.12940  0.18312  Biso   1.000  C
  C62      1.0000 0.91418  0.11160  0.19405  Biso   1.000  C
  C63      1.0000 0.91145  0.98110  0.16362  Biso   1.000  C
  H55      1.0000 0.88450  0.98410  0.11690  Biso   1.000  H
  H56      1.0000 0.90820  0.90550  0.18200  Biso   1.000  H
  H57      1.0000 0.93980  0.97020  0.17250  Biso   1.000  H
  C64      1.0000 0.95658  0.10560  0.26772  Biso   1.000  C
  H58      1.0000 0.98450  0.08340  0.27650  Biso   1.000  H
  H59      1.0000 0.95140  0.03690  0.28650  Biso   1.000  H
  H60      1.0000 0.96080  0.19270  0.28680  Biso   1.000  H
  Cu5      1.0000 0.57467  0.85743  0.41503  Biso   1.000  Cu
  Cu6      1.0000 0.59354  0.89400  0.26511  Biso   1.000  Cu
  O21      1.0000 0.41887  0.01530  0.03897  Biso   1.000  O
  O22      1.0000 0.49100  0.90100  0.15765  Biso   1.000  O
  O23      1.0000 0.57660  0.46980  0.62824  Biso   1.000  O
  O24      1.0000 0.56974  0.70870  0.36504  Biso   1.000  O
  O25      1.0000 0.58496  0.85030  0.32273  Biso   1.000  O
  O26      1.0000 0.54809  0.04130  0.22729  Biso   1.000  O
  O27      1.0000 0.65766  0.53660  0.34170  Biso   1.000  O
  N13      1.0000 0.56358  0.30130  0.56412  Biso   1.000  N
  H61      1.0000 0.55550  0.28540  0.52730  Biso   1.000  H
  N14      1.0000 0.58603  0.08870  0.68835  Biso   1.000  N
  C65      1.0000 0.44398  0.12060  0.06643  Biso   1.000  C
  C66      1.0000 0.47400  0.13970  0.13940  Biso   1.000  C
  O28      1.0000 0.44300  0.21030  0.03633  Biso   1.000  O
  C67      1.0000 0.50639  0.01860  0.17738  Biso   1.000  C
  N15      1.0000 0.56908  0.71600  0.46968  Biso   1.000  N
  C68      1.0000 0.54143  0.60940  0.44172  Biso   1.000  C
  H62      1.0000 0.52170  0.59840  0.39650  Biso   1.000  H
  C69      1.0000 0.53987  0.51390  0.47495  Biso   1.000  C
  H63      1.0000 0.51950  0.43950  0.45290  Biso   1.000  H
  C70      1.0000 0.56831  0.52800  0.54066  Biso   1.000  C
  C71      1.0000 0.57014  0.43090  0.58214  Biso   1.000  C
  C72      1.0000 0.56829  0.18890  0.59785  Biso   1.000  C
  C73      1.0000 0.59717  0.63950  0.57038  Biso   1.000  C
  H64      1.0000 0.61690  0.65350  0.61540  Biso   1.000  H
  C74      1.0000 0.59663  0.72960  0.53333  Biso   1.000  C
  H65      1.0000 0.61680  0.80470  0.55410  Biso   1.000  H
  N16      1.0000 0.85550  0.65960  0.52313  Biso   1.000  N
  C75      1.0000 0.83575  0.78180  0.50676  Biso   1.000  C
  H66      1.0000 0.85460  0.85900  0.52100  Biso   1.000  H
  C76      1.0000 0.78946  0.79690  0.47030  Biso   1.000  C
  H67      1.0000 0.77640  0.88400  0.45980  Biso   1.000  H
  C77      1.0000 0.76168  0.68610  0.44870  Biso   1.000  C
  H68      1.0000 0.72940  0.69590  0.42330  Biso   1.000  H
  C78      1.0000 0.78140  0.55920  0.46429  Biso   1.000  C
  C79      1.0000 0.82892  0.55150  0.50256  Biso   1.000  C
  H69      1.0000 0.84310  0.46570  0.51460  Biso   1.000  H
  N17      1.0000 0.75200  0.44820  0.43894  Biso   1.000  N
  H70      1.0000 0.72260  0.46410  0.41700  Biso   1.000  H
  C80      1.0000 0.57962  0.73210  0.33265  Biso   1.000  C
  N18      1.0000 0.65245  0.03580  0.32806  Biso   1.000  N
  C81      1.0000 0.64986  0.14100  0.35370  Biso   1.000  C
  H71      1.0000 0.62240  0.15220  0.34530  Biso   1.000  H
  C82      1.0000 0.68466  0.23500  0.39191  Biso   1.000  C
  H72      1.0000 0.68120  0.30760  0.40970  Biso   1.000  H
  C83      1.0000 0.72435  0.22200  0.40384  Biso   1.000  C
  C84      1.0000 0.76442  0.31820  0.44491  Biso   1.000  C
  O29      1.0000 0.80433  0.27960  0.48005  Biso   1.000  O
  C85      1.0000 0.72757  0.11340  0.37670  Biso   1.000  C
  H73      1.0000 0.75450  0.10110  0.38400  Biso   1.000  H
  C86      1.0000 0.69129  0.02430  0.33930  Biso   1.000  C
  H74      1.0000 0.69360  0.95120  0.32060  Biso   1.000  H
  C87      1.0000 0.50173  0.26970  0.16312  Biso   1.000  C
  H75      1.0000 0.52270  0.26600  0.15640  Biso   1.000  H
  H76      1.0000 0.51990  0.28120  0.20920  Biso   1.000  H
  H77      1.0000 0.48040  0.34530  0.13900  Biso   1.000  H
  C88      1.0000 0.44046  0.14650  0.14892  Biso   1.000  C
  H78      1.0000 0.41720  0.21610  0.12090  Biso   1.000  H
  H79      1.0000 0.45800  0.16780  0.19400  Biso   1.000  H
  H80      1.0000 0.42500  0.05990  0.13780  Biso   1.000  H
  C89      1.0000 0.58118  0.96690  0.66410  Biso   1.000  C
  H81      1.0000 0.58640  0.88930  0.68760  Biso   1.000  H
  C90      1.0000 0.56889  0.95210  0.60650  Biso   1.000  C
  H82      1.0000 0.56530  0.86510  0.59020  Biso   1.000  H
  C91      1.0000 0.56168  0.06350  0.57200  Biso   1.000  C
  H83      1.0000 0.55240  0.05440  0.53150  Biso   1.000  H
  C92      1.0000 0.57981  0.19790  0.65571  Biso   1.000  C
  H84      1.0000 0.58340  0.28390  0.67280  Biso   1.000  H
  O30      1.0000 0.63276  0.73570  0.29560  Biso   1.000  O
  C93      1.0000 0.62929  0.62940  0.31688  Biso   1.000  C
  C94      1.0000 0.58582  0.61160  0.30595  Biso   1.000  C
  C95      1.0000 0.58855  0.48110  0.33638  Biso   1.000  C
  H85      1.0000 0.61550  0.48410  0.38310  Biso   1.000  H
  H86      1.0000 0.59180  0.40550  0.31800  Biso   1.000  H
  H87      1.0000 0.56020  0.47020  0.32750  Biso   1.000  H
  C96      1.0000 0.54342  0.60560  0.23228  Biso   1.000  C
  H88      1.0000 0.51550  0.58340  0.22350  Biso   1.000  H
  H89      1.0000 0.54860  0.53690  0.21350  Biso   1.000  H
  H90      1.0000 0.53920  0.69270  0.21320  Biso   1.000  H
  Cu7      1.0000 0.07467  0.35743  0.41503  Biso   1.000  Cu
  Cu8      1.0000 0.09354  0.39400  0.26511  Biso   1.000  Cu
  O31      1.0000 0.91887  0.51530  0.03897  Biso   1.000  O
  O32      1.0000 0.99100  0.40100  0.15765  Biso   1.000  O
  O33      1.0000 0.07660  0.96980  0.62824  Biso   1.000  O
  O34      1.0000 0.06974  0.20870  0.36504  Biso   1.000  O
  O35      1.0000 0.08496  0.35030  0.32273  Biso   1.000  O
  O36      1.0000 0.04809  0.54130  0.22729  Biso   1.000  O
  O37      1.0000 0.15766  0.03660  0.34170  Biso   1.000  O
  N19      1.0000 0.06358  0.80130  0.56412  Biso   1.000  N
  H91      1.0000 0.05550  0.78540  0.52730  Biso   1.000  H
  N20      1.0000 0.08603  0.58870  0.68835  Biso   1.000  N
  C97      1.0000 0.94398  0.62060  0.06643  Biso   1.000  C
  C98      1.0000 0.97400  0.63970  0.13940  Biso   1.000  C
  O38      1.0000 0.94300  0.71030  0.03633  Biso   1.000  O
  C99      1.0000 0.00639  0.51860  0.17738  Biso   1.000  C
  N21      1.0000 0.06908  0.21600  0.46968  Biso   1.000  N
  C100     1.0000 0.04143  0.10940  0.44172  Biso   1.000  C
  H92      1.0000 0.02170  0.09840  0.39650  Biso   1.000  H
  C101     1.0000 0.03987  0.01390  0.47495  Biso   1.000  C
  H93      1.0000 0.01950  0.93950  0.45290  Biso   1.000  H
  C102     1.0000 0.06831  0.02800  0.54066  Biso   1.000  C
  C103     1.0000 0.07014  0.93090  0.58214  Biso   1.000  C
  C104     1.0000 0.06829  0.68890  0.59785  Biso   1.000  C
  C105     1.0000 0.09717  0.13950  0.57038  Biso   1.000  C
  H94      1.0000 0.11690  0.15350  0.61540  Biso   1.000  H
  C106     1.0000 0.09663  0.22960  0.53333  Biso   1.000  C
  H95      1.0000 0.11680  0.30470  0.55410  Biso   1.000  H
  N22      1.0000 0.35550  0.15960  0.52313  Biso   1.000  N
  C107     1.0000 0.33575  0.28180  0.50676  Biso   1.000  C
  H96      1.0000 0.35460  0.35900  0.52100  Biso   1.000  H
  C108     1.0000 0.28946  0.29690  0.47030  Biso   1.000  C
  H97      1.0000 0.27640  0.38400  0.45980  Biso   1.000  H
  C109     1.0000 0.26168  0.18610  0.44870  Biso   1.000  C
  H98      1.0000 0.22940  0.19590  0.42330  Biso   1.000  H
  C110     1.0000 0.28140  0.05920  0.46429  Biso   1.000  C
  C111     1.0000 0.32892  0.05150  0.50256  Biso   1.000  C
  H99      1.0000 0.34310  0.96570  0.51460  Biso   1.000  H
  N23      1.0000 0.25200  0.94820  0.43894  Biso   1.000  N
  H100     1.0000 0.22260  0.96410  0.41700  Biso   1.000  H
  C112     1.0000 0.07962  0.23210  0.33265  Biso   1.000  C
  N24      1.0000 0.15245  0.53580  0.32806  Biso   1.000  N
  C113     1.0000 0.14986  0.64100  0.35370  Biso   1.000  C
  H101     1.0000 0.12240  0.65220  0.34530  Biso   1.000  H
  C114     1.0000 0.18466  0.73500  0.39191  Biso   1.000  C
  H102     1.0000 0.18120  0.80760  0.40970  Biso   1.000  H
  C115     1.0000 0.22435  0.72200  0.40384  Biso   1.000  C
  C116     1.0000 0.26442  0.81820  0.44491  Biso   1.000  C
  O39      1.0000 0.30433  0.77960  0.48005  Biso   1.000  O
  C117     1.0000 0.22757  0.61340  0.37670  Biso   1.000  C
  H103     1.0000 0.25450  0.60110  0.38400  Biso   1.000  H
  C118     1.0000 0.19129  0.52430  0.33930  Biso   1.000  C
  H104     1.0000 0.19360  0.45120  0.32060  Biso   1.000  H
  C119     1.0000 0.00173  0.76970  0.16312  Biso   1.000  C
  H105     1.0000 0.02270  0.76600  0.15640  Biso   1.000  H
  H106     1.0000 0.01990  0.78120  0.20920  Biso   1.000  H
  H107     1.0000 0.98040  0.84530  0.13900  Biso   1.000  H
  C120     1.0000 0.94046  0.64650  0.14892  Biso   1.000  C
  H108     1.0000 0.91720  0.71610  0.12090  Biso   1.000  H
  H109     1.0000 0.95800  0.66780  0.19400  Biso   1.000  H
  H110     1.0000 0.92500  0.55990  0.13780  Biso   1.000  H
  C121     1.0000 0.08118  0.46690  0.66410  Biso   1.000  C
  H111     1.0000 0.08640  0.38930  0.68760  Biso   1.000  H
  C122     1.0000 0.06889  0.45210  0.60650  Biso   1.000  C
  H112     1.0000 0.06530  0.36510  0.59020  Biso   1.000  H
  C123     1.0000 0.06168  0.56350  0.57200  Biso   1.000  C
  H113     1.0000 0.05240  0.55440  0.53150  Biso   1.000  H
  C124     1.0000 0.07981  0.69790  0.65571  Biso   1.000  C
  H114     1.0000 0.08340  0.78390  0.67280  Biso   1.000  H
  O40      1.0000 0.13276  0.23570  0.29560  Biso   1.000  O
  C125     1.0000 0.12929  0.12940  0.31688  Biso   1.000  C
  C126     1.0000 0.08582  0.11160  0.30595  Biso   1.000  C
  C127     1.0000 0.08855  0.98110  0.33638  Biso   1.000  C
  H115     1.0000 0.11550  0.98410  0.38310  Biso   1.000  H
  H116     1.0000 0.09180  0.90550  0.31800  Biso   1.000  H
  H117     1.0000 0.06020  0.97020  0.32750  Biso   1.000  H
  C128     1.0000 0.04342  0.10560  0.23228  Biso   1.000  C
  H118     1.0000 0.01550  0.08340  0.22350  Biso   1.000  H
  H119     1.0000 0.04860  0.03690  0.21350  Biso   1.000  H
  H120     1.0000 0.03920  0.19270  0.21320  Biso   1.000  H
  Cu9      1.0000 0.57467  0.14257  0.91503  Biso   1.000  Cu
  Cu10     1.0000 0.59354  0.10600  0.76511  Biso   1.000  Cu
  O41      1.0000 0.41887  0.98470  0.53897  Biso   1.000  O
  O42      1.0000 0.49100  0.09900  0.65765  Biso   1.000  O
  O43      1.0000 0.57660  0.53020  0.12824  Biso   1.000  O
  O44      1.0000 0.56974  0.29130  0.86504  Biso   1.000  O
  O45      1.0000 0.58496  0.14970  0.82273  Biso   1.000  O
  O46      1.0000 0.54809  0.95870  0.72729  Biso   1.000  O
  O47      1.0000 0.65766  0.46340  0.84170  Biso   1.000  O
  N25      1.0000 0.56358  0.69870  0.06412  Biso   1.000  N
  H121     1.0000 0.55550  0.71460  0.02730  Biso   1.000  H
  N26      1.0000 0.58603  0.91130  0.18835  Biso   1.000  N
  C129     1.0000 0.44398  0.87940  0.56643  Biso   1.000  C
  C130     1.0000 0.47400  0.86030  0.63940  Biso   1.000  C
  O48      1.0000 0.44300  0.78970  0.53633  Biso   1.000  O
  C131     1.0000 0.50639  0.98140  0.67738  Biso   1.000  C
  N27      1.0000 0.56908  0.28400  0.96968  Biso   1.000  N
  C132     1.0000 0.54143  0.39060  0.94172  Biso   1.000  C
  H122     1.0000 0.52170  0.40160  0.89650  Biso   1.000  H
  C133     1.0000 0.53987  0.48610  0.97495  Biso   1.000  C
  H123     1.0000 0.51950  0.56050  0.95290  Biso   1.000  H
  C134     1.0000 0.56831  0.47200  0.04066  Biso   1.000  C
  C135     1.0000 0.57014  0.56910  0.08214  Biso   1.000  C
  C136     1.0000 0.56829  0.81110  0.09785  Biso   1.000  C
  C137     1.0000 0.59717  0.36050  0.07038  Biso   1.000  C
  H124     1.0000 0.61690  0.34650  0.11540  Biso   1.000  H
  C138     1.0000 0.59663  0.27040  0.03333  Biso   1.000  C
  H125     1.0000 0.61680  0.19530  0.05410  Biso   1.000  H
  N28      1.0000 0.85550  0.34040  0.02313  Biso   1.000  N
  C139     1.0000 0.83575  0.21820  0.00676  Biso   1.000  C
  H126     1.0000 0.85460  0.14100  0.02100  Biso   1.000  H
  C140     1.0000 0.78946  0.20310  0.97030  Biso   1.000  C
  H127     1.0000 0.77640  0.11600  0.95980  Biso   1.000  H
  C141     1.0000 0.76168  0.31390  0.94870  Biso   1.000  C
  H128     1.0000 0.72940  0.30410  0.92330  Biso   1.000  H
  C142     1.0000 0.78140  0.44080  0.96429  Biso   1.000  C
  C143     1.0000 0.82892  0.44850  0.00256  Biso   1.000  C
  H129     1.0000 0.84310  0.53430  0.01460  Biso   1.000  H
  N29      1.0000 0.75200  0.55180  0.93894  Biso   1.000  N
  H130     1.0000 0.72260  0.53590  0.91700  Biso   1.000  H
  C144     1.0000 0.57962  0.26790  0.83265  Biso   1.000  C
  N30      1.0000 0.65245  0.96420  0.82806  Biso   1.000  N
  C145     1.0000 0.64986  0.85900  0.85370  Biso   1.000  C
  H131     1.0000 0.62240  0.84780  0.84530  Biso   1.000  H
  C146     1.0000 0.68466  0.76500  0.89191  Biso   1.000  C
  H132     1.0000 0.68120  0.69240  0.90970  Biso   1.000  H
  C147     1.0000 0.72435  0.77800  0.90384  Biso   1.000  C
  C148     1.0000 0.76442  0.68180  0.94491  Biso   1.000  C
  O49      1.0000 0.80433  0.72040  0.98005  Biso   1.000  O
  C149     1.0000 0.72757  0.88660  0.87670  Biso   1.000  C
  H133     1.0000 0.75450  0.89890  0.88400  Biso   1.000  H
  C150     1.0000 0.69129  0.97570  0.83930  Biso   1.000  C
  H134     1.0000 0.69360  0.04880  0.82060  Biso   1.000  H
  C151     1.0000 0.50173  0.73030  0.66312  Biso   1.000  C
  H135     1.0000 0.52270  0.73400  0.65640  Biso   1.000  H
  H136     1.0000 0.51990  0.71880  0.70920  Biso   1.000  H
  H137     1.0000 0.48040  0.65470  0.63900  Biso   1.000  H
  C152     1.0000 0.44046  0.85350  0.64892  Biso   1.000  C
  H138     1.0000 0.41720  0.78390  0.62090  Biso   1.000  H
  H139     1.0000 0.45800  0.83220  0.69400  Biso   1.000  H
  H140     1.0000 0.42500  0.94010  0.63780  Biso   1.000  H
  C153     1.0000 0.58118  0.03310  0.16410  Biso   1.000  C
  H141     1.0000 0.58640  0.11070  0.18760  Biso   1.000  H
  C154     1.0000 0.56889  0.04790  0.10650  Biso   1.000  C
  H142     1.0000 0.56530  0.13490  0.09020  Biso   1.000  H
  C155     1.0000 0.56168  0.93650  0.07200  Biso   1.000  C
  H143     1.0000 0.55240  0.94560  0.03150  Biso   1.000  H
  C156     1.0000 0.57981  0.80210  0.15571  Biso   1.000  C
  H144     1.0000 0.58340  0.71610  0.17280  Biso   1.000  H
  O50      1.0000 0.63276  0.26430  0.79560  Biso   1.000  O
  C157     1.0000 0.62929  0.37060  0.81688  Biso   1.000  C
  C158     1.0000 0.58582  0.38840  0.80595  Biso   1.000  C
  C159     1.0000 0.58855  0.51890  0.83638  Biso   1.000  C
  H145     1.0000 0.61550  0.51590  0.88310  Biso   1.000  H
  H146     1.0000 0.59180  0.59450  0.81800  Biso   1.000  H
  H147     1.0000 0.56020  0.52980  0.82750  Biso   1.000  H
  C160     1.0000 0.54342  0.39440  0.73228  Biso   1.000  C
  H148     1.0000 0.51550  0.41660  0.72350  Biso   1.000  H
  H149     1.0000 0.54860  0.46310  0.71350  Biso   1.000  H
  H150     1.0000 0.53920  0.30730  0.71320  Biso   1.000  H
  Cu11     1.0000 0.07467  0.64257  0.91503  Biso   1.000  Cu
  Cu12     1.0000 0.09354  0.60600  0.76511  Biso   1.000  Cu
  O51      1.0000 0.91887  0.48470  0.53897  Biso   1.000  O
  O52      1.0000 0.99100  0.59900  0.65765  Biso   1.000  O
  O53      1.0000 0.07660  0.03020  0.12824  Biso   1.000  O
  O54      1.0000 0.06974  0.79130  0.86504  Biso   1.000  O
  O55      1.0000 0.08496  0.64970  0.82273  Biso   1.000  O
  O56      1.0000 0.04809  0.45870  0.72729  Biso   1.000  O
  O57      1.0000 0.15766  0.96340  0.84170  Biso   1.000  O
  N31      1.0000 0.06358  0.19870  0.06412  Biso   1.000  N
  H151     1.0000 0.05550  0.21460  0.02730  Biso   1.000  H
  N32      1.0000 0.08603  0.41130  0.18835  Biso   1.000  N
  C161     1.0000 0.94398  0.37940  0.56643  Biso   1.000  C
  C162     1.0000 0.97400  0.36030  0.63940  Biso   1.000  C
  O58      1.0000 0.94300  0.28970  0.53633  Biso   1.000  O
  C163     1.0000 0.00639  0.48140  0.67738  Biso   1.000  C
  N33      1.0000 0.06908  0.78400  0.96968  Biso   1.000  N
  C164     1.0000 0.04143  0.89060  0.94172  Biso   1.000  C
  H152     1.0000 0.02170  0.90160  0.89650  Biso   1.000  H
  C165     1.0000 0.03987  0.98610  0.97495  Biso   1.000  C
  H153     1.0000 0.01950  0.06050  0.95290  Biso   1.000  H
  C166     1.0000 0.06831  0.97200  0.04066  Biso   1.000  C
  C167     1.0000 0.07014  0.06910  0.08214  Biso   1.000  C
  C168     1.0000 0.06829  0.31110  0.09785  Biso   1.000  C
  C169     1.0000 0.09717  0.86050  0.07038  Biso   1.000  C
  H154     1.0000 0.11690  0.84650  0.11540  Biso   1.000  H
  C170     1.0000 0.09663  0.77040  0.03333  Biso   1.000  C
  H155     1.0000 0.11680  0.69530  0.05410  Biso   1.000  H
  N34      1.0000 0.35550  0.84040  0.02313  Biso   1.000  N
  C171     1.0000 0.33575  0.71820  0.00676  Biso   1.000  C
  H156     1.0000 0.35460  0.64100  0.02100  Biso   1.000  H
  C172     1.0000 0.28946  0.70310  0.97030  Biso   1.000  C
  H157     1.0000 0.27640  0.61600  0.95980  Biso   1.000  H
  C173     1.0000 0.26168  0.81390  0.94870  Biso   1.000  C
  H158     1.0000 0.22940  0.80410  0.92330  Biso   1.000  H
  C174     1.0000 0.28140  0.94080  0.96429  Biso   1.000  C
  C175     1.0000 0.32892  0.94850  0.00256  Biso   1.000  C
  H159     1.0000 0.34310  0.03430  0.01460  Biso   1.000  H
  N35      1.0000 0.25200  0.05180  0.93894  Biso   1.000  N
  H160     1.0000 0.22260  0.03590  0.91700  Biso   1.000  H
  C176     1.0000 0.07962  0.76790  0.83265  Biso   1.000  C
  N36      1.0000 0.15245  0.46420  0.82806  Biso   1.000  N
  C177     1.0000 0.14986  0.35900  0.85370  Biso   1.000  C
  H161     1.0000 0.12240  0.34780  0.84530  Biso   1.000  H
  C178     1.0000 0.18466  0.26500  0.89191  Biso   1.000  C
  H162     1.0000 0.18120  0.19240  0.90970  Biso   1.000  H
  C179     1.0000 0.22435  0.27800  0.90384  Biso   1.000  C
  C180     1.0000 0.26442  0.18180  0.94491  Biso   1.000  C
  O59      1.0000 0.30433  0.22040  0.98005  Biso   1.000  O
  C181     1.0000 0.22757  0.38660  0.87670  Biso   1.000  C
  H163     1.0000 0.25450  0.39890  0.88400  Biso   1.000  H
  C182     1.0000 0.19129  0.47570  0.83930  Biso   1.000  C
  H164     1.0000 0.19360  0.54880  0.82060  Biso   1.000  H
  C183     1.0000 0.00173  0.23030  0.66312  Biso   1.000  C
  H165     1.0000 0.02270  0.23400  0.65640  Biso   1.000  H
  H166     1.0000 0.01990  0.21880  0.70920  Biso   1.000  H
  H167     1.0000 0.98040  0.15470  0.63900  Biso   1.000  H
  C184     1.0000 0.94046  0.35350  0.64892  Biso   1.000  C
  H168     1.0000 0.91720  0.28390  0.62090  Biso   1.000  H
  H169     1.0000 0.95800  0.33220  0.69400  Biso   1.000  H
  H170     1.0000 0.92500  0.44010  0.63780  Biso   1.000  H
  C185     1.0000 0.08118  0.53310  0.16410  Biso   1.000  C
  H171     1.0000 0.08640  0.61070  0.18760  Biso   1.000  H
  C186     1.0000 0.06889  0.54790  0.10650  Biso   1.000  C
  H172     1.0000 0.06530  0.63490  0.09020  Biso   1.000  H
  C187     1.0000 0.06168  0.43650  0.07200  Biso   1.000  C
  H173     1.0000 0.05240  0.44560  0.03150  Biso   1.000  H
  C188     1.0000 0.07981  0.30210  0.15571  Biso   1.000  C
  H174     1.0000 0.08340  0.21610  0.17280  Biso   1.000  H
  O60      1.0000 0.13276  0.76430  0.79560  Biso   1.000  O
  C189     1.0000 0.12929  0.87060  0.81688  Biso   1.000  C
  C190     1.0000 0.08582  0.88840  0.80595  Biso   1.000  C
  C191     1.0000 0.08855  0.01890  0.83638  Biso   1.000  C
  H175     1.0000 0.11550  0.01590  0.88310  Biso   1.000  H
  H176     1.0000 0.09180  0.09450  0.81800  Biso   1.000  H
  H177     1.0000 0.06020  0.02980  0.82750  Biso   1.000  H
  C192     1.0000 0.04342  0.89440  0.73228  Biso   1.000  C
  H178     1.0000 0.01550  0.91660  0.72350  Biso   1.000  H
  H179     1.0000 0.04860  0.96310  0.71350  Biso   1.000  H
  H180     1.0000 0.03920  0.80730  0.71320  Biso   1.000  H
  Cu13     1.0000 0.42533  0.14257  0.58497  Biso   1.000  Cu
  Cu14     1.0000 0.40646  0.10600  0.73489  Biso   1.000  Cu
  O61      1.0000 0.58113  0.98470  0.96103  Biso   1.000  O
  O62      1.0000 0.50900  0.09900  0.84235  Biso   1.000  O
  O63      1.0000 0.42340  0.53020  0.37176  Biso   1.000  O
  O64      1.0000 0.43026  0.29130  0.63496  Biso   1.000  O
  O65      1.0000 0.41504  0.14970  0.67727  Biso   1.000  O
  O66      1.0000 0.45191  0.95870  0.77271  Biso   1.000  O
  O67      1.0000 0.34234  0.46340  0.65830  Biso   1.000  O
  N37      1.0000 0.43642  0.69870  0.43588  Biso   1.000  N
  H181     1.0000 0.44450  0.71460  0.47270  Biso   1.000  H
  N38      1.0000 0.41397  0.91130  0.31165  Biso   1.000  N
  C193     1.0000 0.55602  0.87940  0.93357  Biso   1.000  C
  C194     1.0000 0.52600  0.86030  0.86060  Biso   1.000  C
  O68      1.0000 0.55700  0.78970  0.96367  Biso   1.000  O
  C195     1.0000 0.49361  0.98140  0.82262  Biso   1.000  C
  N39      1.0000 0.43092  0.28400  0.53032  Biso   1.000  N
  C196     1.0000 0.45857  0.39060  0.55828  Biso   1.000  C
  H182     1.0000 0.47830  0.40160  0.60350  Biso   1.000  H
  C197     1.0000 0.46013  0.48610  0.52505  Biso   1.000  C
  H183     1.0000 0.48050  0.56050  0.54710  Biso   1.000  H
  C198     1.0000 0.43169  0.47200  0.45934  Biso   1.000  C
  C199     1.0000 0.42986  0.56910  0.41786  Biso   1.000  C
  C200     1.0000 0.43171  0.81110  0.40215  Biso   1.000  C
  C201     1.0000 0.40283  0.36050  0.42962  Biso   1.000  C
  H184     1.0000 0.38310  0.34650  0.38460  Biso   1.000  H
  C202     1.0000 0.40337  0.27040  0.46667  Biso   1.000  C
  H185     1.0000 0.38320  0.19530  0.44590  Biso   1.000  H
  N40      1.0000 0.14450  0.34040  0.47687  Biso   1.000  N
  C203     1.0000 0.16425  0.21820  0.49324  Biso   1.000  C
  H186     1.0000 0.14540  0.14100  0.47900  Biso   1.000  H
  C204     1.0000 0.21054  0.20310  0.52970  Biso   1.000  C
  H187     1.0000 0.22360  0.11600  0.54020  Biso   1.000  H
  C205     1.0000 0.23832  0.31390  0.55130  Biso   1.000  C
  H188     1.0000 0.27060  0.30410  0.57670  Biso   1.000  H
  C206     1.0000 0.21860  0.44080  0.53571  Biso   1.000  C
  C207     1.0000 0.17108  0.44850  0.49744  Biso   1.000  C
  H189     1.0000 0.15690  0.53430  0.48540  Biso   1.000  H
  N41      1.0000 0.24800  0.55180  0.56106  Biso   1.000  N
  H190     1.0000 0.27740  0.53590  0.58300  Biso   1.000  H
  C208     1.0000 0.42038  0.26790  0.66735  Biso   1.000  C
  N42      1.0000 0.34755  0.96420  0.67194  Biso   1.000  N
  C209     1.0000 0.35014  0.85900  0.64630  Biso   1.000  C
  H191     1.0000 0.37760  0.84780  0.65470  Biso   1.000  H
  C210     1.0000 0.31534  0.76500  0.60809  Biso   1.000  C
  H192     1.0000 0.31880  0.69240  0.59030  Biso   1.000  H
  C211     1.0000 0.27565  0.77800  0.59616  Biso   1.000  C
  C212     1.0000 0.23558  0.68180  0.55509  Biso   1.000  C
  O69      1.0000 0.19567  0.72040  0.51995  Biso   1.000  O
  C213     1.0000 0.27243  0.88660  0.62330  Biso   1.000  C
  H193     1.0000 0.24550  0.89890  0.61600  Biso   1.000  H
  C214     1.0000 0.30871  0.97570  0.66070  Biso   1.000  C
  H194     1.0000 0.30640  0.04880  0.67940  Biso   1.000  H
  C215     1.0000 0.49827  0.73030  0.83688  Biso   1.000  C
  H195     1.0000 0.47730  0.73400  0.84360  Biso   1.000  H
  H196     1.0000 0.48010  0.71880  0.79080  Biso   1.000  H
  H197     1.0000 0.51960  0.65470  0.86100  Biso   1.000  H
  C216     1.0000 0.55954  0.85350  0.85108  Biso   1.000  C
  H198     1.0000 0.58280  0.78390  0.87910  Biso   1.000  H
  H199     1.0000 0.54200  0.83220  0.80600  Biso   1.000  H
  H200     1.0000 0.57500  0.94010  0.86220  Biso   1.000  H
  C217     1.0000 0.41882  0.03310  0.33590  Biso   1.000  C
  H201     1.0000 0.41360  0.11070  0.31240  Biso   1.000  H
  C218     1.0000 0.43111  0.04790  0.39350  Biso   1.000  C
  H202     1.0000 0.43470  0.13490  0.40980  Biso   1.000  H
  C219     1.0000 0.43832  0.93650  0.42800  Biso   1.000  C
  H203     1.0000 0.44760  0.94560  0.46850  Biso   1.000  H
  C220     1.0000 0.42019  0.80210  0.34429  Biso   1.000  C
  H204     1.0000 0.41660  0.71610  0.32720  Biso   1.000  H
  O70      1.0000 0.36724  0.26430  0.70440  Biso   1.000  O
  C221     1.0000 0.37071  0.37060  0.68312  Biso   1.000  C
  C222     1.0000 0.41418  0.38840  0.69405  Biso   1.000  C
  C223     1.0000 0.41145  0.51890  0.66362  Biso   1.000  C
  H205     1.0000 0.38450  0.51590  0.61690  Biso   1.000  H
  H206     1.0000 0.40820  0.59450  0.68200  Biso   1.000  H
  H207     1.0000 0.43980  0.52980  0.67250  Biso   1.000  H
  C224     1.0000 0.45658  0.39440  0.76772  Biso   1.000  C
  H208     1.0000 0.48450  0.41660  0.77650  Biso   1.000  H
  H209     1.0000 0.45140  0.46310  0.78650  Biso   1.000  H
  H210     1.0000 0.46080  0.30730  0.78680  Biso   1.000  H
  Cu15     1.0000 0.92533  0.64257  0.58497  Biso   1.000  Cu
  Cu16     1.0000 0.90646  0.60600  0.73489  Biso   1.000  Cu
  O71      1.0000 0.08113  0.48470  0.96103  Biso   1.000  O
  O72      1.0000 0.00900  0.59900  0.84235  Biso   1.000  O
  O73      1.0000 0.92340  0.03020  0.37176  Biso   1.000  O
  O74      1.0000 0.93026  0.79130  0.63496  Biso   1.000  O
  O75      1.0000 0.91504  0.64970  0.67727  Biso   1.000  O
  O76      1.0000 0.95191  0.45870  0.77271  Biso   1.000  O
  O77      1.0000 0.84234  0.96340  0.65830  Biso   1.000  O
  N43      1.0000 0.93642  0.19870  0.43588  Biso   1.000  N
  H211     1.0000 0.94450  0.21460  0.47270  Biso   1.000  H
  N44      1.0000 0.91397  0.41130  0.31165  Biso   1.000  N
  C225     1.0000 0.05602  0.37940  0.93357  Biso   1.000  C
  C226     1.0000 0.02600  0.36030  0.86060  Biso   1.000  C
  O78      1.0000 0.05700  0.28970  0.96367  Biso   1.000  O
  C227     1.0000 0.99361  0.48140  0.82262  Biso   1.000  C
  N45      1.0000 0.93092  0.78400  0.53032  Biso   1.000  N
  C228     1.0000 0.95857  0.89060  0.55828  Biso   1.000  C
  H212     1.0000 0.97830  0.90160  0.60350  Biso   1.000  H
  C229     1.0000 0.96013  0.98610  0.52505  Biso   1.000  C
  H213     1.0000 0.98050  0.06050  0.54710  Biso   1.000  H
  C230     1.0000 0.93169  0.97200  0.45934  Biso   1.000  C
  C231     1.0000 0.92986  0.06910  0.41786  Biso   1.000  C
  C232     1.0000 0.93171  0.31110  0.40215  Biso   1.000  C
  C233     1.0000 0.90283  0.86050  0.42962  Biso   1.000  C
  H214     1.0000 0.88310  0.84650  0.38460  Biso   1.000  H
  C234     1.0000 0.90337  0.77040  0.46667  Biso   1.000  C
  H215     1.0000 0.88320  0.69530  0.44590  Biso   1.000  H
  N46      1.0000 0.64450  0.84040  0.47687  Biso   1.000  N
  C235     1.0000 0.66425  0.71820  0.49324  Biso   1.000  C
  H216     1.0000 0.64540  0.64100  0.47900  Biso   1.000  H
  C236     1.0000 0.71054  0.70310  0.52970  Biso   1.000  C
  H217     1.0000 0.72360  0.61600  0.54020  Biso   1.000  H
  C237     1.0000 0.73832  0.81390  0.55130  Biso   1.000  C
  H218     1.0000 0.77060  0.80410  0.57670  Biso   1.000  H
  C238     1.0000 0.71860  0.94080  0.53571  Biso   1.000  C
  C239     1.0000 0.67108  0.94850  0.49744  Biso   1.000  C
  H219     1.0000 0.65690  0.03430  0.48540  Biso   1.000  H
  N47      1.0000 0.74800  0.05180  0.56106  Biso   1.000  N
  H220     1.0000 0.77740  0.03590  0.58300  Biso   1.000  H
  C240     1.0000 0.92038  0.76790  0.66735  Biso   1.000  C
  N48      1.0000 0.84755  0.46420  0.67194  Biso   1.000  N
  C241     1.0000 0.85014  0.35900  0.64630  Biso   1.000  C
  H221     1.0000 0.87760  0.34780  0.65470  Biso   1.000  H
  C242     1.0000 0.81534  0.26500  0.60809  Biso   1.000  C
  H222     1.0000 0.81880  0.19240  0.59030  Biso   1.000  H
  C243     1.0000 0.77565  0.27800  0.59616  Biso   1.000  C
  C244     1.0000 0.73558  0.18180  0.55509  Biso   1.000  C
  O79      1.0000 0.69567  0.22040  0.51995  Biso   1.000  O
  C245     1.0000 0.77243  0.38660  0.62330  Biso   1.000  C
  H223     1.0000 0.74550  0.39890  0.61600  Biso   1.000  H
  C246     1.0000 0.80871  0.47570  0.66070  Biso   1.000  C
  H224     1.0000 0.80640  0.54880  0.67940  Biso   1.000  H
  C247     1.0000 0.99827  0.23030  0.83688  Biso   1.000  C
  H225     1.0000 0.97730  0.23400  0.84360  Biso   1.000  H
  H226     1.0000 0.98010  0.21880  0.79080  Biso   1.000  H
  H227     1.0000 0.01960  0.15470  0.86100  Biso   1.000  H
  C248     1.0000 0.05954  0.35350  0.85108  Biso   1.000  C
  H228     1.0000 0.08280  0.28390  0.87910  Biso   1.000  H
  H229     1.0000 0.04200  0.33220  0.80600  Biso   1.000  H
  H230     1.0000 0.07500  0.44010  0.86220  Biso   1.000  H
  C249     1.0000 0.91882  0.53310  0.33590  Biso   1.000  C
  H231     1.0000 0.91360  0.61070  0.31240  Biso   1.000  H
  C250     1.0000 0.93111  0.54790  0.39350  Biso   1.000  C
  H232     1.0000 0.93470  0.63490  0.40980  Biso   1.000  H
  C251     1.0000 0.93832  0.43650  0.42800  Biso   1.000  C
  H233     1.0000 0.94760  0.44560  0.46850  Biso   1.000  H
  C252     1.0000 0.92019  0.30210  0.34429  Biso   1.000  C
  H234     1.0000 0.91660  0.21610  0.32720  Biso   1.000  H
  O80      1.0000 0.86724  0.76430  0.70440  Biso   1.000  O
  C253     1.0000 0.87071  0.87060  0.68312  Biso   1.000  C
  C254     1.0000 0.91418  0.88840  0.69405  Biso   1.000  C
  C255     1.0000 0.91145  0.01890  0.66362  Biso   1.000  C
  H235     1.0000 0.88450  0.01590  0.61690  Biso   1.000  H
  H236     1.0000 0.90820  0.09450  0.68200  Biso   1.000  H
  H237     1.0000 0.93980  0.02980  0.67250  Biso   1.000  H
  C256     1.0000 0.95658  0.89440  0.76772  Biso   1.000  C
  H238     1.0000 0.98450  0.91660  0.77650  Biso   1.000  H
  H239     1.0000 0.95140  0.96310  0.78650  Biso   1.000  H
  H240     1.0000 0.96080  0.80730  0.78680  Biso   1.000  H
