data_image0
_cell_length_a       9.618
_cell_length_b       13.996
_cell_length_c       19.842
_cell_angle_alpha    90
_cell_angle_beta     99.182
_cell_angle_gamma    90

_symmetry_space_group_name_H-M    P 1
_symmetry_int_tables_number       1

loop_
  _symmetry_equiv_pos_as_xyz
  'x, y, z'

loop_
  _atom_site_label
  _atom_site_occupancy
  _atom_site_fract_x
  _atom_site_fract_y
  _atom_site_fract_z
  _atom_site_thermal_displace_type
  _atom_site_B_iso_or_equiv
  _atom_site_type_symbol
  Cu1      1.0000 0.76938  0.09205  0.71875  Biso   1.000  Cu
  Cu2      1.0000 0.23062  0.59205  0.78125  Biso   1.000  Cu
  Cu3      1.0000 0.23062  0.90795  0.28125  Biso   1.000  Cu
  Cu4      1.0000 0.76938  0.40795  0.21875  Biso   1.000  Cu
  Mo1      1.0000 0.29947  0.09502  0.98384  Biso   1.000  Mo
  Mo2      1.0000 0.92354  0.10164  0.03582  Biso   1.000  Mo
  Mo3      1.0000 0.00880  0.11861  0.87888  Biso   1.000  Mo
  Mo4      1.0000 0.63966  0.11074  0.92142  Biso   1.000  Mo
  Mo5      1.0000 0.70053  0.59502  0.51616  Biso   1.000  Mo
  Mo6      1.0000 0.07646  0.60164  0.46418  Biso   1.000  Mo
  Mo7      1.0000 0.99120  0.61861  0.62112  Biso   1.000  Mo
  Mo8      1.0000 0.36034  0.61074  0.57858  Biso   1.000  Mo
  Mo9      1.0000 0.70053  0.90498  0.01616  Biso   1.000  Mo
  Mo10     1.0000 0.07646  0.89836  0.96418  Biso   1.000  Mo
  Mo11     1.0000 0.99120  0.88139  0.12112  Biso   1.000  Mo
  Mo12     1.0000 0.36034  0.88926  0.07858  Biso   1.000  Mo
  Mo13     1.0000 0.29947  0.40498  0.48384  Biso   1.000  Mo
  Mo14     1.0000 0.92354  0.39836  0.53582  Biso   1.000  Mo
  Mo15     1.0000 0.00880  0.38139  0.37888  Biso   1.000  Mo
  Mo16     1.0000 0.63966  0.38926  0.42142  Biso   1.000  Mo
  H1       1.0000 0.06640  0.72250  0.24720  Biso   1.000  H
  H2       1.0000 0.10360  0.93620  0.76290  Biso   1.000  H
  H3       1.0000 0.32370  0.99170  0.80960  Biso   1.000  H
  H4       1.0000 0.50690  0.87940  0.83980  Biso   1.000  H
  H5       1.0000 0.53210  0.03300  0.33750  Biso   1.000  H
  H6       1.0000 0.75550  0.56010  0.85650  Biso   1.000  H
  H7       1.0000 0.70980  0.80450  0.87870  Biso   1.000  H
  H8       1.0000 0.82360  0.73190  0.86180  Biso   1.000  H
  H9       1.0000 0.67660  0.69340  0.71480  Biso   1.000  H
  H10      1.0000 0.68600  0.77800  0.61290  Biso   1.000  H
  H11      1.0000 0.74220  0.93770  0.61930  Biso   1.000  H
  H12      1.0000 0.77530  0.93480  0.81680  Biso   1.000  H
  H13      1.0000 0.93360  0.22250  0.25280  Biso   1.000  H
  H14      1.0000 0.89640  0.43620  0.73710  Biso   1.000  H
  H15      1.0000 0.67630  0.49170  0.69040  Biso   1.000  H
  H16      1.0000 0.49310  0.37940  0.66020  Biso   1.000  H
  H17      1.0000 0.46790  0.53300  0.16250  Biso   1.000  H
  H18      1.0000 0.24450  0.06010  0.64350  Biso   1.000  H
  H19      1.0000 0.29020  0.30450  0.62130  Biso   1.000  H
  H20      1.0000 0.17640  0.23190  0.63820  Biso   1.000  H
  H21      1.0000 0.32340  0.19340  0.78520  Biso   1.000  H
  H22      1.0000 0.31400  0.27800  0.88710  Biso   1.000  H
  H23      1.0000 0.25780  0.43770  0.88070  Biso   1.000  H
  H24      1.0000 0.22470  0.43480  0.68320  Biso   1.000  H
  H25      1.0000 0.93360  0.27750  0.75280  Biso   1.000  H
  H26      1.0000 0.89640  0.06380  0.23710  Biso   1.000  H
  H27      1.0000 0.67630  0.00830  0.19040  Biso   1.000  H
  H28      1.0000 0.49310  0.12060  0.16020  Biso   1.000  H
  H29      1.0000 0.46790  0.96700  0.66250  Biso   1.000  H
  H30      1.0000 0.24450  0.43990  0.14350  Biso   1.000  H
  H31      1.0000 0.29020  0.19550  0.12130  Biso   1.000  H
  H32      1.0000 0.17640  0.26810  0.13820  Biso   1.000  H
  H33      1.0000 0.32340  0.30660  0.28520  Biso   1.000  H
  H34      1.0000 0.31400  0.22200  0.38710  Biso   1.000  H
  H35      1.0000 0.25780  0.06230  0.38070  Biso   1.000  H
  H36      1.0000 0.22470  0.06520  0.18320  Biso   1.000  H
  H37      1.0000 0.06640  0.77750  0.74720  Biso   1.000  H
  H38      1.0000 0.10360  0.56380  0.26290  Biso   1.000  H
  H39      1.0000 0.32370  0.50830  0.30960  Biso   1.000  H
  H40      1.0000 0.50690  0.62060  0.33980  Biso   1.000  H
  H41      1.0000 0.53210  0.46700  0.83750  Biso   1.000  H
  H42      1.0000 0.75550  0.93990  0.35650  Biso   1.000  H
  H43      1.0000 0.70980  0.69550  0.37870  Biso   1.000  H
  H44      1.0000 0.82360  0.76810  0.36180  Biso   1.000  H
  H45      1.0000 0.67660  0.80660  0.21480  Biso   1.000  H
  H46      1.0000 0.68600  0.72200  0.11290  Biso   1.000  H
  H47      1.0000 0.74220  0.56230  0.11930  Biso   1.000  H
  H48      1.0000 0.77530  0.56520  0.31680  Biso   1.000  H
  C1       1.0000 0.15570  0.70150  0.26650  Biso   1.000  C
  C2       1.0000 0.17740  0.60650  0.27540  Biso   1.000  C
  C3       1.0000 0.30730  0.92670  0.80290  Biso   1.000  C
  C4       1.0000 0.41700  0.64080  0.32090  Biso   1.000  C
  C5       1.0000 0.38870  0.73690  0.31020  Biso   1.000  C
  C6       1.0000 0.48450  0.68450  0.82630  Biso   1.000  C
  C7       1.0000 0.54020  0.96680  0.33630  Biso   1.000  C
  C8       1.0000 0.66470  0.58480  0.84710  Biso   1.000  C
  C9       1.0000 0.73060  0.75760  0.84570  Biso   1.000  C
  C10      1.0000 0.73040  0.80690  0.77610  Biso   1.000  C
  C11      1.0000 0.69980  0.75800  0.71560  Biso   1.000  C
  C12      1.0000 0.70480  0.80840  0.65510  Biso   1.000  C
  C13      1.0000 0.73810  0.90420  0.65940  Biso   1.000  C
  C14      1.0000 0.75900  0.90240  0.77540  Biso   1.000  C
  C15      1.0000 0.84430  0.20150  0.23350  Biso   1.000  C
  C16      1.0000 0.82260  0.10650  0.22460  Biso   1.000  C
  C17      1.0000 0.69270  0.42670  0.69710  Biso   1.000  C
  C18      1.0000 0.58300  0.14080  0.17910  Biso   1.000  C
  C19      1.0000 0.61130  0.23690  0.18980  Biso   1.000  C
  C20      1.0000 0.51550  0.18450  0.67370  Biso   1.000  C
  C21      1.0000 0.45980  0.46680  0.16370  Biso   1.000  C
  C22      1.0000 0.33530  0.08480  0.65290  Biso   1.000  C
  C23      1.0000 0.26940  0.25760  0.65430  Biso   1.000  C
  C24      1.0000 0.26960  0.30690  0.72390  Biso   1.000  C
  C25      1.0000 0.30020  0.25800  0.78440  Biso   1.000  C
  C26      1.0000 0.29520  0.30840  0.84490  Biso   1.000  C
  C27      1.0000 0.26190  0.40420  0.84060  Biso   1.000  C
  C28      1.0000 0.24100  0.40240  0.72460  Biso   1.000  C
  C29      1.0000 0.84430  0.29850  0.73350  Biso   1.000  C
  C30      1.0000 0.82260  0.39350  0.72460  Biso   1.000  C
  C31      1.0000 0.69270  0.07330  0.19710  Biso   1.000  C
  C32      1.0000 0.58300  0.35920  0.67910  Biso   1.000  C
  C33      1.0000 0.61130  0.26310  0.68980  Biso   1.000  C
  C34      1.0000 0.51550  0.31550  0.17370  Biso   1.000  C
  C35      1.0000 0.45980  0.03320  0.66370  Biso   1.000  C
  C36      1.0000 0.33530  0.41520  0.15290  Biso   1.000  C
  C37      1.0000 0.26940  0.24240  0.15430  Biso   1.000  C
  C38      1.0000 0.26960  0.19310  0.22390  Biso   1.000  C
  C39      1.0000 0.30020  0.24200  0.28440  Biso   1.000  C
  C40      1.0000 0.29520  0.19160  0.34490  Biso   1.000  C
  C41      1.0000 0.26190  0.09580  0.34060  Biso   1.000  C
  C42      1.0000 0.24100  0.09760  0.22460  Biso   1.000  C
  C43      1.0000 0.15570  0.79850  0.76650  Biso   1.000  C
  C44      1.0000 0.17740  0.89350  0.77540  Biso   1.000  C
  C45      1.0000 0.30730  0.57330  0.30290  Biso   1.000  C
  C46      1.0000 0.41700  0.85920  0.82090  Biso   1.000  C
  C47      1.0000 0.38870  0.76310  0.81020  Biso   1.000  C
  C48      1.0000 0.48450  0.81550  0.32630  Biso   1.000  C
  C49      1.0000 0.54020  0.53320  0.83630  Biso   1.000  C
  C50      1.0000 0.66470  0.91520  0.34710  Biso   1.000  C
  C51      1.0000 0.73060  0.74240  0.34570  Biso   1.000  C
  C52      1.0000 0.73040  0.69310  0.27610  Biso   1.000  C
  C53      1.0000 0.69980  0.74200  0.21560  Biso   1.000  C
  C54      1.0000 0.70480  0.69160  0.15510  Biso   1.000  C
  C55      1.0000 0.73810  0.59580  0.15940  Biso   1.000  C
  C56      1.0000 0.75900  0.59760  0.27540  Biso   1.000  C
  N1       1.0000 0.25630  0.76630  0.28410  Biso   1.000  N
  N2       1.0000 0.43100  0.90310  0.32320  Biso   1.000  N
  N3       1.0000 0.62740  0.68070  0.84130  Biso   1.000  N
  N4       1.0000 0.76480  0.95100  0.71880  Biso   1.000  N
  N5       1.0000 0.74370  0.26630  0.21590  Biso   1.000  N
  N6       1.0000 0.56900  0.40310  0.17680  Biso   1.000  N
  N7       1.0000 0.37260  0.18070  0.65870  Biso   1.000  N
  N8       1.0000 0.23520  0.45100  0.78120  Biso   1.000  N
  N9       1.0000 0.74370  0.23370  0.71590  Biso   1.000  N
  N10      1.0000 0.56900  0.09690  0.67680  Biso   1.000  N
  N11      1.0000 0.37260  0.31930  0.15870  Biso   1.000  N
  N12      1.0000 0.23520  0.04900  0.28120  Biso   1.000  N
  N13      1.0000 0.25630  0.73370  0.78410  Biso   1.000  N
  N14      1.0000 0.43100  0.59690  0.82320  Biso   1.000  N
  N15      1.0000 0.62740  0.81930  0.34130  Biso   1.000  N
  N16      1.0000 0.76480  0.54900  0.21880  Biso   1.000  N
  O1       1.0000 0.29940  0.21380  0.99830  Biso   1.000  O
  O2       1.0000 0.19920  0.09610  0.88450  Biso   1.000  O
  O3       1.0000 0.08380  0.07710  0.98570  Biso   1.000  O
  O4       1.0000 0.00930  0.23960  0.88540  Biso   1.000  O
  O5       1.0000 0.93160  0.09760  0.79450  Biso   1.000  O
  O6       1.0000 0.84620  0.10030  0.92810  Biso   1.000  O
  O7       1.0000 0.00030  0.95090  0.88750  Biso   1.000  O
  O8       1.0000 0.93320  0.22080  0.05000  Biso   1.000  O
  O9       1.0000 0.26520  0.92870  0.97000  Biso   1.000  O
  O10      1.0000 0.33830  0.04920  0.06760  Biso   1.000  O
  O11      1.0000 0.60010  0.09940  0.83560  Biso   1.000  O
  O12      1.0000 0.62940  0.22970  0.93540  Biso   1.000  O
  O13      1.0000 0.46330  0.07590  0.94900  Biso   1.000  O
  O14      1.0000 0.70060  0.71380  0.50170  Biso   1.000  O
  O15      1.0000 0.80080  0.59610  0.61550  Biso   1.000  O
  O16      1.0000 0.91620  0.57710  0.51430  Biso   1.000  O
  O17      1.0000 0.99070  0.73960  0.61460  Biso   1.000  O
  O18      1.0000 0.06840  0.59760  0.70550  Biso   1.000  O
  O19      1.0000 0.15380  0.60030  0.57190  Biso   1.000  O
  O20      1.0000 0.99970  0.45090  0.61250  Biso   1.000  O
  O21      1.0000 0.06680  0.72080  0.45000  Biso   1.000  O
  O22      1.0000 0.73480  0.42870  0.53000  Biso   1.000  O
  O23      1.0000 0.66170  0.54920  0.43240  Biso   1.000  O
  O24      1.0000 0.39990  0.59940  0.66440  Biso   1.000  O
  O25      1.0000 0.37060  0.72970  0.56460  Biso   1.000  O
  O26      1.0000 0.53670  0.57590  0.55100  Biso   1.000  O
  O27      1.0000 0.70060  0.78620  0.00170  Biso   1.000  O
  O28      1.0000 0.80080  0.90390  0.11550  Biso   1.000  O
  O29      1.0000 0.91620  0.92290  0.01430  Biso   1.000  O
  O30      1.0000 0.99070  0.76040  0.11460  Biso   1.000  O
  O31      1.0000 0.06840  0.90240  0.20550  Biso   1.000  O
  O32      1.0000 0.15380  0.89970  0.07190  Biso   1.000  O
  O33      1.0000 0.99970  0.04910  0.11250  Biso   1.000  O
  O34      1.0000 0.06680  0.77920  0.95000  Biso   1.000  O
  O35      1.0000 0.73480  0.07130  0.03000  Biso   1.000  O
  O36      1.0000 0.66170  0.95080  0.93240  Biso   1.000  O
  O37      1.0000 0.39990  0.90060  0.16440  Biso   1.000  O
  O38      1.0000 0.37060  0.77030  0.06460  Biso   1.000  O
  O39      1.0000 0.53670  0.92410  0.05100  Biso   1.000  O
  O40      1.0000 0.29940  0.28620  0.49830  Biso   1.000  O
  O41      1.0000 0.19920  0.40390  0.38450  Biso   1.000  O
  O42      1.0000 0.08380  0.42290  0.48570  Biso   1.000  O
  O43      1.0000 0.00930  0.26040  0.38540  Biso   1.000  O
  O44      1.0000 0.93160  0.40240  0.29450  Biso   1.000  O
  O45      1.0000 0.84620  0.39970  0.42810  Biso   1.000  O
  O46      1.0000 0.00030  0.54910  0.38750  Biso   1.000  O
  O47      1.0000 0.93320  0.27920  0.55000  Biso   1.000  O
  O48      1.0000 0.26520  0.57130  0.47000  Biso   1.000  O
  O49      1.0000 0.33830  0.45080  0.56760  Biso   1.000  O
  O50      1.0000 0.60010  0.40060  0.33560  Biso   1.000  O
  O51      1.0000 0.62940  0.27030  0.43540  Biso   1.000  O
  O52      1.0000 0.46330  0.42410  0.44900  Biso   1.000  O
