data_image0
_cell_length_a       20.01
_cell_length_b       13.193
_cell_length_c       9.895
_cell_angle_alpha    90
_cell_angle_beta     113.142
_cell_angle_gamma    90

_symmetry_space_group_name_H-M    "P 1"
_symmetry_int_tables_number       1

loop_
  _symmetry_equiv_pos_as_xyz
  'x, y, z'

loop_
  _atom_site_label
  _atom_site_occupancy
  _atom_site_fract_x
  _atom_site_fract_y
  _atom_site_fract_z
  _atom_site_thermal_displace_type
  _atom_site_B_iso_or_equiv
  _atom_site_type_symbol
  O1       1.0000 0.41754  0.41590  0.35290  Biso   1.000  O
  O2       1.0000 0.41092  0.50670  0.53570  Biso   1.000  O
  O3       1.0000 0.54069  0.61570  0.20420  Biso   1.000  O
  C1       1.0000 0.38520  0.44710  0.43040  Biso   1.000  C
  C2       1.0000 0.30820  0.40990  0.39150  Biso   1.000  C
  C3       1.0000 0.26830  0.37260  0.25270  Biso   1.000  C
  H1       1.0000 0.28880  0.36950  0.18310  Biso   1.000  H
  C4       1.0000 0.19640  0.33920  0.21680  Biso   1.000  C
  C5       1.0000 0.16770  0.34130  0.32230  Biso   1.000  C
  H2       1.0000 0.12040  0.31900  0.29930  Biso   1.000  H
  C6       1.0000 0.20860  0.37610  0.46190  Biso   1.000  C
  H3       1.0000 0.18910  0.37530  0.53320  Biso   1.000  H
  C7       1.0000 0.27900  0.41250  0.49720  Biso   1.000  C
  H4       1.0000 0.30600  0.43810  0.59050  Biso   1.000  H
  C8       1.0000 0.15380  0.30530  0.06470  Biso   1.000  C
  C9       1.0000 0.15490  0.33720  0.93370  Biso   1.000  C
  H5       1.0000 0.18520  0.38610  0.92020  Biso   1.000  H
  C10      1.0000 0.10190  0.28200  0.82590  Biso   1.000  C
  H6       1.0000 0.09040  0.28920  0.72570  Biso   1.000  H
  N1       1.0000 0.06910  0.21690  0.88380  Biso   1.000  N
  N2       1.0000 0.10190  0.23340  0.03020  Biso   1.000  N
  H7       1.0000 0.09090  0.20140  0.09430  Biso   1.000  H
  O4       1.0000 0.91754  0.91590  0.35290  Biso   1.000  O
  O5       1.0000 0.91092  0.00670  0.53570  Biso   1.000  O
  O6       1.0000 0.04069  0.11570  0.20420  Biso   1.000  O
  C11      1.0000 0.88520  0.94710  0.43040  Biso   1.000  C
  C12      1.0000 0.80820  0.90990  0.39150  Biso   1.000  C
  C13      1.0000 0.76830  0.87260  0.25270  Biso   1.000  C
  H8       1.0000 0.78880  0.86950  0.18310  Biso   1.000  H
  C14      1.0000 0.69640  0.83920  0.21680  Biso   1.000  C
  C15      1.0000 0.66770  0.84130  0.32230  Biso   1.000  C
  H9       1.0000 0.62040  0.81900  0.29930  Biso   1.000  H
  C16      1.0000 0.70860  0.87610  0.46190  Biso   1.000  C
  H10      1.0000 0.68910  0.87530  0.53320  Biso   1.000  H
  C17      1.0000 0.77900  0.91250  0.49720  Biso   1.000  C
  H11      1.0000 0.80600  0.93810  0.59050  Biso   1.000  H
  C18      1.0000 0.65380  0.80530  0.06470  Biso   1.000  C
  C19      1.0000 0.65490  0.83720  0.93370  Biso   1.000  C
  H12      1.0000 0.68520  0.88610  0.92020  Biso   1.000  H
  C20      1.0000 0.60190  0.78200  0.82590  Biso   1.000  C
  H13      1.0000 0.59040  0.78920  0.72570  Biso   1.000  H
  N3       1.0000 0.56910  0.71690  0.88380  Biso   1.000  N
  N4       1.0000 0.60190  0.73340  0.03020  Biso   1.000  N
  H14      1.0000 0.59090  0.70140  0.09430  Biso   1.000  H
  O7       1.0000 0.58246  0.41590  0.14710  Biso   1.000  O
  O8       1.0000 0.58908  0.50670  0.96430  Biso   1.000  O
  O9       1.0000 0.45931  0.61570  0.29580  Biso   1.000  O
  C21      1.0000 0.61480  0.44710  0.06960  Biso   1.000  C
  C22      1.0000 0.69180  0.40990  0.10850  Biso   1.000  C
  C23      1.0000 0.73170  0.37260  0.24730  Biso   1.000  C
  H15      1.0000 0.71120  0.36950  0.31690  Biso   1.000  H
  C24      1.0000 0.80360  0.33920  0.28320  Biso   1.000  C
  C25      1.0000 0.83230  0.34130  0.17770  Biso   1.000  C
  H16      1.0000 0.87960  0.31900  0.20070  Biso   1.000  H
  C26      1.0000 0.79140  0.37610  0.03810  Biso   1.000  C
  H17      1.0000 0.81090  0.37530  0.96680  Biso   1.000  H
  C27      1.0000 0.72100  0.41250  0.00280  Biso   1.000  C
  H18      1.0000 0.69400  0.43810  0.90950  Biso   1.000  H
  C28      1.0000 0.84620  0.30530  0.43530  Biso   1.000  C
  C29      1.0000 0.84510  0.33720  0.56630  Biso   1.000  C
  H19      1.0000 0.81480  0.38610  0.57980  Biso   1.000  H
  C30      1.0000 0.89810  0.28200  0.67410  Biso   1.000  C
  H20      1.0000 0.90960  0.28920  0.77430  Biso   1.000  H
  N5       1.0000 0.93090  0.21690  0.61620  Biso   1.000  N
  N6       1.0000 0.89810  0.23340  0.46980  Biso   1.000  N
  H21      1.0000 0.90910  0.20140  0.40570  Biso   1.000  H
  O10      1.0000 0.08246  0.91590  0.14710  Biso   1.000  O
  O11      1.0000 0.08908  0.00670  0.96430  Biso   1.000  O
  O12      1.0000 0.95931  0.11570  0.29580  Biso   1.000  O
  C31      1.0000 0.11480  0.94710  0.06960  Biso   1.000  C
  C32      1.0000 0.19180  0.90990  0.10850  Biso   1.000  C
  C33      1.0000 0.23170  0.87260  0.24730  Biso   1.000  C
  H22      1.0000 0.21120  0.86950  0.31690  Biso   1.000  H
  C34      1.0000 0.30360  0.83920  0.28320  Biso   1.000  C
  C35      1.0000 0.33230  0.84130  0.17770  Biso   1.000  C
  H23      1.0000 0.37960  0.81900  0.20070  Biso   1.000  H
  C36      1.0000 0.29140  0.87610  0.03810  Biso   1.000  C
  H24      1.0000 0.31090  0.87530  0.96680  Biso   1.000  H
  C37      1.0000 0.22100  0.91250  0.00280  Biso   1.000  C
  H25      1.0000 0.19400  0.93810  0.90950  Biso   1.000  H
  C38      1.0000 0.34620  0.80530  0.43530  Biso   1.000  C
  C39      1.0000 0.34510  0.83720  0.56630  Biso   1.000  C
  H26      1.0000 0.31480  0.88610  0.57980  Biso   1.000  H
  C40      1.0000 0.39810  0.78200  0.67410  Biso   1.000  C
  H27      1.0000 0.40960  0.78920  0.77430  Biso   1.000  H
  N7       1.0000 0.43090  0.71690  0.61620  Biso   1.000  N
  N8       1.0000 0.39810  0.73340  0.46980  Biso   1.000  N
  H28      1.0000 0.40910  0.70140  0.40570  Biso   1.000  H
  O13      1.0000 0.58246  0.58410  0.64710  Biso   1.000  O
  O14      1.0000 0.58908  0.49330  0.46430  Biso   1.000  O
  O15      1.0000 0.45931  0.38430  0.79580  Biso   1.000  O
  C41      1.0000 0.61480  0.55290  0.56960  Biso   1.000  C
  C42      1.0000 0.69180  0.59010  0.60850  Biso   1.000  C
  C43      1.0000 0.73170  0.62740  0.74730  Biso   1.000  C
  H29      1.0000 0.71120  0.63050  0.81690  Biso   1.000  H
  C44      1.0000 0.80360  0.66080  0.78320  Biso   1.000  C
  C45      1.0000 0.83230  0.65870  0.67770  Biso   1.000  C
  H30      1.0000 0.87960  0.68100  0.70070  Biso   1.000  H
  C46      1.0000 0.79140  0.62390  0.53810  Biso   1.000  C
  H31      1.0000 0.81090  0.62470  0.46680  Biso   1.000  H
  C47      1.0000 0.72100  0.58750  0.50280  Biso   1.000  C
  H32      1.0000 0.69400  0.56190  0.40950  Biso   1.000  H
  C48      1.0000 0.84620  0.69470  0.93530  Biso   1.000  C
  C49      1.0000 0.84510  0.66280  0.06630  Biso   1.000  C
  H33      1.0000 0.81480  0.61390  0.07980  Biso   1.000  H
  C50      1.0000 0.89810  0.71800  0.17410  Biso   1.000  C
  H34      1.0000 0.90960  0.71080  0.27430  Biso   1.000  H
  N9       1.0000 0.93090  0.78310  0.11620  Biso   1.000  N
  N10      1.0000 0.89810  0.76660  0.96980  Biso   1.000  N
  H35      1.0000 0.90910  0.79860  0.90570  Biso   1.000  H
  O16      1.0000 0.08246  0.08410  0.64710  Biso   1.000  O
  O17      1.0000 0.08908  0.99330  0.46430  Biso   1.000  O
  O18      1.0000 0.95931  0.88430  0.79580  Biso   1.000  O
  C51      1.0000 0.11480  0.05290  0.56960  Biso   1.000  C
  C52      1.0000 0.19180  0.09010  0.60850  Biso   1.000  C
  C53      1.0000 0.23170  0.12740  0.74730  Biso   1.000  C
  H36      1.0000 0.21120  0.13050  0.81690  Biso   1.000  H
  C54      1.0000 0.30360  0.16080  0.78320  Biso   1.000  C
  C55      1.0000 0.33230  0.15870  0.67770  Biso   1.000  C
  H37      1.0000 0.37960  0.18100  0.70070  Biso   1.000  H
  C56      1.0000 0.29140  0.12390  0.53810  Biso   1.000  C
  H38      1.0000 0.31090  0.12470  0.46680  Biso   1.000  H
  C57      1.0000 0.22100  0.08750  0.50280  Biso   1.000  C
  H39      1.0000 0.19400  0.06190  0.40950  Biso   1.000  H
  C58      1.0000 0.34620  0.19470  0.93530  Biso   1.000  C
  C59      1.0000 0.34510  0.16280  0.06630  Biso   1.000  C
  H40      1.0000 0.31480  0.11390  0.07980  Biso   1.000  H
  C60      1.0000 0.39810  0.21800  0.17410  Biso   1.000  C
  H41      1.0000 0.40960  0.21080  0.27430  Biso   1.000  H
  N11      1.0000 0.43090  0.28310  0.11620  Biso   1.000  N
  N12      1.0000 0.39810  0.26660  0.96980  Biso   1.000  N
  H42      1.0000 0.40910  0.29860  0.90570  Biso   1.000  H
  O19      1.0000 0.41754  0.58410  0.85290  Biso   1.000  O
  O20      1.0000 0.41092  0.49330  0.03570  Biso   1.000  O
  O21      1.0000 0.54069  0.38430  0.70420  Biso   1.000  O
  C61      1.0000 0.38520  0.55290  0.93040  Biso   1.000  C
  C62      1.0000 0.30820  0.59010  0.89150  Biso   1.000  C
  C63      1.0000 0.26830  0.62740  0.75270  Biso   1.000  C
  H43      1.0000 0.28880  0.63050  0.68310  Biso   1.000  H
  C64      1.0000 0.19640  0.66080  0.71680  Biso   1.000  C
  C65      1.0000 0.16770  0.65870  0.82230  Biso   1.000  C
  H44      1.0000 0.12040  0.68100  0.79930  Biso   1.000  H
  C66      1.0000 0.20860  0.62390  0.96190  Biso   1.000  C
  H45      1.0000 0.18910  0.62470  0.03320  Biso   1.000  H
  C67      1.0000 0.27900  0.58750  0.99720  Biso   1.000  C
  H46      1.0000 0.30600  0.56190  0.09050  Biso   1.000  H
  C68      1.0000 0.15380  0.69470  0.56470  Biso   1.000  C
  C69      1.0000 0.15490  0.66280  0.43370  Biso   1.000  C
  H47      1.0000 0.18520  0.61390  0.42020  Biso   1.000  H
  C70      1.0000 0.10190  0.71800  0.32590  Biso   1.000  C
  H48      1.0000 0.09040  0.71080  0.22570  Biso   1.000  H
  N13      1.0000 0.06910  0.78310  0.38380  Biso   1.000  N
  N14      1.0000 0.10190  0.76660  0.53020  Biso   1.000  N
  H49      1.0000 0.09090  0.79860  0.59430  Biso   1.000  H
  O22      1.0000 0.91754  0.08410  0.85290  Biso   1.000  O
  O23      1.0000 0.91092  0.99330  0.03570  Biso   1.000  O
  O24      1.0000 0.04069  0.88430  0.70420  Biso   1.000  O
  C71      1.0000 0.88520  0.05290  0.93040  Biso   1.000  C
  C72      1.0000 0.80820  0.09010  0.89150  Biso   1.000  C
  C73      1.0000 0.76830  0.12740  0.75270  Biso   1.000  C
  H50      1.0000 0.78880  0.13050  0.68310  Biso   1.000  H
  C74      1.0000 0.69640  0.16080  0.71680  Biso   1.000  C
  C75      1.0000 0.66770  0.15870  0.82230  Biso   1.000  C
  H51      1.0000 0.62040  0.18100  0.79930  Biso   1.000  H
  C76      1.0000 0.70860  0.12390  0.96190  Biso   1.000  C
  H52      1.0000 0.68910  0.12470  0.03320  Biso   1.000  H
  C77      1.0000 0.77900  0.08750  0.99720  Biso   1.000  C
  H53      1.0000 0.80600  0.06190  0.09050  Biso   1.000  H
  C78      1.0000 0.65380  0.19470  0.56470  Biso   1.000  C
  C79      1.0000 0.65490  0.16280  0.43370  Biso   1.000  C
  H54      1.0000 0.68520  0.11390  0.42020  Biso   1.000  H
  C80      1.0000 0.60190  0.21800  0.32590  Biso   1.000  C
  H55      1.0000 0.59040  0.21080  0.22570  Biso   1.000  H
  N15      1.0000 0.56910  0.28310  0.38380  Biso   1.000  N
  N16      1.0000 0.60190  0.26660  0.53020  Biso   1.000  N
  H56      1.0000 0.59090  0.29860  0.59430  Biso   1.000  H
  Tb1      1.0000 0.50000  0.44129  0.25000  Biso   1.000  Tb
  O25      1.0000 0.50000  0.75820  0.25000  Biso   1.000  O
  N17      1.0000 0.50000  0.66700  0.25000  Biso   1.000  N
  Tb2      1.0000 0.00000  0.94129  0.25000  Biso   1.000  Tb
  O26      1.0000 0.00000  0.25820  0.25000  Biso   1.000  O
  N18      1.0000 0.00000  0.16700  0.25000  Biso   1.000  N
  Tb3      1.0000 0.50000  0.55871  0.75000  Biso   1.000  Tb
  O27      1.0000 0.50000  0.24180  0.75000  Biso   1.000  O
  N19      1.0000 0.50000  0.33300  0.75000  Biso   1.000  N
  Tb4      1.0000 0.00000  0.05871  0.75000  Biso   1.000  Tb
  O28      1.0000 0.00000  0.74180  0.75000  Biso   1.000  O
  N20      1.0000 0.00000  0.83300  0.75000  Biso   1.000  N
