data_image0
_cell_length_a       19.974
_cell_length_b       13.135
_cell_length_c       9.901
_cell_angle_alpha    90
_cell_angle_beta     113.308
_cell_angle_gamma    90

_symmetry_space_group_name_H-M    "P 1"
_symmetry_int_tables_number       1

loop_
  _symmetry_equiv_pos_as_xyz
  'x, y, z'

loop_
  _atom_site_label
  _atom_site_occupancy
  _atom_site_fract_x
  _atom_site_fract_y
  _atom_site_fract_z
  _atom_site_thermal_displace_type
  _atom_site_B_iso_or_equiv
  _atom_site_type_symbol
  O1       1.0000 0.08380  0.08450  0.14870  Biso   1.000  O
  O2       1.0000 0.08962  0.99410  0.96590  Biso   1.000  O
  O3       1.0000 0.95992  0.88250  0.29640  Biso   1.000  O
  N1       1.0000 0.43100  0.28170  0.61370  Biso   1.000  N
  N2       1.0000 0.39790  0.26520  0.46850  Biso   1.000  N
  H1       1.0000 0.40910  0.29680  0.40420  Biso   1.000  H
  C1       1.0000 0.11570  0.05320  0.07130  Biso   1.000  C
  C2       1.0000 0.19210  0.09010  0.10930  Biso   1.000  C
  C3       1.0000 0.23220  0.12700  0.24690  Biso   1.000  C
  H2       1.0000 0.21170  0.12960  0.31640  Biso   1.000  H
  C4       1.0000 0.30310  0.16070  0.28360  Biso   1.000  C
  C5       1.0000 0.33120  0.15990  0.17700  Biso   1.000  C
  H3       1.0000 0.37820  0.18380  0.19930  Biso   1.000  H
  C6       1.0000 0.29040  0.12410  0.03810  Biso   1.000  C
  H4       1.0000 0.30990  0.12440  0.96690  Biso   1.000  H
  C7       1.0000 0.22140  0.08800  0.00400  Biso   1.000  C
  H5       1.0000 0.19430  0.06220  0.91070  Biso   1.000  H
  C8       1.0000 0.34560  0.19420  0.43420  Biso   1.000  C
  C9       1.0000 0.34370  0.16240  0.56410  Biso   1.000  C
  H6       1.0000 0.31310  0.11370  0.57740  Biso   1.000  H
  C10      1.0000 0.39760  0.21850  0.67170  Biso   1.000  C
  H7       1.0000 0.40890  0.21250  0.77200  Biso   1.000  H
  O4       1.0000 0.58380  0.58450  0.14870  Biso   1.000  O
  O5       1.0000 0.58962  0.49410  0.96590  Biso   1.000  O
  O6       1.0000 0.45992  0.38250  0.29640  Biso   1.000  O
  N3       1.0000 0.93100  0.78170  0.61370  Biso   1.000  N
  N4       1.0000 0.89790  0.76520  0.46850  Biso   1.000  N
  H8       1.0000 0.90910  0.79680  0.40420  Biso   1.000  H
  C11      1.0000 0.61570  0.55320  0.07130  Biso   1.000  C
  C12      1.0000 0.69210  0.59010  0.10930  Biso   1.000  C
  C13      1.0000 0.73220  0.62700  0.24690  Biso   1.000  C
  H9       1.0000 0.71170  0.62960  0.31640  Biso   1.000  H
  C14      1.0000 0.80310  0.66070  0.28360  Biso   1.000  C
  C15      1.0000 0.83120  0.65990  0.17700  Biso   1.000  C
  H10      1.0000 0.87820  0.68380  0.19930  Biso   1.000  H
  C16      1.0000 0.79040  0.62410  0.03810  Biso   1.000  C
  H11      1.0000 0.80990  0.62440  0.96690  Biso   1.000  H
  C17      1.0000 0.72140  0.58800  0.00400  Biso   1.000  C
  H12      1.0000 0.69430  0.56220  0.91070  Biso   1.000  H
  C18      1.0000 0.84560  0.69420  0.43420  Biso   1.000  C
  C19      1.0000 0.84370  0.66240  0.56410  Biso   1.000  C
  H13      1.0000 0.81310  0.61370  0.57740  Biso   1.000  H
  C20      1.0000 0.89760  0.71850  0.67170  Biso   1.000  C
  H14      1.0000 0.90890  0.71250  0.77200  Biso   1.000  H
  O7       1.0000 0.91620  0.08450  0.35130  Biso   1.000  O
  O8       1.0000 0.91038  0.99410  0.53410  Biso   1.000  O
  O9       1.0000 0.04008  0.88250  0.20360  Biso   1.000  O
  N5       1.0000 0.56900  0.28170  0.88630  Biso   1.000  N
  N6       1.0000 0.60210  0.26520  0.03150  Biso   1.000  N
  H15      1.0000 0.59090  0.29680  0.09580  Biso   1.000  H
  C21      1.0000 0.88430  0.05320  0.42870  Biso   1.000  C
  C22      1.0000 0.80790  0.09010  0.39070  Biso   1.000  C
  C23      1.0000 0.76780  0.12700  0.25310  Biso   1.000  C
  H16      1.0000 0.78830  0.12960  0.18360  Biso   1.000  H
  C24      1.0000 0.69690  0.16070  0.21640  Biso   1.000  C
  C25      1.0000 0.66880  0.15990  0.32300  Biso   1.000  C
  H17      1.0000 0.62180  0.18380  0.30070  Biso   1.000  H
  C26      1.0000 0.70960  0.12410  0.46190  Biso   1.000  C
  H18      1.0000 0.69010  0.12440  0.53310  Biso   1.000  H
  C27      1.0000 0.77860  0.08800  0.49600  Biso   1.000  C
  H19      1.0000 0.80570  0.06220  0.58930  Biso   1.000  H
  C28      1.0000 0.65440  0.19420  0.06580  Biso   1.000  C
  C29      1.0000 0.65630  0.16240  0.93590  Biso   1.000  C
  H20      1.0000 0.68690  0.11370  0.92260  Biso   1.000  H
  C30      1.0000 0.60240  0.21850  0.82830  Biso   1.000  C
  H21      1.0000 0.59110  0.21250  0.72800  Biso   1.000  H
  O10      1.0000 0.41620  0.58450  0.35130  Biso   1.000  O
  O11      1.0000 0.41038  0.49410  0.53410  Biso   1.000  O
  O12      1.0000 0.54008  0.38250  0.20360  Biso   1.000  O
  N7       1.0000 0.06900  0.78170  0.88630  Biso   1.000  N
  N8       1.0000 0.10210  0.76520  0.03150  Biso   1.000  N
  H22      1.0000 0.09090  0.79680  0.09580  Biso   1.000  H
  C31      1.0000 0.38430  0.55320  0.42870  Biso   1.000  C
  C32      1.0000 0.30790  0.59010  0.39070  Biso   1.000  C
  C33      1.0000 0.26780  0.62700  0.25310  Biso   1.000  C
  H23      1.0000 0.28830  0.62960  0.18360  Biso   1.000  H
  C34      1.0000 0.19690  0.66070  0.21640  Biso   1.000  C
  C35      1.0000 0.16880  0.65990  0.32300  Biso   1.000  C
  H24      1.0000 0.12180  0.68380  0.30070  Biso   1.000  H
  C36      1.0000 0.20960  0.62410  0.46190  Biso   1.000  C
  H25      1.0000 0.19010  0.62440  0.53310  Biso   1.000  H
  C37      1.0000 0.27860  0.58800  0.49600  Biso   1.000  C
  H26      1.0000 0.30570  0.56220  0.58930  Biso   1.000  H
  C38      1.0000 0.15440  0.69420  0.06580  Biso   1.000  C
  C39      1.0000 0.15630  0.66240  0.93590  Biso   1.000  C
  H27      1.0000 0.18690  0.61370  0.92260  Biso   1.000  H
  C40      1.0000 0.10240  0.71850  0.82830  Biso   1.000  C
  H28      1.0000 0.09110  0.71250  0.72800  Biso   1.000  H
  O13      1.0000 0.91620  0.91550  0.85130  Biso   1.000  O
  O14      1.0000 0.91038  0.00590  0.03410  Biso   1.000  O
  O15      1.0000 0.04008  0.11750  0.70360  Biso   1.000  O
  N9       1.0000 0.56900  0.71830  0.38630  Biso   1.000  N
  N10      1.0000 0.60210  0.73480  0.53150  Biso   1.000  N
  H29      1.0000 0.59090  0.70320  0.59580  Biso   1.000  H
  C41      1.0000 0.88430  0.94680  0.92870  Biso   1.000  C
  C42      1.0000 0.80790  0.90990  0.89070  Biso   1.000  C
  C43      1.0000 0.76780  0.87300  0.75310  Biso   1.000  C
  H30      1.0000 0.78830  0.87040  0.68360  Biso   1.000  H
  C44      1.0000 0.69690  0.83930  0.71640  Biso   1.000  C
  C45      1.0000 0.66880  0.84010  0.82300  Biso   1.000  C
  H31      1.0000 0.62180  0.81620  0.80070  Biso   1.000  H
  C46      1.0000 0.70960  0.87590  0.96190  Biso   1.000  C
  H32      1.0000 0.69010  0.87560  0.03310  Biso   1.000  H
  C47      1.0000 0.77860  0.91200  0.99600  Biso   1.000  C
  H33      1.0000 0.80570  0.93780  0.08930  Biso   1.000  H
  C48      1.0000 0.65440  0.80580  0.56580  Biso   1.000  C
  C49      1.0000 0.65630  0.83760  0.43590  Biso   1.000  C
  H34      1.0000 0.68690  0.88630  0.42260  Biso   1.000  H
  C50      1.0000 0.60240  0.78150  0.32830  Biso   1.000  C
  H35      1.0000 0.59110  0.78750  0.22800  Biso   1.000  H
  O16      1.0000 0.41620  0.41550  0.85130  Biso   1.000  O
  O17      1.0000 0.41038  0.50590  0.03410  Biso   1.000  O
  O18      1.0000 0.54008  0.61750  0.70360  Biso   1.000  O
  N11      1.0000 0.06900  0.21830  0.38630  Biso   1.000  N
  N12      1.0000 0.10210  0.23480  0.53150  Biso   1.000  N
  H36      1.0000 0.09090  0.20320  0.59580  Biso   1.000  H
  C51      1.0000 0.38430  0.44680  0.92870  Biso   1.000  C
  C52      1.0000 0.30790  0.40990  0.89070  Biso   1.000  C
  C53      1.0000 0.26780  0.37300  0.75310  Biso   1.000  C
  H37      1.0000 0.28830  0.37040  0.68360  Biso   1.000  H
  C54      1.0000 0.19690  0.33930  0.71640  Biso   1.000  C
  C55      1.0000 0.16880  0.34010  0.82300  Biso   1.000  C
  H38      1.0000 0.12180  0.31620  0.80070  Biso   1.000  H
  C56      1.0000 0.20960  0.37590  0.96190  Biso   1.000  C
  H39      1.0000 0.19010  0.37560  0.03310  Biso   1.000  H
  C57      1.0000 0.27860  0.41200  0.99600  Biso   1.000  C
  H40      1.0000 0.30570  0.43780  0.08930  Biso   1.000  H
  C58      1.0000 0.15440  0.30580  0.56580  Biso   1.000  C
  C59      1.0000 0.15630  0.33760  0.43590  Biso   1.000  C
  H41      1.0000 0.18690  0.38630  0.42260  Biso   1.000  H
  C60      1.0000 0.10240  0.28150  0.32830  Biso   1.000  C
  H42      1.0000 0.09110  0.28750  0.22800  Biso   1.000  H
  O19      1.0000 0.08380  0.91550  0.64870  Biso   1.000  O
  O20      1.0000 0.08962  0.00590  0.46590  Biso   1.000  O
  O21      1.0000 0.95992  0.11750  0.79640  Biso   1.000  O
  N13      1.0000 0.43100  0.71830  0.11370  Biso   1.000  N
  N14      1.0000 0.39790  0.73480  0.96850  Biso   1.000  N
  H43      1.0000 0.40910  0.70320  0.90420  Biso   1.000  H
  C61      1.0000 0.11570  0.94680  0.57130  Biso   1.000  C
  C62      1.0000 0.19210  0.90990  0.60930  Biso   1.000  C
  C63      1.0000 0.23220  0.87300  0.74690  Biso   1.000  C
  H44      1.0000 0.21170  0.87040  0.81640  Biso   1.000  H
  C64      1.0000 0.30310  0.83930  0.78360  Biso   1.000  C
  C65      1.0000 0.33120  0.84010  0.67700  Biso   1.000  C
  H45      1.0000 0.37820  0.81620  0.69930  Biso   1.000  H
  C66      1.0000 0.29040  0.87590  0.53810  Biso   1.000  C
  H46      1.0000 0.30990  0.87560  0.46690  Biso   1.000  H
  C67      1.0000 0.22140  0.91200  0.50400  Biso   1.000  C
  H47      1.0000 0.19430  0.93780  0.41070  Biso   1.000  H
  C68      1.0000 0.34560  0.80580  0.93420  Biso   1.000  C
  C69      1.0000 0.34370  0.83760  0.06410  Biso   1.000  C
  H48      1.0000 0.31310  0.88630  0.07740  Biso   1.000  H
  C70      1.0000 0.39760  0.78150  0.17170  Biso   1.000  C
  H49      1.0000 0.40890  0.78750  0.27200  Biso   1.000  H
  O22      1.0000 0.58380  0.41550  0.64870  Biso   1.000  O
  O23      1.0000 0.58962  0.50590  0.46590  Biso   1.000  O
  O24      1.0000 0.45992  0.61750  0.79640  Biso   1.000  O
  N15      1.0000 0.93100  0.21830  0.11370  Biso   1.000  N
  N16      1.0000 0.89790  0.23480  0.96850  Biso   1.000  N
  H50      1.0000 0.90910  0.20320  0.90420  Biso   1.000  H
  C71      1.0000 0.61570  0.44680  0.57130  Biso   1.000  C
  C72      1.0000 0.69210  0.40990  0.60930  Biso   1.000  C
  C73      1.0000 0.73220  0.37300  0.74690  Biso   1.000  C
  H51      1.0000 0.71170  0.37040  0.81640  Biso   1.000  H
  C74      1.0000 0.80310  0.33930  0.78360  Biso   1.000  C
  C75      1.0000 0.83120  0.34010  0.67700  Biso   1.000  C
  H52      1.0000 0.87820  0.31620  0.69930  Biso   1.000  H
  C76      1.0000 0.79040  0.37590  0.53810  Biso   1.000  C
  H53      1.0000 0.80990  0.37560  0.46690  Biso   1.000  H
  C77      1.0000 0.72140  0.41200  0.50400  Biso   1.000  C
  H54      1.0000 0.69430  0.43780  0.41070  Biso   1.000  H
  C78      1.0000 0.84560  0.30580  0.93420  Biso   1.000  C
  C79      1.0000 0.84370  0.33760  0.06410  Biso   1.000  C
  H55      1.0000 0.81310  0.38630  0.07740  Biso   1.000  H
  C80      1.0000 0.89760  0.28150  0.17170  Biso   1.000  C
  H56      1.0000 0.90890  0.28750  0.27200  Biso   1.000  H
  Eu1      1.0000 0.00000  0.05855  0.25000  Biso   1.000  Eu
  O25      1.0000 0.00000  0.74260  0.25000  Biso   1.000  O
  N17      1.0000 0.00000  0.83130  0.25000  Biso   1.000  N
  Eu2      1.0000 0.50000  0.55855  0.25000  Biso   1.000  Eu
  O26      1.0000 0.50000  0.24260  0.25000  Biso   1.000  O
  N18      1.0000 0.50000  0.33130  0.25000  Biso   1.000  N
  Eu3      1.0000 0.00000  0.94145  0.75000  Biso   1.000  Eu
  O27      1.0000 0.00000  0.25740  0.75000  Biso   1.000  O
  N19      1.0000 0.00000  0.16870  0.75000  Biso   1.000  N
  Eu4      1.0000 0.50000  0.44145  0.75000  Biso   1.000  Eu
  O28      1.0000 0.50000  0.75740  0.75000  Biso   1.000  O
  N20      1.0000 0.50000  0.66870  0.75000  Biso   1.000  N
