data_image0
_cell_length_a       19.81
_cell_length_b       13.153
_cell_length_c       9.806
_cell_angle_alpha    90
_cell_angle_beta     113.196
_cell_angle_gamma    90

_symmetry_space_group_name_H-M    "P 1"
_symmetry_int_tables_number       1

loop_
  _symmetry_equiv_pos_as_xyz
  'x, y, z'

loop_
  _atom_site_label
  _atom_site_occupancy
  _atom_site_fract_x
  _atom_site_fract_y
  _atom_site_fract_z
  _atom_site_thermal_displace_type
  _atom_site_B_iso_or_equiv
  _atom_site_type_symbol
  N1       1.0000 0.43144  0.28540  0.11810  Biso   1.000  N
  N2       1.0000 0.39779  0.26840  0.97070  Biso   1.000  N
  H1       1.0000 0.40820  0.30100  0.90540  Biso   1.000  H
  C1       1.0000 0.11400  0.05270  0.56920  Biso   1.000  C
  C2       1.0000 0.19090  0.09050  0.60810  Biso   1.000  C
  C3       1.0000 0.23190  0.12730  0.74760  Biso   1.000  C
  H2       1.0000 0.21150  0.12960  0.81830  Biso   1.000  H
  C4       1.0000 0.30320  0.16100  0.78440  Biso   1.000  C
  C5       1.0000 0.33220  0.15920  0.67710  Biso   1.000  C
  H3       1.0000 0.38000  0.18170  0.70040  Biso   1.000  H
  C6       1.0000 0.29100  0.12460  0.53620  Biso   1.000  C
  H4       1.0000 0.31060  0.12570  0.46420  Biso   1.000  H
  C7       1.0000 0.22090  0.08820  0.50140  Biso   1.000  C
  H5       1.0000 0.19380  0.06230  0.40730  Biso   1.000  H
  C8       1.0000 0.34620  0.19500  0.93670  Biso   1.000  C
  C9       1.0000 0.34640  0.16260  0.06950  Biso   1.000  C
  H6       1.0000 0.31690  0.11240  0.08420  Biso   1.000  H
  C10      1.0000 0.39960  0.21970  0.17770  Biso   1.000  C
  H7       1.0000 0.41160  0.21310  0.27900  Biso   1.000  H
  O1       1.0000 0.08108  0.08430  0.64700  Biso   1.000  O
  O2       1.0000 0.08805  0.99240  0.46290  Biso   1.000  O
  O3       1.0000 0.95931  0.88710  0.79600  Biso   1.000  O
  N3       1.0000 0.93144  0.78540  0.11810  Biso   1.000  N
  N4       1.0000 0.89779  0.76840  0.97070  Biso   1.000  N
  H8       1.0000 0.90820  0.80100  0.90540  Biso   1.000  H
  C11      1.0000 0.61400  0.55270  0.56920  Biso   1.000  C
  C12      1.0000 0.69090  0.59050  0.60810  Biso   1.000  C
  C13      1.0000 0.73190  0.62730  0.74760  Biso   1.000  C
  H9       1.0000 0.71150  0.62960  0.81830  Biso   1.000  H
  C14      1.0000 0.80320  0.66100  0.78440  Biso   1.000  C
  C15      1.0000 0.83220  0.65920  0.67710  Biso   1.000  C
  H10      1.0000 0.88000  0.68170  0.70040  Biso   1.000  H
  C16      1.0000 0.79100  0.62460  0.53620  Biso   1.000  C
  H11      1.0000 0.81060  0.62570  0.46420  Biso   1.000  H
  C17      1.0000 0.72090  0.58820  0.50140  Biso   1.000  C
  H12      1.0000 0.69380  0.56230  0.40730  Biso   1.000  H
  C18      1.0000 0.84620  0.69500  0.93670  Biso   1.000  C
  C19      1.0000 0.84640  0.66260  0.06950  Biso   1.000  C
  H13      1.0000 0.81690  0.61240  0.08420  Biso   1.000  H
  C20      1.0000 0.89960  0.71970  0.17770  Biso   1.000  C
  H14      1.0000 0.91160  0.71310  0.27900  Biso   1.000  H
  O4       1.0000 0.58108  0.58430  0.64700  Biso   1.000  O
  O5       1.0000 0.58805  0.49240  0.46290  Biso   1.000  O
  O6       1.0000 0.45931  0.38710  0.79600  Biso   1.000  O
  N5       1.0000 0.56856  0.28540  0.38190  Biso   1.000  N
  N6       1.0000 0.60221  0.26840  0.52930  Biso   1.000  N
  H15      1.0000 0.59180  0.30100  0.59460  Biso   1.000  H
  C21      1.0000 0.88600  0.05270  0.93080  Biso   1.000  C
  C22      1.0000 0.80910  0.09050  0.89190  Biso   1.000  C
  C23      1.0000 0.76810  0.12730  0.75240  Biso   1.000  C
  H16      1.0000 0.78850  0.12960  0.68170  Biso   1.000  H
  C24      1.0000 0.69680  0.16100  0.71560  Biso   1.000  C
  C25      1.0000 0.66780  0.15920  0.82290  Biso   1.000  C
  H17      1.0000 0.62000  0.18170  0.79960  Biso   1.000  H
  C26      1.0000 0.70900  0.12460  0.96380  Biso   1.000  C
  H18      1.0000 0.68940  0.12570  0.03580  Biso   1.000  H
  C27      1.0000 0.77910  0.08820  0.99860  Biso   1.000  C
  H19      1.0000 0.80620  0.06230  0.09270  Biso   1.000  H
  C28      1.0000 0.65380  0.19500  0.56330  Biso   1.000  C
  C29      1.0000 0.65360  0.16260  0.43050  Biso   1.000  C
  H20      1.0000 0.68310  0.11240  0.41580  Biso   1.000  H
  C30      1.0000 0.60040  0.21970  0.32230  Biso   1.000  C
  H21      1.0000 0.58840  0.21310  0.22100  Biso   1.000  H
  O7       1.0000 0.91892  0.08430  0.85300  Biso   1.000  O
  O8       1.0000 0.91195  0.99240  0.03710  Biso   1.000  O
  O9       1.0000 0.04069  0.88710  0.70400  Biso   1.000  O
  N7       1.0000 0.06856  0.78540  0.38190  Biso   1.000  N
  N8       1.0000 0.10221  0.76840  0.52930  Biso   1.000  N
  H22      1.0000 0.09180  0.80100  0.59460  Biso   1.000  H
  C31      1.0000 0.38600  0.55270  0.93080  Biso   1.000  C
  C32      1.0000 0.30910  0.59050  0.89190  Biso   1.000  C
  C33      1.0000 0.26810  0.62730  0.75240  Biso   1.000  C
  H23      1.0000 0.28850  0.62960  0.68170  Biso   1.000  H
  C34      1.0000 0.19680  0.66100  0.71560  Biso   1.000  C
  C35      1.0000 0.16780  0.65920  0.82290  Biso   1.000  C
  H24      1.0000 0.12000  0.68170  0.79960  Biso   1.000  H
  C36      1.0000 0.20900  0.62460  0.96380  Biso   1.000  C
  H25      1.0000 0.18940  0.62570  0.03580  Biso   1.000  H
  C37      1.0000 0.27910  0.58820  0.99860  Biso   1.000  C
  H26      1.0000 0.30620  0.56230  0.09270  Biso   1.000  H
  C38      1.0000 0.15380  0.69500  0.56330  Biso   1.000  C
  C39      1.0000 0.15360  0.66260  0.43050  Biso   1.000  C
  H27      1.0000 0.18310  0.61240  0.41580  Biso   1.000  H
  C40      1.0000 0.10040  0.71970  0.32230  Biso   1.000  C
  H28      1.0000 0.08840  0.71310  0.22100  Biso   1.000  H
  O10      1.0000 0.41892  0.58430  0.85300  Biso   1.000  O
  O11      1.0000 0.41195  0.49240  0.03710  Biso   1.000  O
  O12      1.0000 0.54069  0.38710  0.70400  Biso   1.000  O
  N9       1.0000 0.56856  0.71460  0.88190  Biso   1.000  N
  N10      1.0000 0.60221  0.73160  0.02930  Biso   1.000  N
  H29      1.0000 0.59180  0.69900  0.09460  Biso   1.000  H
  C41      1.0000 0.88600  0.94730  0.43080  Biso   1.000  C
  C42      1.0000 0.80910  0.90950  0.39190  Biso   1.000  C
  C43      1.0000 0.76810  0.87270  0.25240  Biso   1.000  C
  H30      1.0000 0.78850  0.87040  0.18170  Biso   1.000  H
  C44      1.0000 0.69680  0.83900  0.21560  Biso   1.000  C
  C45      1.0000 0.66780  0.84080  0.32290  Biso   1.000  C
  H31      1.0000 0.62000  0.81830  0.29960  Biso   1.000  H
  C46      1.0000 0.70900  0.87540  0.46380  Biso   1.000  C
  H32      1.0000 0.68940  0.87430  0.53580  Biso   1.000  H
  C47      1.0000 0.77910  0.91180  0.49860  Biso   1.000  C
  H33      1.0000 0.80620  0.93770  0.59270  Biso   1.000  H
  C48      1.0000 0.65380  0.80500  0.06330  Biso   1.000  C
  C49      1.0000 0.65360  0.83740  0.93050  Biso   1.000  C
  H34      1.0000 0.68310  0.88760  0.91580  Biso   1.000  H
  C50      1.0000 0.60040  0.78030  0.82230  Biso   1.000  C
  H35      1.0000 0.58840  0.78690  0.72100  Biso   1.000  H
  O13      1.0000 0.91892  0.91570  0.35300  Biso   1.000  O
  O14      1.0000 0.91195  0.00760  0.53710  Biso   1.000  O
  O15      1.0000 0.04069  0.11290  0.20400  Biso   1.000  O
  N11      1.0000 0.06856  0.21460  0.88190  Biso   1.000  N
  N12      1.0000 0.10221  0.23160  0.02930  Biso   1.000  N
  H36      1.0000 0.09180  0.19900  0.09460  Biso   1.000  H
  C51      1.0000 0.38600  0.44730  0.43080  Biso   1.000  C
  C52      1.0000 0.30910  0.40950  0.39190  Biso   1.000  C
  C53      1.0000 0.26810  0.37270  0.25240  Biso   1.000  C
  H37      1.0000 0.28850  0.37040  0.18170  Biso   1.000  H
  C54      1.0000 0.19680  0.33900  0.21560  Biso   1.000  C
  C55      1.0000 0.16780  0.34080  0.32290  Biso   1.000  C
  H38      1.0000 0.12000  0.31830  0.29960  Biso   1.000  H
  C56      1.0000 0.20900  0.37540  0.46380  Biso   1.000  C
  H39      1.0000 0.18940  0.37430  0.53580  Biso   1.000  H
  C57      1.0000 0.27910  0.41180  0.49860  Biso   1.000  C
  H40      1.0000 0.30620  0.43770  0.59270  Biso   1.000  H
  C58      1.0000 0.15380  0.30500  0.06330  Biso   1.000  C
  C59      1.0000 0.15360  0.33740  0.93050  Biso   1.000  C
  H41      1.0000 0.18310  0.38760  0.91580  Biso   1.000  H
  C60      1.0000 0.10040  0.28030  0.82230  Biso   1.000  C
  H42      1.0000 0.08840  0.28690  0.72100  Biso   1.000  H
  O16      1.0000 0.41892  0.41570  0.35300  Biso   1.000  O
  O17      1.0000 0.41195  0.50760  0.53710  Biso   1.000  O
  O18      1.0000 0.54069  0.61290  0.20400  Biso   1.000  O
  N13      1.0000 0.43144  0.71460  0.61810  Biso   1.000  N
  N14      1.0000 0.39779  0.73160  0.47070  Biso   1.000  N
  H43      1.0000 0.40820  0.69900  0.40540  Biso   1.000  H
  C61      1.0000 0.11400  0.94730  0.06920  Biso   1.000  C
  C62      1.0000 0.19090  0.90950  0.10810  Biso   1.000  C
  C63      1.0000 0.23190  0.87270  0.24760  Biso   1.000  C
  H44      1.0000 0.21150  0.87040  0.31830  Biso   1.000  H
  C64      1.0000 0.30320  0.83900  0.28440  Biso   1.000  C
  C65      1.0000 0.33220  0.84080  0.17710  Biso   1.000  C
  H45      1.0000 0.38000  0.81830  0.20040  Biso   1.000  H
  C66      1.0000 0.29100  0.87540  0.03620  Biso   1.000  C
  H46      1.0000 0.31060  0.87430  0.96420  Biso   1.000  H
  C67      1.0000 0.22090  0.91180  0.00140  Biso   1.000  C
  H47      1.0000 0.19380  0.93770  0.90730  Biso   1.000  H
  C68      1.0000 0.34620  0.80500  0.43670  Biso   1.000  C
  C69      1.0000 0.34640  0.83740  0.56950  Biso   1.000  C
  H48      1.0000 0.31690  0.88760  0.58420  Biso   1.000  H
  C70      1.0000 0.39960  0.78030  0.67770  Biso   1.000  C
  H49      1.0000 0.41160  0.78690  0.77900  Biso   1.000  H
  O19      1.0000 0.08108  0.91570  0.14700  Biso   1.000  O
  O20      1.0000 0.08805  0.00760  0.96290  Biso   1.000  O
  O21      1.0000 0.95931  0.11290  0.29600  Biso   1.000  O
  N15      1.0000 0.93144  0.21460  0.61810  Biso   1.000  N
  N16      1.0000 0.89779  0.23160  0.47070  Biso   1.000  N
  H50      1.0000 0.90820  0.19900  0.40540  Biso   1.000  H
  C71      1.0000 0.61400  0.44730  0.06920  Biso   1.000  C
  C72      1.0000 0.69090  0.40950  0.10810  Biso   1.000  C
  C73      1.0000 0.73190  0.37270  0.24760  Biso   1.000  C
  H51      1.0000 0.71150  0.37040  0.31830  Biso   1.000  H
  C74      1.0000 0.80320  0.33900  0.28440  Biso   1.000  C
  C75      1.0000 0.83220  0.34080  0.17710  Biso   1.000  C
  H52      1.0000 0.88000  0.31830  0.20040  Biso   1.000  H
  C76      1.0000 0.79100  0.37540  0.03620  Biso   1.000  C
  H53      1.0000 0.81060  0.37430  0.96420  Biso   1.000  H
  C77      1.0000 0.72090  0.41180  0.00140  Biso   1.000  C
  H54      1.0000 0.69380  0.43770  0.90730  Biso   1.000  H
  C78      1.0000 0.84620  0.30500  0.43670  Biso   1.000  C
  C79      1.0000 0.84640  0.33740  0.56950  Biso   1.000  C
  H55      1.0000 0.81690  0.38760  0.58420  Biso   1.000  H
  C80      1.0000 0.89960  0.28030  0.67770  Biso   1.000  C
  H56      1.0000 0.91160  0.28690  0.77900  Biso   1.000  H
  O22      1.0000 0.58108  0.41570  0.14700  Biso   1.000  O
  O23      1.0000 0.58805  0.50760  0.96290  Biso   1.000  O
  O24      1.0000 0.45931  0.61290  0.29600  Biso   1.000  O
  Er1      1.0000 0.00000  0.05874  0.75000  Biso   1.000  Er
  N17      1.0000 0.00000  0.83660  0.75000  Biso   1.000  N
  O25      1.0000 0.00000  0.74530  0.75000  Biso   1.000  O
  Er2      1.0000 0.50000  0.55874  0.75000  Biso   1.000  Er
  N18      1.0000 0.50000  0.33660  0.75000  Biso   1.000  N
  O26      1.0000 0.50000  0.24530  0.75000  Biso   1.000  O
  Er3      1.0000 0.00000  0.94126  0.25000  Biso   1.000  Er
  N19      1.0000 0.00000  0.16340  0.25000  Biso   1.000  N
  O27      1.0000 0.00000  0.25470  0.25000  Biso   1.000  O
  Er4      1.0000 0.50000  0.44126  0.25000  Biso   1.000  Er
  N20      1.0000 0.50000  0.66340  0.25000  Biso   1.000  N
  O28      1.0000 0.50000  0.75470  0.25000  Biso   1.000  O
