data_image0
_cell_length_a       17.3655
_cell_length_b       17.3655
_cell_length_c       11.5508
_cell_angle_alpha    90
_cell_angle_beta     90
_cell_angle_gamma    90

_symmetry_space_group_name_H-M    "P 1"
_symmetry_int_tables_number       1

loop_
  _symmetry_equiv_pos_as_xyz
  'x, y, z'

loop_
  _atom_site_label
  _atom_site_occupancy
  _atom_site_fract_x
  _atom_site_fract_y
  _atom_site_fract_z
  _atom_site_thermal_displace_type
  _atom_site_B_iso_or_equiv
  _atom_site_type_symbol
  N1       1.0000 0.16724  0.32986  0.14080  Biso   1.000  N
  N2       1.0000 0.10450  0.42141  0.03880  Biso   1.000  N
  N3       1.0000 0.17912  0.41082  0.86200  Biso   1.000  N
  N4       1.0000 0.19738  0.33576  0.03140  Biso   1.000  N
  O1       1.0000 0.29064  0.24463  0.05720  Biso   1.000  O
  C1       1.0000 0.11265  0.38225  0.13890  Biso   1.000  C
  H1       1.0000 0.08150  0.39180  0.20280  Biso   1.000  H
  C2       1.0000 0.23880  0.37020  0.81800  Biso   1.000  C
  C3       1.0000 0.27810  0.31340  0.87680  Biso   1.000  C
  H2       1.0000 0.31790  0.28740  0.83950  Biso   1.000  H
  C4       1.0000 0.25981  0.29375  0.99070  Biso   1.000  C
  C5       1.0000 0.26210  0.39200  0.69650  Biso   1.000  C
  H3       1.0000 0.22330  0.37490  0.64310  Biso   1.000  H
  H4       1.0000 0.31030  0.36790  0.67790  Biso   1.000  H
  H5       1.0000 0.26740  0.44690  0.69130  Biso   1.000  H
  C6       1.0000 0.16039  0.39193  0.96950  Biso   1.000  C
  N5       1.0000 0.66724  0.82986  0.64080  Biso   1.000  N
  N6       1.0000 0.60450  0.92141  0.53880  Biso   1.000  N
  N7       1.0000 0.67912  0.91082  0.36200  Biso   1.000  N
  N8       1.0000 0.69738  0.83576  0.53140  Biso   1.000  N
  O2       1.0000 0.79064  0.74463  0.55720  Biso   1.000  O
  C7       1.0000 0.61265  0.88225  0.63890  Biso   1.000  C
  H6       1.0000 0.58150  0.89180  0.70280  Biso   1.000  H
  C8       1.0000 0.73880  0.87020  0.31800  Biso   1.000  C
  C9       1.0000 0.77810  0.81340  0.37680  Biso   1.000  C
  H7       1.0000 0.81790  0.78740  0.33950  Biso   1.000  H
  C10      1.0000 0.75981  0.79375  0.49070  Biso   1.000  C
  C11      1.0000 0.76210  0.89200  0.19650  Biso   1.000  C
  H8       1.0000 0.72330  0.87490  0.14310  Biso   1.000  H
  H9       1.0000 0.81030  0.86790  0.17790  Biso   1.000  H
  H10      1.0000 0.76740  0.94690  0.19130  Biso   1.000  H
  C12      1.0000 0.66039  0.89193  0.46950  Biso   1.000  C
  N9       1.0000 0.33276  0.67014  0.64080  Biso   1.000  N
  N10      1.0000 0.39550  0.57859  0.53880  Biso   1.000  N
  N11      1.0000 0.32088  0.58918  0.36200  Biso   1.000  N
  N12      1.0000 0.30262  0.66424  0.53140  Biso   1.000  N
  O3       1.0000 0.20936  0.75537  0.55720  Biso   1.000  O
  C13      1.0000 0.38735  0.61775  0.63890  Biso   1.000  C
  H11      1.0000 0.41850  0.60820  0.70280  Biso   1.000  H
  C14      1.0000 0.26120  0.62980  0.31800  Biso   1.000  C
  C15      1.0000 0.22190  0.68660  0.37680  Biso   1.000  C
  H12      1.0000 0.18210  0.71260  0.33950  Biso   1.000  H
  C16      1.0000 0.24019  0.70625  0.49070  Biso   1.000  C
  C17      1.0000 0.23790  0.60800  0.19650  Biso   1.000  C
  H13      1.0000 0.27670  0.62510  0.14310  Biso   1.000  H
  H14      1.0000 0.18970  0.63210  0.17790  Biso   1.000  H
  H15      1.0000 0.23260  0.55310  0.19130  Biso   1.000  H
  C18      1.0000 0.33961  0.60807  0.46950  Biso   1.000  C
  N13      1.0000 0.83276  0.17014  0.14080  Biso   1.000  N
  N14      1.0000 0.89550  0.07859  0.03880  Biso   1.000  N
  N15      1.0000 0.82088  0.08918  0.86200  Biso   1.000  N
  N16      1.0000 0.80262  0.16424  0.03140  Biso   1.000  N
  O4       1.0000 0.70936  0.25537  0.05720  Biso   1.000  O
  C19      1.0000 0.88735  0.11775  0.13890  Biso   1.000  C
  H16      1.0000 0.91850  0.10820  0.20280  Biso   1.000  H
  C20      1.0000 0.76120  0.12980  0.81800  Biso   1.000  C
  C21      1.0000 0.72190  0.18660  0.87680  Biso   1.000  C
  H17      1.0000 0.68210  0.21260  0.83950  Biso   1.000  H
  C22      1.0000 0.74019  0.20625  0.99070  Biso   1.000  C
  C23      1.0000 0.73790  0.10800  0.69650  Biso   1.000  C
  H18      1.0000 0.77670  0.12510  0.64310  Biso   1.000  H
  H19      1.0000 0.68970  0.13210  0.67790  Biso   1.000  H
  H20      1.0000 0.73260  0.05310  0.69130  Biso   1.000  H
  C24      1.0000 0.83961  0.10807  0.96950  Biso   1.000  C
  N17      1.0000 0.42014  0.41724  0.39080  Biso   1.000  N
  N18      1.0000 0.32859  0.35450  0.28880  Biso   1.000  N
  N19      1.0000 0.33918  0.42912  0.11200  Biso   1.000  N
  N20      1.0000 0.41424  0.44738  0.28140  Biso   1.000  N
  O5       1.0000 0.50537  0.54064  0.30720  Biso   1.000  O
  C25      1.0000 0.36775  0.36265  0.38890  Biso   1.000  C
  H21      1.0000 0.35820  0.33150  0.45280  Biso   1.000  H
  C26      1.0000 0.37980  0.48880  0.06800  Biso   1.000  C
  C27      1.0000 0.43660  0.52810  0.12680  Biso   1.000  C
  H22      1.0000 0.46260  0.56790  0.08950  Biso   1.000  H
  C28      1.0000 0.45625  0.50981  0.24070  Biso   1.000  C
  C29      1.0000 0.35800  0.51210  0.94650  Biso   1.000  C
  H23      1.0000 0.37510  0.47330  0.89310  Biso   1.000  H
  H24      1.0000 0.38210  0.56030  0.92790  Biso   1.000  H
  H25      1.0000 0.30310  0.51740  0.94130  Biso   1.000  H
  C30      1.0000 0.35807  0.41039  0.21950  Biso   1.000  C
  N21      1.0000 0.92014  0.91724  0.89080  Biso   1.000  N
  N22      1.0000 0.82859  0.85450  0.78880  Biso   1.000  N
  N23      1.0000 0.83918  0.92912  0.61200  Biso   1.000  N
  N24      1.0000 0.91424  0.94738  0.78140  Biso   1.000  N
  O6       1.0000 0.00537  0.04064  0.80720  Biso   1.000  O
  C31      1.0000 0.86775  0.86265  0.88890  Biso   1.000  C
  H26      1.0000 0.85820  0.83150  0.95280  Biso   1.000  H
  C32      1.0000 0.87980  0.98880  0.56800  Biso   1.000  C
  C33      1.0000 0.93660  0.02810  0.62680  Biso   1.000  C
  H27      1.0000 0.96260  0.06790  0.58950  Biso   1.000  H
  C34      1.0000 0.95625  0.00981  0.74070  Biso   1.000  C
  C35      1.0000 0.85800  0.01210  0.44650  Biso   1.000  C
  H28      1.0000 0.87510  0.97330  0.39310  Biso   1.000  H
  H29      1.0000 0.88210  0.06030  0.42790  Biso   1.000  H
  H30      1.0000 0.80310  0.01740  0.44130  Biso   1.000  H
  C36      1.0000 0.85807  0.91039  0.71950  Biso   1.000  C
  N25      1.0000 0.07986  0.58276  0.89080  Biso   1.000  N
  N26      1.0000 0.17141  0.64550  0.78880  Biso   1.000  N
  N27      1.0000 0.16082  0.57088  0.61200  Biso   1.000  N
  N28      1.0000 0.08576  0.55262  0.78140  Biso   1.000  N
  O7       1.0000 0.99463  0.45936  0.80720  Biso   1.000  O
  C37      1.0000 0.13225  0.63735  0.88890  Biso   1.000  C
  H31      1.0000 0.14180  0.66850  0.95280  Biso   1.000  H
  C38      1.0000 0.12020  0.51120  0.56800  Biso   1.000  C
  C39      1.0000 0.06340  0.47190  0.62680  Biso   1.000  C
  H32      1.0000 0.03740  0.43210  0.58950  Biso   1.000  H
  C40      1.0000 0.04375  0.49019  0.74070  Biso   1.000  C
  C41      1.0000 0.14200  0.48790  0.44650  Biso   1.000  C
  H33      1.0000 0.12490  0.52670  0.39310  Biso   1.000  H
  H34      1.0000 0.11790  0.43970  0.42790  Biso   1.000  H
  H35      1.0000 0.19690  0.48260  0.44130  Biso   1.000  H
  C42      1.0000 0.14193  0.58961  0.71950  Biso   1.000  C
  N29      1.0000 0.57986  0.08276  0.39080  Biso   1.000  N
  N30      1.0000 0.67141  0.14550  0.28880  Biso   1.000  N
  N31      1.0000 0.66082  0.07088  0.11200  Biso   1.000  N
  N32      1.0000 0.58576  0.05262  0.28140  Biso   1.000  N
  O8       1.0000 0.49463  0.95936  0.30720  Biso   1.000  O
  C43      1.0000 0.63225  0.13735  0.38890  Biso   1.000  C
  H36      1.0000 0.64180  0.16850  0.45280  Biso   1.000  H
  C44      1.0000 0.62020  0.01120  0.06800  Biso   1.000  C
  C45      1.0000 0.56340  0.97190  0.12680  Biso   1.000  C
  H37      1.0000 0.53740  0.93210  0.08950  Biso   1.000  H
  C46      1.0000 0.54375  0.99019  0.24070  Biso   1.000  C
  C47      1.0000 0.64200  0.98790  0.94650  Biso   1.000  C
  H38      1.0000 0.62490  0.02670  0.89310  Biso   1.000  H
  H39      1.0000 0.61790  0.93970  0.92790  Biso   1.000  H
  H40      1.0000 0.69690  0.98260  0.94130  Biso   1.000  H
  C48      1.0000 0.64193  0.08961  0.21950  Biso   1.000  C
  N33      1.0000 0.83276  0.67014  0.85920  Biso   1.000  N
  N34      1.0000 0.89550  0.57859  0.96120  Biso   1.000  N
  N35      1.0000 0.82088  0.58918  0.13800  Biso   1.000  N
  N36      1.0000 0.80262  0.66424  0.96860  Biso   1.000  N
  O9       1.0000 0.70936  0.75537  0.94280  Biso   1.000  O
  C49      1.0000 0.88735  0.61775  0.86110  Biso   1.000  C
  H41      1.0000 0.91850  0.60820  0.79720  Biso   1.000  H
  C50      1.0000 0.76120  0.62980  0.18200  Biso   1.000  C
  C51      1.0000 0.72190  0.68660  0.12320  Biso   1.000  C
  H42      1.0000 0.68210  0.71260  0.16050  Biso   1.000  H
  C52      1.0000 0.74019  0.70625  0.00930  Biso   1.000  C
  C53      1.0000 0.73790  0.60800  0.30350  Biso   1.000  C
  H43      1.0000 0.77670  0.62510  0.35690  Biso   1.000  H
  H44      1.0000 0.68970  0.63210  0.32210  Biso   1.000  H
  H45      1.0000 0.73260  0.55310  0.30870  Biso   1.000  H
  C54      1.0000 0.83961  0.60807  0.03050  Biso   1.000  C
  N37      1.0000 0.33276  0.17014  0.35920  Biso   1.000  N
  N38      1.0000 0.39550  0.07859  0.46120  Biso   1.000  N
  N39      1.0000 0.32088  0.08918  0.63800  Biso   1.000  N
  N40      1.0000 0.30262  0.16424  0.46860  Biso   1.000  N
  O10      1.0000 0.20936  0.25537  0.44280  Biso   1.000  O
  C55      1.0000 0.38735  0.11775  0.36110  Biso   1.000  C
  H46      1.0000 0.41850  0.10820  0.29720  Biso   1.000  H
  C56      1.0000 0.26120  0.12980  0.68200  Biso   1.000  C
  C57      1.0000 0.22190  0.18660  0.62320  Biso   1.000  C
  H47      1.0000 0.18210  0.21260  0.66050  Biso   1.000  H
  C58      1.0000 0.24019  0.20625  0.50930  Biso   1.000  C
  C59      1.0000 0.23790  0.10800  0.80350  Biso   1.000  C
  H48      1.0000 0.27670  0.12510  0.85690  Biso   1.000  H
  H49      1.0000 0.18970  0.13210  0.82210  Biso   1.000  H
  H50      1.0000 0.23260  0.05310  0.80870  Biso   1.000  H
  C60      1.0000 0.33961  0.10807  0.53050  Biso   1.000  C
  N41      1.0000 0.66724  0.32986  0.35920  Biso   1.000  N
  N42      1.0000 0.60450  0.42141  0.46120  Biso   1.000  N
  N43      1.0000 0.67912  0.41082  0.63800  Biso   1.000  N
  N44      1.0000 0.69738  0.33576  0.46860  Biso   1.000  N
  O11      1.0000 0.79064  0.24463  0.44280  Biso   1.000  O
  C61      1.0000 0.61265  0.38225  0.36110  Biso   1.000  C
  H51      1.0000 0.58150  0.39180  0.29720  Biso   1.000  H
  C62      1.0000 0.73880  0.37020  0.68200  Biso   1.000  C
  C63      1.0000 0.77810  0.31340  0.62320  Biso   1.000  C
  H52      1.0000 0.81790  0.28740  0.66050  Biso   1.000  H
  C64      1.0000 0.75981  0.29375  0.50930  Biso   1.000  C
  C65      1.0000 0.76210  0.39200  0.80350  Biso   1.000  C
  H53      1.0000 0.72330  0.37490  0.85690  Biso   1.000  H
  H54      1.0000 0.81030  0.36790  0.82210  Biso   1.000  H
  H55      1.0000 0.76740  0.44690  0.80870  Biso   1.000  H
  C66      1.0000 0.66039  0.39193  0.53050  Biso   1.000  C
  N45      1.0000 0.16724  0.82986  0.85920  Biso   1.000  N
  N46      1.0000 0.10450  0.92141  0.96120  Biso   1.000  N
  N47      1.0000 0.17912  0.91082  0.13800  Biso   1.000  N
  N48      1.0000 0.19738  0.83576  0.96860  Biso   1.000  N
  O12      1.0000 0.29064  0.74463  0.94280  Biso   1.000  O
  C67      1.0000 0.11265  0.88225  0.86110  Biso   1.000  C
  H56      1.0000 0.08150  0.89180  0.79720  Biso   1.000  H
  C68      1.0000 0.23880  0.87020  0.18200  Biso   1.000  C
  C69      1.0000 0.27810  0.81340  0.12320  Biso   1.000  C
  H57      1.0000 0.31790  0.78740  0.16050  Biso   1.000  H
  C70      1.0000 0.25981  0.79375  0.00930  Biso   1.000  C
  C71      1.0000 0.26210  0.89200  0.30350  Biso   1.000  C
  H58      1.0000 0.22330  0.87490  0.35690  Biso   1.000  H
  H59      1.0000 0.31030  0.86790  0.32210  Biso   1.000  H
  H60      1.0000 0.26740  0.94690  0.30870  Biso   1.000  H
  C72      1.0000 0.16039  0.89193  0.03050  Biso   1.000  C
  N49      1.0000 0.57986  0.58276  0.60920  Biso   1.000  N
  N50      1.0000 0.67141  0.64550  0.71120  Biso   1.000  N
  N51      1.0000 0.66082  0.57088  0.88800  Biso   1.000  N
  N52      1.0000 0.58576  0.55262  0.71860  Biso   1.000  N
  O13      1.0000 0.49463  0.45936  0.69280  Biso   1.000  O
  C73      1.0000 0.63225  0.63735  0.61110  Biso   1.000  C
  H61      1.0000 0.64180  0.66850  0.54720  Biso   1.000  H
  C74      1.0000 0.62020  0.51120  0.93200  Biso   1.000  C
  C75      1.0000 0.56340  0.47190  0.87320  Biso   1.000  C
  H62      1.0000 0.53740  0.43210  0.91050  Biso   1.000  H
  C76      1.0000 0.54375  0.49019  0.75930  Biso   1.000  C
  C77      1.0000 0.64200  0.48790  0.05350  Biso   1.000  C
  H63      1.0000 0.62490  0.52670  0.10690  Biso   1.000  H
  H64      1.0000 0.61790  0.43970  0.07210  Biso   1.000  H
  H65      1.0000 0.69690  0.48260  0.05870  Biso   1.000  H
  C78      1.0000 0.64193  0.58961  0.78050  Biso   1.000  C
  N53      1.0000 0.07986  0.08276  0.10920  Biso   1.000  N
  N54      1.0000 0.17141  0.14550  0.21120  Biso   1.000  N
  N55      1.0000 0.16082  0.07088  0.38800  Biso   1.000  N
  N56      1.0000 0.08576  0.05262  0.21860  Biso   1.000  N
  O14      1.0000 0.99463  0.95936  0.19280  Biso   1.000  O
  C79      1.0000 0.13225  0.13735  0.11110  Biso   1.000  C
  H66      1.0000 0.14180  0.16850  0.04720  Biso   1.000  H
  C80      1.0000 0.12020  0.01120  0.43200  Biso   1.000  C
  C81      1.0000 0.06340  0.97190  0.37320  Biso   1.000  C
  H67      1.0000 0.03740  0.93210  0.41050  Biso   1.000  H
  C82      1.0000 0.04375  0.99019  0.25930  Biso   1.000  C
  C83      1.0000 0.14200  0.98790  0.55350  Biso   1.000  C
  H68      1.0000 0.12490  0.02670  0.60690  Biso   1.000  H
  H69      1.0000 0.11790  0.93970  0.57210  Biso   1.000  H
  H70      1.0000 0.19690  0.98260  0.55870  Biso   1.000  H
  C84      1.0000 0.14193  0.08961  0.28050  Biso   1.000  C
  N57      1.0000 0.92014  0.41724  0.10920  Biso   1.000  N
  N58      1.0000 0.82859  0.35450  0.21120  Biso   1.000  N
  N59      1.0000 0.83918  0.42912  0.38800  Biso   1.000  N
  N60      1.0000 0.91424  0.44738  0.21860  Biso   1.000  N
  O15      1.0000 0.00537  0.54064  0.19280  Biso   1.000  O
  C85      1.0000 0.86775  0.36265  0.11110  Biso   1.000  C
  H71      1.0000 0.85820  0.33150  0.04720  Biso   1.000  H
  C86      1.0000 0.87980  0.48880  0.43200  Biso   1.000  C
  C87      1.0000 0.93660  0.52810  0.37320  Biso   1.000  C
  H72      1.0000 0.96260  0.56790  0.41050  Biso   1.000  H
  C88      1.0000 0.95625  0.50981  0.25930  Biso   1.000  C
  C89      1.0000 0.85800  0.51210  0.55350  Biso   1.000  C
  H73      1.0000 0.87510  0.47330  0.60690  Biso   1.000  H
  H74      1.0000 0.88210  0.56030  0.57210  Biso   1.000  H
  H75      1.0000 0.80310  0.51740  0.55870  Biso   1.000  H
  C90      1.0000 0.85807  0.41039  0.28050  Biso   1.000  C
  N61      1.0000 0.42014  0.91724  0.60920  Biso   1.000  N
  N62      1.0000 0.32859  0.85450  0.71120  Biso   1.000  N
  N63      1.0000 0.33918  0.92912  0.88800  Biso   1.000  N
  N64      1.0000 0.41424  0.94738  0.71860  Biso   1.000  N
  O16      1.0000 0.50537  0.04064  0.69280  Biso   1.000  O
  C91      1.0000 0.36775  0.86265  0.61110  Biso   1.000  C
  H76      1.0000 0.35820  0.83150  0.54720  Biso   1.000  H
  C92      1.0000 0.37980  0.98880  0.93200  Biso   1.000  C
  C93      1.0000 0.43660  0.02810  0.87320  Biso   1.000  C
  H77      1.0000 0.46260  0.06790  0.91050  Biso   1.000  H
  C94      1.0000 0.45625  0.00981  0.75930  Biso   1.000  C
  C95      1.0000 0.35800  0.01210  0.05350  Biso   1.000  C
  H78      1.0000 0.37510  0.97330  0.10690  Biso   1.000  H
  H79      1.0000 0.38210  0.06030  0.07210  Biso   1.000  H
  H80      1.0000 0.30310  0.01740  0.05870  Biso   1.000  H
  C96      1.0000 0.35807  0.91039  0.78050  Biso   1.000  C
  Cd1      1.0000 0.00000  0.50000  0.00000  Biso   1.000  Cd
  Cd2      1.0000 0.50000  0.00000  0.50000  Biso   1.000  Cd
  Cd3      1.0000 0.50000  0.50000  0.50000  Biso   1.000  Cd
  Cd4      1.0000 0.00000  0.00000  0.00000  Biso   1.000  Cd
  Cd5      1.0000 0.25000  0.25000  0.25000  Biso   1.000  Cd
  Cd6      1.0000 0.25000  0.75000  0.75000  Biso   1.000  Cd
  Cd7      1.0000 0.75000  0.75000  0.75000  Biso   1.000  Cd
  Cd8      1.0000 0.75000  0.25000  0.25000  Biso   1.000  Cd
