data_image0
_cell_length_a       17.1232
_cell_length_b       17.1232
_cell_length_c       11.3086
_cell_angle_alpha    90
_cell_angle_beta     90
_cell_angle_gamma    90

_symmetry_space_group_name_H-M    "P 1"
_symmetry_int_tables_number       1

loop_
  _symmetry_equiv_pos_as_xyz
  'x, y, z'

loop_
  _atom_site_label
  _atom_site_occupancy
  _atom_site_fract_x
  _atom_site_fract_y
  _atom_site_fract_z
  _atom_site_thermal_displace_type
  _atom_site_B_iso_or_equiv
  _atom_site_type_symbol
  N1       1.0000 0.83219  0.33059  0.14820  Biso   1.000  N
  N2       1.0000 0.89788  0.42200  0.04170  Biso   1.000  N
  N3       1.0000 0.82138  0.40994  0.86230  Biso   1.000  N
  N4       1.0000 0.80293  0.33583  0.03500  Biso   1.000  N
  O1       1.0000 0.70792  0.24572  0.06650  Biso   1.000  O
  C1       1.0000 0.88870  0.38330  0.14540  Biso   1.000  C
  H1       1.0000 0.92030  0.39320  0.21060  Biso   1.000  H
  C2       1.0000 0.84070  0.39170  0.97180  Biso   1.000  C
  C3       1.0000 0.76100  0.36940  0.81730  Biso   1.000  C
  C4       1.0000 0.71980  0.31240  0.87890  Biso   1.000  C
  H2       1.0000 0.67900  0.28630  0.84170  Biso   1.000  H
  C5       1.0000 0.73870  0.29360  0.99540  Biso   1.000  C
  C6       1.0000 0.73800  0.39080  0.69200  Biso   1.000  C
  H3       1.0000 0.73100  0.44630  0.68650  Biso   1.000  H
  H4       1.0000 0.69000  0.36500  0.67190  Biso   1.000  H
  H5       1.0000 0.77830  0.37470  0.63840  Biso   1.000  H
  N5       1.0000 0.33219  0.83059  0.64820  Biso   1.000  N
  N6       1.0000 0.39788  0.92200  0.54170  Biso   1.000  N
  N7       1.0000 0.32138  0.90994  0.36230  Biso   1.000  N
  N8       1.0000 0.30293  0.83583  0.53500  Biso   1.000  N
  O2       1.0000 0.20792  0.74572  0.56650  Biso   1.000  O
  C7       1.0000 0.38870  0.88330  0.64540  Biso   1.000  C
  H6       1.0000 0.42030  0.89320  0.71060  Biso   1.000  H
  C8       1.0000 0.34070  0.89170  0.47180  Biso   1.000  C
  C9       1.0000 0.26100  0.86940  0.31730  Biso   1.000  C
  C10      1.0000 0.21980  0.81240  0.37890  Biso   1.000  C
  H7       1.0000 0.17900  0.78630  0.34170  Biso   1.000  H
  C11      1.0000 0.23870  0.79360  0.49540  Biso   1.000  C
  C12      1.0000 0.23800  0.89080  0.19200  Biso   1.000  C
  H8       1.0000 0.23100  0.94630  0.18650  Biso   1.000  H
  H9       1.0000 0.19000  0.86500  0.17190  Biso   1.000  H
  H10      1.0000 0.27830  0.87470  0.13840  Biso   1.000  H
  N9       1.0000 0.66781  0.66941  0.64820  Biso   1.000  N
  N10      1.0000 0.60212  0.57800  0.54170  Biso   1.000  N
  N11      1.0000 0.67862  0.59006  0.36230  Biso   1.000  N
  N12      1.0000 0.69707  0.66417  0.53500  Biso   1.000  N
  O3       1.0000 0.79208  0.75428  0.56650  Biso   1.000  O
  C13      1.0000 0.61130  0.61670  0.64540  Biso   1.000  C
  H11      1.0000 0.57970  0.60680  0.71060  Biso   1.000  H
  C14      1.0000 0.65930  0.60830  0.47180  Biso   1.000  C
  C15      1.0000 0.73900  0.63060  0.31730  Biso   1.000  C
  C16      1.0000 0.78020  0.68760  0.37890  Biso   1.000  C
  H12      1.0000 0.82100  0.71370  0.34170  Biso   1.000  H
  C17      1.0000 0.76130  0.70640  0.49540  Biso   1.000  C
  C18      1.0000 0.76200  0.60920  0.19200  Biso   1.000  C
  H13      1.0000 0.76900  0.55370  0.18650  Biso   1.000  H
  H14      1.0000 0.81000  0.63500  0.17190  Biso   1.000  H
  H15      1.0000 0.72170  0.62530  0.13840  Biso   1.000  H
  N13      1.0000 0.16781  0.16941  0.14820  Biso   1.000  N
  N14      1.0000 0.10212  0.07800  0.04170  Biso   1.000  N
  N15      1.0000 0.17862  0.09006  0.86230  Biso   1.000  N
  N16      1.0000 0.19707  0.16417  0.03500  Biso   1.000  N
  O4       1.0000 0.29208  0.25428  0.06650  Biso   1.000  O
  C19      1.0000 0.11130  0.11670  0.14540  Biso   1.000  C
  H16      1.0000 0.07970  0.10680  0.21060  Biso   1.000  H
  C20      1.0000 0.15930  0.10830  0.97180  Biso   1.000  C
  C21      1.0000 0.23900  0.13060  0.81730  Biso   1.000  C
  C22      1.0000 0.28020  0.18760  0.87890  Biso   1.000  C
  H17      1.0000 0.32100  0.21370  0.84170  Biso   1.000  H
  C23      1.0000 0.26130  0.20640  0.99540  Biso   1.000  C
  C24      1.0000 0.26200  0.10920  0.69200  Biso   1.000  C
  H18      1.0000 0.26900  0.05370  0.68650  Biso   1.000  H
  H19      1.0000 0.31000  0.13500  0.67190  Biso   1.000  H
  H20      1.0000 0.22170  0.12530  0.63840  Biso   1.000  H
  N17      1.0000 0.41941  0.08219  0.39820  Biso   1.000  N
  N18      1.0000 0.32800  0.14788  0.29170  Biso   1.000  N
  N19      1.0000 0.34006  0.07138  0.11230  Biso   1.000  N
  N20      1.0000 0.41417  0.05293  0.28500  Biso   1.000  N
  O5       1.0000 0.50428  0.95792  0.31650  Biso   1.000  O
  C25      1.0000 0.36670  0.13870  0.39540  Biso   1.000  C
  H21      1.0000 0.35680  0.17030  0.46060  Biso   1.000  H
  C26      1.0000 0.35830  0.09070  0.22180  Biso   1.000  C
  C27      1.0000 0.38060  0.01100  0.06730  Biso   1.000  C
  C28      1.0000 0.43760  0.96980  0.12890  Biso   1.000  C
  H22      1.0000 0.46370  0.92900  0.09170  Biso   1.000  H
  C29      1.0000 0.45640  0.98870  0.24540  Biso   1.000  C
  C30      1.0000 0.35920  0.98800  0.94200  Biso   1.000  C
  H23      1.0000 0.30370  0.98100  0.93650  Biso   1.000  H
  H24      1.0000 0.38500  0.94000  0.92190  Biso   1.000  H
  H25      1.0000 0.37530  0.02830  0.88840  Biso   1.000  H
  N21      1.0000 0.91941  0.58219  0.89820  Biso   1.000  N
  N22      1.0000 0.82800  0.64788  0.79170  Biso   1.000  N
  N23      1.0000 0.84006  0.57138  0.61230  Biso   1.000  N
  N24      1.0000 0.91417  0.55293  0.78500  Biso   1.000  N
  O6       1.0000 0.00428  0.45792  0.81650  Biso   1.000  O
  C31      1.0000 0.86670  0.63870  0.89540  Biso   1.000  C
  H26      1.0000 0.85680  0.67030  0.96060  Biso   1.000  H
  C32      1.0000 0.85830  0.59070  0.72180  Biso   1.000  C
  C33      1.0000 0.88060  0.51100  0.56730  Biso   1.000  C
  C34      1.0000 0.93760  0.46980  0.62890  Biso   1.000  C
  H27      1.0000 0.96370  0.42900  0.59170  Biso   1.000  H
  C35      1.0000 0.95640  0.48870  0.74540  Biso   1.000  C
  C36      1.0000 0.85920  0.48800  0.44200  Biso   1.000  C
  H28      1.0000 0.80370  0.48100  0.43650  Biso   1.000  H
  H29      1.0000 0.88500  0.44000  0.42190  Biso   1.000  H
  H30      1.0000 0.87530  0.52830  0.38840  Biso   1.000  H
  N25      1.0000 0.08059  0.91781  0.89820  Biso   1.000  N
  N26      1.0000 0.17200  0.85212  0.79170  Biso   1.000  N
  N27      1.0000 0.15994  0.92862  0.61230  Biso   1.000  N
  N28      1.0000 0.08583  0.94707  0.78500  Biso   1.000  N
  O7       1.0000 0.99572  0.04208  0.81650  Biso   1.000  O
  C37      1.0000 0.13330  0.86130  0.89540  Biso   1.000  C
  H31      1.0000 0.14320  0.82970  0.96060  Biso   1.000  H
  C38      1.0000 0.14170  0.90930  0.72180  Biso   1.000  C
  C39      1.0000 0.11940  0.98900  0.56730  Biso   1.000  C
  C40      1.0000 0.06240  0.03020  0.62890  Biso   1.000  C
  H32      1.0000 0.03630  0.07100  0.59170  Biso   1.000  H
  C41      1.0000 0.04360  0.01130  0.74540  Biso   1.000  C
  C42      1.0000 0.14080  0.01200  0.44200  Biso   1.000  C
  H33      1.0000 0.19630  0.01900  0.43650  Biso   1.000  H
  H34      1.0000 0.11500  0.06000  0.42190  Biso   1.000  H
  H35      1.0000 0.12470  0.97170  0.38840  Biso   1.000  H
  N29      1.0000 0.58059  0.41781  0.39820  Biso   1.000  N
  N30      1.0000 0.67200  0.35212  0.29170  Biso   1.000  N
  N31      1.0000 0.65994  0.42862  0.11230  Biso   1.000  N
  N32      1.0000 0.58583  0.44707  0.28500  Biso   1.000  N
  O8       1.0000 0.49572  0.54208  0.31650  Biso   1.000  O
  C43      1.0000 0.63330  0.36130  0.39540  Biso   1.000  C
  H36      1.0000 0.64320  0.32970  0.46060  Biso   1.000  H
  C44      1.0000 0.64170  0.40930  0.22180  Biso   1.000  C
  C45      1.0000 0.61940  0.48900  0.06730  Biso   1.000  C
  C46      1.0000 0.56240  0.53020  0.12890  Biso   1.000  C
  H37      1.0000 0.53630  0.57100  0.09170  Biso   1.000  H
  C47      1.0000 0.54360  0.51130  0.24540  Biso   1.000  C
  C48      1.0000 0.64080  0.51200  0.94200  Biso   1.000  C
  H38      1.0000 0.69630  0.51900  0.93650  Biso   1.000  H
  H39      1.0000 0.61500  0.56000  0.92190  Biso   1.000  H
  H40      1.0000 0.62470  0.47170  0.88840  Biso   1.000  H
  N33      1.0000 0.16781  0.66941  0.85180  Biso   1.000  N
  N34      1.0000 0.10212  0.57800  0.95830  Biso   1.000  N
  N35      1.0000 0.17862  0.59006  0.13770  Biso   1.000  N
  N36      1.0000 0.19707  0.66417  0.96500  Biso   1.000  N
  O9       1.0000 0.29208  0.75428  0.93350  Biso   1.000  O
  C49      1.0000 0.11130  0.61670  0.85460  Biso   1.000  C
  H41      1.0000 0.07970  0.60680  0.78940  Biso   1.000  H
  C50      1.0000 0.15930  0.60830  0.02820  Biso   1.000  C
  C51      1.0000 0.23900  0.63060  0.18270  Biso   1.000  C
  C52      1.0000 0.28020  0.68760  0.12110  Biso   1.000  C
  H42      1.0000 0.32100  0.71370  0.15830  Biso   1.000  H
  C53      1.0000 0.26130  0.70640  0.00460  Biso   1.000  C
  C54      1.0000 0.26200  0.60920  0.30800  Biso   1.000  C
  H43      1.0000 0.26900  0.55370  0.31350  Biso   1.000  H
  H44      1.0000 0.31000  0.63500  0.32810  Biso   1.000  H
  H45      1.0000 0.22170  0.62530  0.36160  Biso   1.000  H
  N37      1.0000 0.66781  0.16941  0.35180  Biso   1.000  N
  N38      1.0000 0.60212  0.07800  0.45830  Biso   1.000  N
  N39      1.0000 0.67862  0.09006  0.63770  Biso   1.000  N
  N40      1.0000 0.69707  0.16417  0.46500  Biso   1.000  N
  O10      1.0000 0.79208  0.25428  0.43350  Biso   1.000  O
  C55      1.0000 0.61130  0.11670  0.35460  Biso   1.000  C
  H46      1.0000 0.57970  0.10680  0.28940  Biso   1.000  H
  C56      1.0000 0.65930  0.10830  0.52820  Biso   1.000  C
  C57      1.0000 0.73900  0.13060  0.68270  Biso   1.000  C
  C58      1.0000 0.78020  0.18760  0.62110  Biso   1.000  C
  H47      1.0000 0.82100  0.21370  0.65830  Biso   1.000  H
  C59      1.0000 0.76130  0.20640  0.50460  Biso   1.000  C
  C60      1.0000 0.76200  0.10920  0.80800  Biso   1.000  C
  H48      1.0000 0.76900  0.05370  0.81350  Biso   1.000  H
  H49      1.0000 0.81000  0.13500  0.82810  Biso   1.000  H
  H50      1.0000 0.72170  0.12530  0.86160  Biso   1.000  H
  N41      1.0000 0.33219  0.33059  0.35180  Biso   1.000  N
  N42      1.0000 0.39788  0.42200  0.45830  Biso   1.000  N
  N43      1.0000 0.32138  0.40994  0.63770  Biso   1.000  N
  N44      1.0000 0.30293  0.33583  0.46500  Biso   1.000  N
  O11      1.0000 0.20792  0.24572  0.43350  Biso   1.000  O
  C61      1.0000 0.38870  0.38330  0.35460  Biso   1.000  C
  H51      1.0000 0.42030  0.39320  0.28940  Biso   1.000  H
  C62      1.0000 0.34070  0.39170  0.52820  Biso   1.000  C
  C63      1.0000 0.26100  0.36940  0.68270  Biso   1.000  C
  C64      1.0000 0.21980  0.31240  0.62110  Biso   1.000  C
  H52      1.0000 0.17900  0.28630  0.65830  Biso   1.000  H
  C65      1.0000 0.23870  0.29360  0.50460  Biso   1.000  C
  C66      1.0000 0.23800  0.39080  0.80800  Biso   1.000  C
  H53      1.0000 0.23100  0.44630  0.81350  Biso   1.000  H
  H54      1.0000 0.19000  0.36500  0.82810  Biso   1.000  H
  H55      1.0000 0.27830  0.37470  0.86160  Biso   1.000  H
  N45      1.0000 0.83219  0.83059  0.85180  Biso   1.000  N
  N46      1.0000 0.89788  0.92200  0.95830  Biso   1.000  N
  N47      1.0000 0.82138  0.90994  0.13770  Biso   1.000  N
  N48      1.0000 0.80293  0.83583  0.96500  Biso   1.000  N
  O12      1.0000 0.70792  0.74572  0.93350  Biso   1.000  O
  C67      1.0000 0.88870  0.88330  0.85460  Biso   1.000  C
  H56      1.0000 0.92030  0.89320  0.78940  Biso   1.000  H
  C68      1.0000 0.84070  0.89170  0.02820  Biso   1.000  C
  C69      1.0000 0.76100  0.86940  0.18270  Biso   1.000  C
  C70      1.0000 0.71980  0.81240  0.12110  Biso   1.000  C
  H57      1.0000 0.67900  0.78630  0.15830  Biso   1.000  H
  C71      1.0000 0.73870  0.79360  0.00460  Biso   1.000  C
  C72      1.0000 0.73800  0.89080  0.30800  Biso   1.000  C
  H58      1.0000 0.73100  0.94630  0.31350  Biso   1.000  H
  H59      1.0000 0.69000  0.86500  0.32810  Biso   1.000  H
  H60      1.0000 0.77830  0.87470  0.36160  Biso   1.000  H
  N49      1.0000 0.58059  0.91781  0.60180  Biso   1.000  N
  N50      1.0000 0.67200  0.85212  0.70830  Biso   1.000  N
  N51      1.0000 0.65994  0.92862  0.88770  Biso   1.000  N
  N52      1.0000 0.58583  0.94707  0.71500  Biso   1.000  N
  O13      1.0000 0.49572  0.04208  0.68350  Biso   1.000  O
  C73      1.0000 0.63330  0.86130  0.60460  Biso   1.000  C
  H61      1.0000 0.64320  0.82970  0.53940  Biso   1.000  H
  C74      1.0000 0.64170  0.90930  0.77820  Biso   1.000  C
  C75      1.0000 0.61940  0.98900  0.93270  Biso   1.000  C
  C76      1.0000 0.56240  0.03020  0.87110  Biso   1.000  C
  H62      1.0000 0.53630  0.07100  0.90830  Biso   1.000  H
  C77      1.0000 0.54360  0.01130  0.75460  Biso   1.000  C
  C78      1.0000 0.64080  0.01200  0.05800  Biso   1.000  C
  H63      1.0000 0.69630  0.01900  0.06350  Biso   1.000  H
  H64      1.0000 0.61500  0.06000  0.07810  Biso   1.000  H
  H65      1.0000 0.62470  0.97170  0.11160  Biso   1.000  H
  N53      1.0000 0.08059  0.41781  0.10180  Biso   1.000  N
  N54      1.0000 0.17200  0.35212  0.20830  Biso   1.000  N
  N55      1.0000 0.15994  0.42862  0.38770  Biso   1.000  N
  N56      1.0000 0.08583  0.44707  0.21500  Biso   1.000  N
  O14      1.0000 0.99572  0.54208  0.18350  Biso   1.000  O
  C79      1.0000 0.13330  0.36130  0.10460  Biso   1.000  C
  H66      1.0000 0.14320  0.32970  0.03940  Biso   1.000  H
  C80      1.0000 0.14170  0.40930  0.27820  Biso   1.000  C
  C81      1.0000 0.11940  0.48900  0.43270  Biso   1.000  C
  C82      1.0000 0.06240  0.53020  0.37110  Biso   1.000  C
  H67      1.0000 0.03630  0.57100  0.40830  Biso   1.000  H
  C83      1.0000 0.04360  0.51130  0.25460  Biso   1.000  C
  C84      1.0000 0.14080  0.51200  0.55800  Biso   1.000  C
  H68      1.0000 0.19630  0.51900  0.56350  Biso   1.000  H
  H69      1.0000 0.11500  0.56000  0.57810  Biso   1.000  H
  H70      1.0000 0.12470  0.47170  0.61160  Biso   1.000  H
  N57      1.0000 0.91941  0.08219  0.10180  Biso   1.000  N
  N58      1.0000 0.82800  0.14788  0.20830  Biso   1.000  N
  N59      1.0000 0.84006  0.07138  0.38770  Biso   1.000  N
  N60      1.0000 0.91417  0.05293  0.21500  Biso   1.000  N
  O15      1.0000 0.00428  0.95792  0.18350  Biso   1.000  O
  C85      1.0000 0.86670  0.13870  0.10460  Biso   1.000  C
  H71      1.0000 0.85680  0.17030  0.03940  Biso   1.000  H
  C86      1.0000 0.85830  0.09070  0.27820  Biso   1.000  C
  C87      1.0000 0.88060  0.01100  0.43270  Biso   1.000  C
  C88      1.0000 0.93760  0.96980  0.37110  Biso   1.000  C
  H72      1.0000 0.96370  0.92900  0.40830  Biso   1.000  H
  C89      1.0000 0.95640  0.98870  0.25460  Biso   1.000  C
  C90      1.0000 0.85920  0.98800  0.55800  Biso   1.000  C
  H73      1.0000 0.80370  0.98100  0.56350  Biso   1.000  H
  H74      1.0000 0.88500  0.94000  0.57810  Biso   1.000  H
  H75      1.0000 0.87530  0.02830  0.61160  Biso   1.000  H
  N61      1.0000 0.41941  0.58219  0.60180  Biso   1.000  N
  N62      1.0000 0.32800  0.64788  0.70830  Biso   1.000  N
  N63      1.0000 0.34006  0.57138  0.88770  Biso   1.000  N
  N64      1.0000 0.41417  0.55293  0.71500  Biso   1.000  N
  O16      1.0000 0.50428  0.45792  0.68350  Biso   1.000  O
  C91      1.0000 0.36670  0.63870  0.60460  Biso   1.000  C
  H76      1.0000 0.35680  0.67030  0.53940  Biso   1.000  H
  C92      1.0000 0.35830  0.59070  0.77820  Biso   1.000  C
  C93      1.0000 0.38060  0.51100  0.93270  Biso   1.000  C
  C94      1.0000 0.43760  0.46980  0.87110  Biso   1.000  C
  H77      1.0000 0.46370  0.42900  0.90830  Biso   1.000  H
  C95      1.0000 0.45640  0.48870  0.75460  Biso   1.000  C
  C96      1.0000 0.35920  0.48800  0.05800  Biso   1.000  C
  H78      1.0000 0.30370  0.48100  0.06350  Biso   1.000  H
  H79      1.0000 0.38500  0.44000  0.07810  Biso   1.000  H
  H80      1.0000 0.37530  0.52830  0.11160  Biso   1.000  H
  Mn1      1.0000 0.00000  0.50000  0.00000  Biso   1.000  Mn
  Mn2      1.0000 0.50000  0.00000  0.50000  Biso   1.000  Mn
  Mn3      1.0000 0.50000  0.50000  0.50000  Biso   1.000  Mn
  Mn4      1.0000 0.00000  0.00000  0.00000  Biso   1.000  Mn
  Mn5      1.0000 0.25000  0.25000  0.25000  Biso   1.000  Mn
  Mn6      1.0000 0.25000  0.75000  0.75000  Biso   1.000  Mn
  Mn7      1.0000 0.75000  0.75000  0.75000  Biso   1.000  Mn
  Mn8      1.0000 0.75000  0.25000  0.25000  Biso   1.000  Mn
