data_image0
_cell_length_a       9.9593
_cell_length_b       19.8227
_cell_length_c       19.8227
_cell_angle_alpha    90
_cell_angle_beta     90
_cell_angle_gamma    90

_symmetry_space_group_name_H-M    P 1
_symmetry_int_tables_number       1

loop_
  _symmetry_equiv_pos_as_xyz
  'x, y, z'

loop_
  _atom_site_label
  _atom_site_occupancy
  _atom_site_fract_x
  _atom_site_fract_y
  _atom_site_fract_z
  _atom_site_thermal_displace_type
  _atom_site_B_iso_or_equiv
  _atom_site_type_symbol
  Ca1      1.0000 0.00000  0.00000  0.50000  Biso   1.000  Ca
  Ca2      1.0000 0.00000  0.50000  0.00000  Biso   1.000  Ca
  Cd1      1.0000 0.00000  0.07081  0.65752  Biso   1.000  Cd
  Cd2      1.0000 0.00000  0.92919  0.34248  Biso   1.000  Cd
  Cd3      1.0000 0.00000  0.34248  0.07081  Biso   1.000  Cd
  Cd4      1.0000 0.00000  0.65752  0.92919  Biso   1.000  Cd
  H1       1.0000 0.12850  0.69090  0.47310  Biso   1.000  H
  H2       1.0000 0.12170  0.76470  0.50130  Biso   1.000  H
  H3       1.0000 0.20450  0.70950  0.53980  Biso   1.000  H
  H4       1.0000 0.07870  0.61830  0.60090  Biso   1.000  H
  H5       1.0000 0.70080  0.88950  0.53430  Biso   1.000  H
  H6       1.0000 0.42130  0.76610  0.59500  Biso   1.000  H
  H7       1.0000 0.38540  0.86280  0.70090  Biso   1.000  H
  H8       1.0000 0.38360  0.92910  0.65790  Biso   1.000  H
  H9       1.0000 0.30290  0.86570  0.63360  Biso   1.000  H
  H10      1.0000 0.12850  0.30910  0.52690  Biso   1.000  H
  H11      1.0000 0.12170  0.23530  0.49870  Biso   1.000  H
  H12      1.0000 0.20450  0.29050  0.46020  Biso   1.000  H
  H13      1.0000 0.07870  0.38170  0.39910  Biso   1.000  H
  H14      1.0000 0.70080  0.11050  0.46570  Biso   1.000  H
  H15      1.0000 0.42130  0.23390  0.40500  Biso   1.000  H
  H16      1.0000 0.38540  0.13720  0.29910  Biso   1.000  H
  H17      1.0000 0.38360  0.07090  0.34210  Biso   1.000  H
  H18      1.0000 0.30290  0.13430  0.36640  Biso   1.000  H
  H19      1.0000 0.12850  0.52690  0.69090  Biso   1.000  H
  H20      1.0000 0.12170  0.49870  0.76470  Biso   1.000  H
  H21      1.0000 0.20450  0.46020  0.70950  Biso   1.000  H
  H22      1.0000 0.07870  0.39910  0.61830  Biso   1.000  H
  H23      1.0000 0.70080  0.46570  0.88950  Biso   1.000  H
  H24      1.0000 0.42130  0.40500  0.76610  Biso   1.000  H
  H25      1.0000 0.38540  0.29910  0.86280  Biso   1.000  H
  H26      1.0000 0.38360  0.34210  0.92910  Biso   1.000  H
  H27      1.0000 0.30290  0.36640  0.86570  Biso   1.000  H
  H28      1.0000 0.12850  0.47310  0.30910  Biso   1.000  H
  H29      1.0000 0.12170  0.50130  0.23530  Biso   1.000  H
  H30      1.0000 0.20450  0.53980  0.29050  Biso   1.000  H
  H31      1.0000 0.07870  0.60090  0.38170  Biso   1.000  H
  H32      1.0000 0.70080  0.53430  0.11050  Biso   1.000  H
  H33      1.0000 0.42130  0.59500  0.23390  Biso   1.000  H
  H34      1.0000 0.38540  0.70090  0.13720  Biso   1.000  H
  H35      1.0000 0.38360  0.65790  0.07090  Biso   1.000  H
  H36      1.0000 0.30290  0.63360  0.13430  Biso   1.000  H
  H37      1.0000 0.87150  0.30910  0.52690  Biso   1.000  H
  H38      1.0000 0.87830  0.23530  0.49870  Biso   1.000  H
  H39      1.0000 0.79550  0.29050  0.46020  Biso   1.000  H
  H40      1.0000 0.92130  0.38170  0.39910  Biso   1.000  H
  H41      1.0000 0.29920  0.11050  0.46570  Biso   1.000  H
  H42      1.0000 0.57870  0.23390  0.40500  Biso   1.000  H
  H43      1.0000 0.61460  0.13720  0.29910  Biso   1.000  H
  H44      1.0000 0.61640  0.07090  0.34210  Biso   1.000  H
  H45      1.0000 0.69710  0.13430  0.36640  Biso   1.000  H
  H46      1.0000 0.87150  0.69090  0.47310  Biso   1.000  H
  H47      1.0000 0.87830  0.76470  0.50130  Biso   1.000  H
  H48      1.0000 0.79550  0.70950  0.53980  Biso   1.000  H
  H49      1.0000 0.92130  0.61830  0.60090  Biso   1.000  H
  H50      1.0000 0.29920  0.88950  0.53430  Biso   1.000  H
  H51      1.0000 0.57870  0.76610  0.59500  Biso   1.000  H
  H52      1.0000 0.61460  0.86280  0.70090  Biso   1.000  H
  H53      1.0000 0.61640  0.92910  0.65790  Biso   1.000  H
  H54      1.0000 0.69710  0.86570  0.63360  Biso   1.000  H
  H55      1.0000 0.87150  0.47310  0.30910  Biso   1.000  H
  H56      1.0000 0.87830  0.50130  0.23530  Biso   1.000  H
  H57      1.0000 0.79550  0.53980  0.29050  Biso   1.000  H
  H58      1.0000 0.92130  0.60090  0.38170  Biso   1.000  H
  H59      1.0000 0.29920  0.53430  0.11050  Biso   1.000  H
  H60      1.0000 0.57870  0.59500  0.23390  Biso   1.000  H
  H61      1.0000 0.61460  0.70090  0.13720  Biso   1.000  H
  H62      1.0000 0.61640  0.65790  0.07090  Biso   1.000  H
  H63      1.0000 0.69710  0.63360  0.13430  Biso   1.000  H
  H64      1.0000 0.87150  0.52690  0.69090  Biso   1.000  H
  H65      1.0000 0.87830  0.49870  0.76470  Biso   1.000  H
  H66      1.0000 0.79550  0.46020  0.70950  Biso   1.000  H
  H67      1.0000 0.92130  0.39910  0.61830  Biso   1.000  H
  H68      1.0000 0.29920  0.46570  0.88950  Biso   1.000  H
  H69      1.0000 0.57870  0.40500  0.76610  Biso   1.000  H
  H70      1.0000 0.61460  0.29910  0.86280  Biso   1.000  H
  H71      1.0000 0.61640  0.34210  0.92910  Biso   1.000  H
  H72      1.0000 0.69710  0.36640  0.86570  Biso   1.000  H
  H73      1.0000 0.00000  0.85260  0.77420  Biso   1.000  H
  H74      1.0000 0.00000  0.66970  0.68700  Biso   1.000  H
  H75      1.0000 0.00000  0.83340  0.57190  Biso   1.000  H
  H76      1.0000 0.00000  0.59980  0.53490  Biso   1.000  H
  H77      1.0000 0.00000  0.14740  0.22580  Biso   1.000  H
  H78      1.0000 0.00000  0.33030  0.31300  Biso   1.000  H
  H79      1.0000 0.00000  0.16660  0.42810  Biso   1.000  H
  H80      1.0000 0.00000  0.40020  0.46510  Biso   1.000  H
  H81      1.0000 0.00000  0.22580  0.85260  Biso   1.000  H
  H82      1.0000 0.00000  0.31300  0.66970  Biso   1.000  H
  H83      1.0000 0.00000  0.42810  0.83340  Biso   1.000  H
  H84      1.0000 0.00000  0.46510  0.59980  Biso   1.000  H
  H85      1.0000 0.00000  0.77420  0.14740  Biso   1.000  H
  H86      1.0000 0.00000  0.68700  0.33030  Biso   1.000  H
  H87      1.0000 0.00000  0.57190  0.16660  Biso   1.000  H
  H88      1.0000 0.00000  0.53490  0.40020  Biso   1.000  H
  H89      1.0000 0.50000  0.93390  0.36480  Biso   1.000  H
  H90      1.0000 0.50000  0.76550  0.66350  Biso   1.000  H
  H91      1.0000 0.50000  0.06610  0.63520  Biso   1.000  H
  H92      1.0000 0.50000  0.23450  0.33650  Biso   1.000  H
  H93      1.0000 0.50000  0.63520  0.93390  Biso   1.000  H
  H94      1.0000 0.50000  0.33650  0.76550  Biso   1.000  H
  H95      1.0000 0.50000  0.36480  0.06610  Biso   1.000  H
  H96      1.0000 0.50000  0.66350  0.23450  Biso   1.000  H
  C1       1.0000 0.75110  0.92480  0.41020  Biso   1.000  C
  C2       1.0000 0.12550  0.71780  0.51330  Biso   1.000  C
  C3       1.0000 0.62060  0.91390  0.44420  Biso   1.000  C
  C4       1.0000 0.61940  0.89510  0.51200  Biso   1.000  C
  C5       1.0000 0.38310  0.88070  0.65590  Biso   1.000  C
  C6       1.0000 0.75110  0.07520  0.58980  Biso   1.000  C
  C7       1.0000 0.12550  0.28220  0.48670  Biso   1.000  C
  C8       1.0000 0.62060  0.08610  0.55580  Biso   1.000  C
  C9       1.0000 0.61940  0.10490  0.48800  Biso   1.000  C
  C10      1.0000 0.38310  0.11930  0.34410  Biso   1.000  C
  C11      1.0000 0.75110  0.58980  0.92480  Biso   1.000  C
  C12      1.0000 0.12550  0.48670  0.71780  Biso   1.000  C
  C13      1.0000 0.62060  0.55580  0.91390  Biso   1.000  C
  C14      1.0000 0.61940  0.48800  0.89510  Biso   1.000  C
  C15      1.0000 0.38310  0.34410  0.88070  Biso   1.000  C
  C16      1.0000 0.75110  0.41020  0.07520  Biso   1.000  C
  C17      1.0000 0.12550  0.51330  0.28220  Biso   1.000  C
  C18      1.0000 0.62060  0.44420  0.08610  Biso   1.000  C
  C19      1.0000 0.61940  0.51200  0.10490  Biso   1.000  C
  C20      1.0000 0.38310  0.65590  0.11930  Biso   1.000  C
  C21      1.0000 0.24890  0.07520  0.58980  Biso   1.000  C
  C22      1.0000 0.87450  0.28220  0.48670  Biso   1.000  C
  C23      1.0000 0.37940  0.08610  0.55580  Biso   1.000  C
  C24      1.0000 0.38060  0.10490  0.48800  Biso   1.000  C
  C25      1.0000 0.61690  0.11930  0.34410  Biso   1.000  C
  C26      1.0000 0.24890  0.92480  0.41020  Biso   1.000  C
  C27      1.0000 0.87450  0.71780  0.51330  Biso   1.000  C
  C28      1.0000 0.37940  0.91390  0.44420  Biso   1.000  C
  C29      1.0000 0.38060  0.89510  0.51200  Biso   1.000  C
  C30      1.0000 0.61690  0.88070  0.65590  Biso   1.000  C
  C31      1.0000 0.24890  0.41020  0.07520  Biso   1.000  C
  C32      1.0000 0.87450  0.51330  0.28220  Biso   1.000  C
  C33      1.0000 0.37940  0.44420  0.08610  Biso   1.000  C
  C34      1.0000 0.38060  0.51200  0.10490  Biso   1.000  C
  C35      1.0000 0.61690  0.65590  0.11930  Biso   1.000  C
  C36      1.0000 0.24890  0.58980  0.92480  Biso   1.000  C
  C37      1.0000 0.87450  0.48670  0.71780  Biso   1.000  C
  C38      1.0000 0.37940  0.55580  0.91390  Biso   1.000  C
  C39      1.0000 0.38060  0.48800  0.89510  Biso   1.000  C
  C40      1.0000 0.61690  0.34410  0.88070  Biso   1.000  C
  C41      1.0000 0.00000  0.92900  0.66260  Biso   1.000  C
  C42      1.0000 0.00000  0.72250  0.80960  Biso   1.000  C
  C43      1.0000 0.00000  0.85410  0.67090  Biso   1.000  C
  C44      1.0000 0.00000  0.82540  0.73590  Biso   1.000  C
  C45      1.0000 0.00000  0.75580  0.74140  Biso   1.000  C
  C46      1.0000 0.00000  0.71650  0.68300  Biso   1.000  C
  C47      1.0000 0.00000  0.74450  0.61990  Biso   1.000  C
  C48      1.0000 0.00000  0.81360  0.61440  Biso   1.000  C
  C49      1.0000 0.00000  0.69910  0.55460  Biso   1.000  C
  C50      1.0000 0.00000  0.62770  0.57450  Biso   1.000  C
  C51      1.0000 0.00000  0.07100  0.33740  Biso   1.000  C
  C52      1.0000 0.00000  0.27750  0.19040  Biso   1.000  C
  C53      1.0000 0.00000  0.14590  0.32910  Biso   1.000  C
  C54      1.0000 0.00000  0.17460  0.26410  Biso   1.000  C
  C55      1.0000 0.00000  0.24420  0.25860  Biso   1.000  C
  C56      1.0000 0.00000  0.28350  0.31700  Biso   1.000  C
  C57      1.0000 0.00000  0.25550  0.38010  Biso   1.000  C
  C58      1.0000 0.00000  0.18640  0.38560  Biso   1.000  C
  C59      1.0000 0.00000  0.30090  0.44540  Biso   1.000  C
  C60      1.0000 0.00000  0.37230  0.42550  Biso   1.000  C
  C61      1.0000 0.00000  0.33740  0.92900  Biso   1.000  C
  C62      1.0000 0.00000  0.19040  0.72250  Biso   1.000  C
  C63      1.0000 0.00000  0.32910  0.85410  Biso   1.000  C
  C64      1.0000 0.00000  0.26410  0.82540  Biso   1.000  C
  C65      1.0000 0.00000  0.25860  0.75580  Biso   1.000  C
  C66      1.0000 0.00000  0.31700  0.71650  Biso   1.000  C
  C67      1.0000 0.00000  0.38010  0.74450  Biso   1.000  C
  C68      1.0000 0.00000  0.38560  0.81360  Biso   1.000  C
  C69      1.0000 0.00000  0.44540  0.69910  Biso   1.000  C
  C70      1.0000 0.00000  0.42550  0.62770  Biso   1.000  C
  C71      1.0000 0.00000  0.66260  0.07100  Biso   1.000  C
  C72      1.0000 0.00000  0.80960  0.27750  Biso   1.000  C
  C73      1.0000 0.00000  0.67090  0.14590  Biso   1.000  C
  C74      1.0000 0.00000  0.73590  0.17460  Biso   1.000  C
  C75      1.0000 0.00000  0.74140  0.24420  Biso   1.000  C
  C76      1.0000 0.00000  0.68300  0.28350  Biso   1.000  C
  C77      1.0000 0.00000  0.61990  0.25550  Biso   1.000  C
  C78      1.0000 0.00000  0.61440  0.18640  Biso   1.000  C
  C79      1.0000 0.00000  0.55460  0.30090  Biso   1.000  C
  C80      1.0000 0.00000  0.57450  0.37230  Biso   1.000  C
  C81      1.0000 0.50000  0.92240  0.41030  Biso   1.000  C
  C82      1.0000 0.50000  0.88450  0.54770  Biso   1.000  C
  C83      1.0000 0.50000  0.85740  0.61870  Biso   1.000  C
  C84      1.0000 0.50000  0.78200  0.61800  Biso   1.000  C
  C85      1.0000 0.50000  0.07760  0.58970  Biso   1.000  C
  C86      1.0000 0.50000  0.11550  0.45230  Biso   1.000  C
  C87      1.0000 0.50000  0.14260  0.38130  Biso   1.000  C
  C88      1.0000 0.50000  0.21800  0.38200  Biso   1.000  C
  C89      1.0000 0.50000  0.58970  0.92240  Biso   1.000  C
  C90      1.0000 0.50000  0.45230  0.88450  Biso   1.000  C
  C91      1.0000 0.50000  0.38130  0.85740  Biso   1.000  C
  C92      1.0000 0.50000  0.38200  0.78200  Biso   1.000  C
  C93      1.0000 0.50000  0.41030  0.07760  Biso   1.000  C
  C94      1.0000 0.50000  0.54770  0.11550  Biso   1.000  C
  C95      1.0000 0.50000  0.61870  0.14260  Biso   1.000  C
  C96      1.0000 0.50000  0.61800  0.21800  Biso   1.000  C
  O1       1.0000 0.85600  0.92630  0.44630  Biso   1.000  O
  O2       1.0000 0.75810  0.93010  0.34740  Biso   1.000  O
  O3       1.0000 0.85600  0.07370  0.55370  Biso   1.000  O
  O4       1.0000 0.75810  0.06990  0.65260  Biso   1.000  O
  O5       1.0000 0.85600  0.55370  0.92630  Biso   1.000  O
  O6       1.0000 0.75810  0.65260  0.93010  Biso   1.000  O
  O7       1.0000 0.85600  0.44630  0.07370  Biso   1.000  O
  O8       1.0000 0.75810  0.34740  0.06990  Biso   1.000  O
  O9       1.0000 0.14400  0.07370  0.55370  Biso   1.000  O
  O10      1.0000 0.24190  0.06990  0.65260  Biso   1.000  O
  O11      1.0000 0.14400  0.92630  0.44630  Biso   1.000  O
  O12      1.0000 0.24190  0.93010  0.34740  Biso   1.000  O
  O13      1.0000 0.14400  0.44630  0.07370  Biso   1.000  O
  O14      1.0000 0.24190  0.34740  0.06990  Biso   1.000  O
  O15      1.0000 0.14400  0.55370  0.92630  Biso   1.000  O
  O16      1.0000 0.24190  0.65260  0.93010  Biso   1.000  O
  O17      1.0000 0.00000  0.95190  0.60410  Biso   1.000  O
  O18      1.0000 0.00000  0.96710  0.71310  Biso   1.000  O
  O19      1.0000 0.00000  0.66020  0.81260  Biso   1.000  O
  O20      1.0000 0.00000  0.75810  0.86130  Biso   1.000  O
  O21      1.0000 0.00000  0.04810  0.39590  Biso   1.000  O
  O22      1.0000 0.00000  0.03290  0.28690  Biso   1.000  O
  O23      1.0000 0.00000  0.33980  0.18740  Biso   1.000  O
  O24      1.0000 0.00000  0.24190  0.13870  Biso   1.000  O
  O25      1.0000 0.00000  0.39590  0.95190  Biso   1.000  O
  O26      1.0000 0.00000  0.28690  0.96710  Biso   1.000  O
  O27      1.0000 0.00000  0.18740  0.66020  Biso   1.000  O
  O28      1.0000 0.00000  0.13870  0.75810  Biso   1.000  O
  O29      1.0000 0.00000  0.60410  0.04810  Biso   1.000  O
  O30      1.0000 0.00000  0.71310  0.03290  Biso   1.000  O
  O31      1.0000 0.00000  0.81260  0.33980  Biso   1.000  O
  O32      1.0000 0.00000  0.86130  0.24190  Biso   1.000  O
