data_image0
_cell_length_a       12.481
_cell_length_b       12.862
_cell_length_c       13.332
_cell_angle_alpha    100.001
_cell_angle_beta     105.253
_cell_angle_gamma    111.736

_symmetry_space_group_name_H-M    P 1
_symmetry_int_tables_number       1

loop_
  _symmetry_equiv_pos_as_xyz
  'x, y, z'

loop_
  _atom_site_label
  _atom_site_occupancy
  _atom_site_fract_x
  _atom_site_fract_y
  _atom_site_fract_z
  _atom_site_thermal_displace_type
  _atom_site_B_iso_or_equiv
  _atom_site_type_symbol
  Cu1      1.0000 0.50000  0.50000  0.00000  Biso   1.000  Cu
  Cu2      1.0000 0.00000  0.00000  0.50000  Biso   1.000  Cu
  H1       1.0000 0.55230  0.04460  0.13670  Biso   1.000  H
  H2       1.0000 0.52220  0.07640  0.24080  Biso   1.000  H
  H3       1.0000 0.35970  0.90580  0.04450  Biso   1.000  H
  H4       1.0000 0.32730  0.90920  0.15070  Biso   1.000  H
  H5       1.0000 0.33280  0.32960  0.10570  Biso   1.000  H
  H6       1.0000 0.54580  0.88140  0.16670  Biso   1.000  H
  H7       1.0000 0.51520  0.91270  0.27070  Biso   1.000  H
  H8       1.0000 0.95640  0.14210  0.32870  Biso   1.000  H
  H9       1.0000 0.02070  0.61380  0.55590  Biso   1.000  H
  H10      1.0000 0.11220  0.58890  0.50550  Biso   1.000  H
  H11      1.0000 0.27650  0.69360  0.69690  Biso   1.000  H
  H12      1.0000 0.18100  0.70580  0.74910  Biso   1.000  H
  H13      1.0000 0.30440  0.26890  0.80410  Biso   1.000  H
  H14      1.0000 0.70920  0.91250  0.39970  Biso   1.000  H
  H15      1.0000 0.38640  0.09680  0.06740  Biso   1.000  H
  H16      1.0000 0.34350  0.09230  0.16740  Biso   1.000  H
  H17      1.0000 0.02970  0.68880  0.06110  Biso   1.000  H
  H18      1.0000 0.92500  0.60720  0.09480  Biso   1.000  H
  H19      1.0000 0.33170  0.62300  0.05530  Biso   1.000  H
  H20      1.0000 0.07210  0.05710  0.97510  Biso   1.000  H
  H21      1.0000 0.16690  0.12940  0.09370  Biso   1.000  H
  H22      1.0000 0.12270  0.55730  0.07490  Biso   1.000  H
  H23      1.0000 0.01120  0.47400  0.09970  Biso   1.000  H
  H24      1.0000 0.08140  0.03650  0.29400  Biso   1.000  H
  H25      1.0000 0.00820  0.75990  0.38980  Biso   1.000  H
  H26      1.0000 0.19370  0.96240  0.94950  Biso   1.000  H
  H27      1.0000 0.14900  0.93960  0.04640  Biso   1.000  H
  H28      1.0000 0.38470  0.55900  0.78350  Biso   1.000  H
  H29      1.0000 0.05630  0.50370  0.67660  Biso   1.000  H
  H30      1.0000 0.15340  0.48750  0.62910  Biso   1.000  H
  H31      1.0000 0.07460  0.64060  0.26210  Biso   1.000  H
  H32      1.0000 0.17650  0.72570  0.22860  Biso   1.000  H
  H33      1.0000 0.44770  0.95540  0.86330  Biso   1.000  H
  H34      1.0000 0.47780  0.92360  0.75920  Biso   1.000  H
  H35      1.0000 0.64030  0.09420  0.95550  Biso   1.000  H
  H36      1.0000 0.67270  0.09080  0.84930  Biso   1.000  H
  H37      1.0000 0.66720  0.67040  0.89430  Biso   1.000  H
  H38      1.0000 0.45420  0.11860  0.83330  Biso   1.000  H
  H39      1.0000 0.48480  0.08730  0.72930  Biso   1.000  H
  H40      1.0000 0.04360  0.85790  0.67130  Biso   1.000  H
  H41      1.0000 0.97930  0.38620  0.44410  Biso   1.000  H
  H42      1.0000 0.88780  0.41110  0.49450  Biso   1.000  H
  H43      1.0000 0.72350  0.30640  0.30310  Biso   1.000  H
  H44      1.0000 0.81900  0.29420  0.25090  Biso   1.000  H
  H45      1.0000 0.69560  0.73110  0.19590  Biso   1.000  H
  H46      1.0000 0.29080  0.08750  0.60030  Biso   1.000  H
  H47      1.0000 0.61360  0.90320  0.93260  Biso   1.000  H
  H48      1.0000 0.65650  0.90770  0.83260  Biso   1.000  H
  H49      1.0000 0.97030  0.31120  0.93890  Biso   1.000  H
  H50      1.0000 0.07500  0.39280  0.90520  Biso   1.000  H
  H51      1.0000 0.66830  0.37700  0.94470  Biso   1.000  H
  H52      1.0000 0.92790  0.94290  0.02490  Biso   1.000  H
  H53      1.0000 0.83310  0.87060  0.90630  Biso   1.000  H
  H54      1.0000 0.87730  0.44270  0.92510  Biso   1.000  H
  H55      1.0000 0.98880  0.52600  0.90030  Biso   1.000  H
  H56      1.0000 0.91860  0.96350  0.70600  Biso   1.000  H
  H57      1.0000 0.99180  0.24010  0.61020  Biso   1.000  H
  H58      1.0000 0.80630  0.03760  0.05050  Biso   1.000  H
  H59      1.0000 0.85100  0.06040  0.95360  Biso   1.000  H
  H60      1.0000 0.61530  0.44100  0.21650  Biso   1.000  H
  H61      1.0000 0.94370  0.49630  0.32340  Biso   1.000  H
  H62      1.0000 0.84660  0.51250  0.37090  Biso   1.000  H
  H63      1.0000 0.92540  0.35940  0.73790  Biso   1.000  H
  H64      1.0000 0.82350  0.27430  0.77140  Biso   1.000  H
  C1       1.0000 0.50740  0.01120  0.18140  Biso   1.000  C
  C2       1.0000 0.37430  0.95680  0.11440  Biso   1.000  C
  C3       1.0000 0.31030  0.29380  0.03170  Biso   1.000  C
  C4       1.0000 0.56010  0.94630  0.22610  Biso   1.000  C
  C5       1.0000 0.88010  0.09170  0.32830  Biso   1.000  C
  C6       1.0000 0.05270  0.55740  0.53950  Biso   1.000  C
  C7       1.0000 0.21730  0.65440  0.72860  Biso   1.000  C
  C8       1.0000 0.29330  0.25810  0.86840  Biso   1.000  C
  C9       1.0000 0.74840  0.96760  0.36860  Biso   1.000  C
  C10      1.0000 0.33330  0.04540  0.09730  Biso   1.000  C
  C11      1.0000 0.01140  0.63450  0.10330  Biso   1.000  C
  C12      1.0000 0.32720  0.61740  0.98360  Biso   1.000  C
  C13      1.0000 0.15890  0.09280  0.02040  Biso   1.000  C
  C14      1.0000 0.03500  0.53030  0.06040  Biso   1.000  C
  C15      1.0000 0.07190  0.96260  0.29900  Biso   1.000  C
  C16      1.0000 0.03160  0.81380  0.35220  Biso   1.000  C
  C17      1.0000 0.20170  0.99930  0.02280  Biso   1.000  C
  C18      1.0000 0.35680  0.58240  0.83740  Biso   1.000  C
  C19      1.0000 0.11720  0.54030  0.64540  Biso   1.000  C
  C20      1.0000 0.09030  0.69660  0.22130  Biso   1.000  C
  C21      1.0000 0.49260  0.98880  0.81860  Biso   1.000  C
  C22      1.0000 0.62570  0.04320  0.88560  Biso   1.000  C
  C23      1.0000 0.68970  0.70620  0.96830  Biso   1.000  C
  C24      1.0000 0.43990  0.05370  0.77390  Biso   1.000  C
  C25      1.0000 0.11990  0.90830  0.67170  Biso   1.000  C
  C26      1.0000 0.94730  0.44260  0.46050  Biso   1.000  C
  C27      1.0000 0.78270  0.34560  0.27140  Biso   1.000  C
  C28      1.0000 0.70670  0.74190  0.13160  Biso   1.000  C
  C29      1.0000 0.25160  0.03240  0.63140  Biso   1.000  C
  C30      1.0000 0.66670  0.95460  0.90270  Biso   1.000  C
  C31      1.0000 0.98860  0.36550  0.89670  Biso   1.000  C
  C32      1.0000 0.67280  0.38260  0.01640  Biso   1.000  C
  C33      1.0000 0.84110  0.90720  0.97960  Biso   1.000  C
  C34      1.0000 0.96500  0.46970  0.93960  Biso   1.000  C
  C35      1.0000 0.92810  0.03740  0.70100  Biso   1.000  C
  C36      1.0000 0.96840  0.18620  0.64780  Biso   1.000  C
  C37      1.0000 0.79830  0.00070  0.97720  Biso   1.000  C
  C38      1.0000 0.64320  0.41760  0.16260  Biso   1.000  C
  C39      1.0000 0.88280  0.45970  0.35460  Biso   1.000  C
  C40      1.0000 0.90970  0.30340  0.77870  Biso   1.000  C
  N1       1.0000 0.09580  0.89120  0.23310  Biso   1.000  N
  N2       1.0000 0.21800  0.15980  0.87280  Biso   1.000  N
  N3       1.0000 0.22870  0.18460  0.97820  Biso   1.000  N
  N4       1.0000 0.69250  0.00150  0.29300  Biso   1.000  N
  N5       1.0000 0.26080  0.65440  0.91950  Biso   1.000  N
  N6       1.0000 0.38830  0.57060  0.93710  Biso   1.000  N
  N7       1.0000 0.86870  0.02320  0.39420  Biso   1.000  N
  N8       1.0000 0.06840  0.79610  0.26990  Biso   1.000  N
  N9       1.0000 0.77670  0.08200  0.26430  Biso   1.000  N
  N10      1.0000 0.35530  0.34470  0.96540  Biso   1.000  N
  N11      1.0000 0.28080  0.63150  0.82610  Biso   1.000  N
  N12      1.0000 0.03210  0.91730  0.37440  Biso   1.000  N
  N13      1.0000 0.90420  0.10880  0.76690  Biso   1.000  N
  N14      1.0000 0.78200  0.84020  0.12720  Biso   1.000  N
  N15      1.0000 0.77130  0.81540  0.02180  Biso   1.000  N
  N16      1.0000 0.30750  0.99850  0.70700  Biso   1.000  N
  N17      1.0000 0.73920  0.34560  0.08050  Biso   1.000  N
  N18      1.0000 0.61170  0.42940  0.06290  Biso   1.000  N
  N19      1.0000 0.13130  0.97680  0.60580  Biso   1.000  N
  N20      1.0000 0.93160  0.20390  0.73010  Biso   1.000  N
  N21      1.0000 0.22330  0.91800  0.73570  Biso   1.000  N
  N22      1.0000 0.64470  0.65530  0.03460  Biso   1.000  N
  N23      1.0000 0.71920  0.36850  0.17390  Biso   1.000  N
  N24      1.0000 0.96790  0.08270  0.62560  Biso   1.000  N
