data_image0
_cell_length_a       9.353
_cell_length_b       9.797
_cell_length_c       11.388
_cell_angle_alpha    94.34
_cell_angle_beta     99.407
_cell_angle_gamma    111.455

_symmetry_space_group_name_H-M    P 1
_symmetry_int_tables_number       1

loop_
  _symmetry_equiv_pos_as_xyz
  'x, y, z'

loop_
  _atom_site_label
  _atom_site_occupancy
  _atom_site_fract_x
  _atom_site_fract_y
  _atom_site_fract_z
  _atom_site_thermal_displace_type
  _atom_site_B_iso_or_equiv
  _atom_site_type_symbol
  Y1       1.0000 0.27654  0.54510  0.48855  Biso   1.000  Y
  Y2       1.0000 0.72346  0.45490  0.51145  Biso   1.000  Y
  H1       1.0000 0.27380  0.23310  0.12100  Biso   1.000  H
  H2       1.0000 0.17660  0.10180  0.93620  Biso   1.000  H
  H3       1.0000 0.84510  0.26990  0.88450  Biso   1.000  H
  H4       1.0000 0.93680  0.39710  0.07810  Biso   1.000  H
  H5       1.0000 0.19970  0.29240  0.72280  Biso   1.000  H
  H6       1.0000 0.32210  0.00250  0.54010  Biso   1.000  H
  H7       1.0000 0.92050  0.85950  0.66090  Biso   1.000  H
  H8       1.0000 0.72620  0.76690  0.87900  Biso   1.000  H
  H9       1.0000 0.82340  0.89820  0.06380  Biso   1.000  H
  H10      1.0000 0.15490  0.73010  0.11550  Biso   1.000  H
  H11      1.0000 0.06320  0.60290  0.92190  Biso   1.000  H
  H12      1.0000 0.80030  0.70760  0.27720  Biso   1.000  H
  H13      1.0000 0.67790  0.99750  0.45990  Biso   1.000  H
  H14      1.0000 0.07950  0.14050  0.33910  Biso   1.000  H
  C1       1.0000 0.17510  0.41270  0.24520  Biso   1.000  C
  C2       1.0000 0.11590  0.32770  0.12340  Biso   1.000  C
  C3       1.0000 0.18570  0.23960  0.07450  Biso   1.000  C
  C4       1.0000 0.13100  0.16460  0.96380  Biso   1.000  C
  C5       1.0000 0.00560  0.17950  0.88890  Biso   1.000  C
  C6       1.0000 0.93200  0.26340  0.93290  Biso   1.000  C
  C7       1.0000 0.98630  0.33880  0.04910  Biso   1.000  C
  C8       1.0000 0.04800  0.07750  0.70760  Biso   1.000  C
  C9       1.0000 0.18030  0.19560  0.69100  Biso   1.000  C
  C10      1.0000 0.28110  0.16580  0.62670  Biso   1.000  C
  C11      1.0000 0.25090  0.02250  0.57960  Biso   1.000  C
  C12      1.0000 0.11410  0.90630  0.59040  Biso   1.000  C
  C13      1.0000 0.01260  0.93560  0.65420  Biso   1.000  C
  C14      1.0000 0.41950  0.29100  0.60310  Biso   1.000  C
  C15      1.0000 0.08150  0.75330  0.53320  Biso   1.000  C
  C16      1.0000 0.82490  0.58730  0.75480  Biso   1.000  C
  C17      1.0000 0.88410  0.67230  0.87660  Biso   1.000  C
  C18      1.0000 0.81430  0.76040  0.92550  Biso   1.000  C
  C19      1.0000 0.86900  0.83540  0.03620  Biso   1.000  C
  C20      1.0000 0.99440  0.82050  0.11110  Biso   1.000  C
  C21      1.0000 0.06800  0.73660  0.06710  Biso   1.000  C
  C22      1.0000 0.01370  0.66120  0.95090  Biso   1.000  C
  C23      1.0000 0.95200  0.92250  0.29240  Biso   1.000  C
  C24      1.0000 0.81970  0.80440  0.30900  Biso   1.000  C
  C25      1.0000 0.71890  0.83420  0.37330  Biso   1.000  C
  C26      1.0000 0.74910  0.97750  0.42040  Biso   1.000  C
  C27      1.0000 0.88590  0.09370  0.40960  Biso   1.000  C
  C28      1.0000 0.98740  0.06440  0.34580  Biso   1.000  C
  C29      1.0000 0.58050  0.70900  0.39690  Biso   1.000  C
  C30      1.0000 0.91850  0.24670  0.46680  Biso   1.000  C
  O1       1.0000 0.12220  0.50450  0.28280  Biso   1.000  O
  O2       1.0000 0.28150  0.38930  0.31690  Biso   1.000  O
  O3       1.0000 0.48770  0.71580  0.64400  Biso   1.000  O
  O4       1.0000 0.54660  0.27510  0.60580  Biso   1.000  O
  O5       1.0000 0.40230  0.40770  0.57780  Biso   1.000  O
  O6       1.0000 0.18910  0.73070  0.49170  Biso   1.000  O
  O7       1.0000 0.94960  0.65530  0.52850  Biso   1.000  O
  O8       1.0000 0.94520  0.10500  0.77260  Biso   1.000  O
  O9       1.0000 0.19240  0.54690  0.68310  Biso   1.000  O
  O10      1.0000 0.87780  0.49550  0.71720  Biso   1.000  O
  O11      1.0000 0.71850  0.61070  0.68310  Biso   1.000  O
  O12      1.0000 0.51230  0.28420  0.35600  Biso   1.000  O
  O13      1.0000 0.45340  0.72490  0.39420  Biso   1.000  O
  O14      1.0000 0.59770  0.59230  0.42220  Biso   1.000  O
  O15      1.0000 0.81090  0.26930  0.50830  Biso   1.000  O
  O16      1.0000 0.05040  0.34470  0.47150  Biso   1.000  O
  O17      1.0000 0.05480  0.89500  0.22740  Biso   1.000  O
  O18      1.0000 0.80760  0.45310  0.31690  Biso   1.000  O
