data_image0
_cell_length_a       9.331
_cell_length_b       9.841
_cell_length_c       11.423
_cell_angle_alpha    94.224
_cell_angle_beta     98.51
_cell_angle_gamma    110.952

_symmetry_space_group_name_H-M    P 1
_symmetry_int_tables_number       1

loop_
  _symmetry_equiv_pos_as_xyz
  'x, y, z'

loop_
  _atom_site_label
  _atom_site_occupancy
  _atom_site_fract_x
  _atom_site_fract_y
  _atom_site_fract_z
  _atom_site_thermal_displace_type
  _atom_site_B_iso_or_equiv
  _atom_site_type_symbol
  Gd1      1.0000 0.28115  0.54561  0.98540  Biso   1.000  Gd
  Gd2      1.0000 0.71885  0.45439  0.01460  Biso   1.000  Gd
  H1       1.0000 0.68140  0.00230  0.96220  Biso   1.000  H
  H2       1.0000 0.80500  0.71240  0.77890  Biso   1.000  H
  H3       1.0000 0.08110  0.13930  0.83680  Biso   1.000  H
  H4       1.0000 0.82350  0.89910  0.56820  Biso   1.000  H
  H5       1.0000 0.73030  0.77310  0.38110  Biso   1.000  H
  H6       1.0000 0.06300  0.60220  0.42170  Biso   1.000  H
  H7       1.0000 0.15550  0.72580  0.61540  Biso   1.000  H
  H8       1.0000 0.31860  0.99770  0.03780  Biso   1.000  H
  H9       1.0000 0.19500  0.28760  0.22110  Biso   1.000  H
  H10      1.0000 0.91890  0.86070  0.16320  Biso   1.000  H
  H11      1.0000 0.17650  0.10090  0.43180  Biso   1.000  H
  H12      1.0000 0.26970  0.22690  0.61890  Biso   1.000  H
  H13      1.0000 0.93700  0.39780  0.57830  Biso   1.000  H
  H14      1.0000 0.84450  0.27420  0.38460  Biso   1.000  H
  C1       1.0000 0.92360  0.24750  0.96670  Biso   1.000  C
  C2       1.0000 0.88850  0.09370  0.91050  Biso   1.000  C
  C3       1.0000 0.75270  0.98160  0.92220  Biso   1.000  C
  C4       1.0000 0.72270  0.83820  0.87440  Biso   1.000  C
  C5       1.0000 0.82420  0.80860  0.80990  Biso   1.000  C
  C6       1.0000 0.95400  0.92150  0.79130  Biso   1.000  C
  C7       1.0000 0.98970  0.06420  0.84500  Biso   1.000  C
  C8       1.0000 0.58090  0.71710  0.89690  Biso   1.000  C
  C9       1.0000 0.99710  0.82180  0.61130  Biso   1.000  C
  C10      1.0000 0.87020  0.83770  0.53920  Biso   1.000  C
  C11      1.0000 0.81610  0.76340  0.42730  Biso   1.000  C
  C12      1.0000 0.88430  0.67260  0.37850  Biso   1.000  C
  C13      1.0000 0.01390  0.66070  0.45160  Biso   1.000  C
  C14      1.0000 0.07020  0.73500  0.56810  Biso   1.000  C
  C15      1.0000 0.82350  0.58690  0.25920  Biso   1.000  C
  C16      1.0000 0.07640  0.75250  0.03330  Biso   1.000  C
  C17      1.0000 0.11150  0.90630  0.08950  Biso   1.000  C
  C18      1.0000 0.24730  0.01840  0.07780  Biso   1.000  C
  C19      1.0000 0.27730  0.16180  0.12560  Biso   1.000  C
  C20      1.0000 0.17580  0.19140  0.19010  Biso   1.000  C
  C21      1.0000 0.04600  0.07850  0.20870  Biso   1.000  C
  C22      1.0000 0.01030  0.93580  0.15500  Biso   1.000  C
  C23      1.0000 0.41910  0.28290  0.10310  Biso   1.000  C
  C24      1.0000 0.00290  0.17820  0.38870  Biso   1.000  C
  C25      1.0000 0.12980  0.16230  0.46080  Biso   1.000  C
  C26      1.0000 0.18390  0.23660  0.57270  Biso   1.000  C
  C27      1.0000 0.11570  0.32740  0.62150  Biso   1.000  C
  C28      1.0000 0.98610  0.33930  0.54840  Biso   1.000  C
  C29      1.0000 0.92980  0.26500  0.43190  Biso   1.000  C
  C30      1.0000 0.17650  0.41310  0.74080  Biso   1.000  C
  O1       1.0000 0.05420  0.34230  0.96810  Biso   1.000  O
  O2       1.0000 0.81800  0.27080  0.01130  Biso   1.000  O
  O3       1.0000 0.18930  0.54330  0.18080  Biso   1.000  O
  O4       1.0000 0.45290  0.73620  0.89000  Biso   1.000  O
  O5       1.0000 0.48800  0.71730  0.14400  Biso   1.000  O
  O6       1.0000 0.59370  0.60010  0.92600  Biso   1.000  O
  O7       1.0000 0.71540  0.60960  0.19160  Biso   1.000  O
  O8       1.0000 0.87670  0.49440  0.22170  Biso   1.000  O
  O9       1.0000 0.05730  0.89500  0.72570  Biso   1.000  O
  O10      1.0000 0.94580  0.65770  0.03190  Biso   1.000  O
  O11      1.0000 0.18200  0.72920  0.98870  Biso   1.000  O
  O12      1.0000 0.81070  0.45670  0.81920  Biso   1.000  O
  O13      1.0000 0.54710  0.26380  0.11000  Biso   1.000  O
  O14      1.0000 0.51200  0.28270  0.85600  Biso   1.000  O
  O15      1.0000 0.40630  0.39990  0.07400  Biso   1.000  O
  O16      1.0000 0.28460  0.39040  0.80840  Biso   1.000  O
  O17      1.0000 0.12330  0.50560  0.77830  Biso   1.000  O
  O18      1.0000 0.94270  0.10500  0.27430  Biso   1.000  O
