data_image0
_cell_length_a       9.341
_cell_length_b       9.865
_cell_length_c       11.415
_cell_angle_alpha    94.033
_cell_angle_beta     98.332
_cell_angle_gamma    110.809

_symmetry_space_group_name_H-M    P 1
_symmetry_int_tables_number       1

loop_
  _symmetry_equiv_pos_as_xyz
  'x, y, z'

loop_
  _atom_site_label
  _atom_site_occupancy
  _atom_site_fract_x
  _atom_site_fract_y
  _atom_site_fract_z
  _atom_site_thermal_displace_type
  _atom_site_B_iso_or_equiv
  _atom_site_type_symbol
  Sm1      1.0000 0.78261  0.54565  0.48497  Biso   1.000  Sm
  Sm2      1.0000 0.21739  0.45435  0.51503  Biso   1.000  Sm
  H1       1.0000 0.43450  0.39450  0.07710  Biso   1.000  H
  H2       1.0000 0.34630  0.27340  0.88430  Biso   1.000  H
  H3       1.0000 0.67650  0.10170  0.93110  Biso   1.000  H
  H4       1.0000 0.76730  0.22440  0.11950  Biso   1.000  H
  H5       1.0000 0.69570  0.28640  0.72130  Biso   1.000  H
  H6       1.0000 0.81810  0.99740  0.53580  Biso   1.000  H
  H7       1.0000 0.41950  0.86210  0.66490  Biso   1.000  H
  H8       1.0000 0.56550  0.60550  0.92290  Biso   1.000  H
  H9       1.0000 0.65370  0.72660  0.11570  Biso   1.000  H
  H10      1.0000 0.32350  0.89830  0.06890  Biso   1.000  H
  H11      1.0000 0.23270  0.77560  0.88050  Biso   1.000  H
  H12      1.0000 0.30430  0.71360  0.27870  Biso   1.000  H
  H13      1.0000 0.18190  0.00260  0.46420  Biso   1.000  H
  H14      1.0000 0.58050  0.13790  0.33510  Biso   1.000  H
  C1       1.0000 0.67670  0.41200  0.23910  Biso   1.000  C
  C2       1.0000 0.61650  0.32800  0.11950  Biso   1.000  C
  C3       1.0000 0.48530  0.33780  0.04710  Biso   1.000  C
  C4       1.0000 0.43110  0.26410  0.93190  Biso   1.000  C
  C5       1.0000 0.50330  0.17790  0.88920  Biso   1.000  C
  C6       1.0000 0.62940  0.16240  0.96030  Biso   1.000  C
  C7       1.0000 0.68330  0.23600  0.07260  Biso   1.000  C
  C8       1.0000 0.54730  0.07790  0.70790  Biso   1.000  C
  C9       1.0000 0.67680  0.19070  0.69010  Biso   1.000  C
  C10      1.0000 0.77760  0.16090  0.62600  Biso   1.000  C
  C11      1.0000 0.74770  0.01810  0.57690  Biso   1.000  C
  C12      1.0000 0.61140  0.90670  0.59010  Biso   1.000  C
  C13      1.0000 0.51070  0.93630  0.65580  Biso   1.000  C
  C14      1.0000 0.91980  0.28020  0.60260  Biso   1.000  C
  C15      1.0000 0.57640  0.75380  0.53250  Biso   1.000  C
  C16      1.0000 0.32330  0.58800  0.76090  Biso   1.000  C
  C17      1.0000 0.38350  0.67200  0.88050  Biso   1.000  C
  C18      1.0000 0.51470  0.66220  0.95290  Biso   1.000  C
  C19      1.0000 0.56890  0.73590  0.06810  Biso   1.000  C
  C20      1.0000 0.49670  0.82210  0.11080  Biso   1.000  C
  C21      1.0000 0.37060  0.83760  0.03970  Biso   1.000  C
  C22      1.0000 0.31670  0.76400  0.92740  Biso   1.000  C
  C23      1.0000 0.45270  0.92210  0.29210  Biso   1.000  C
  C24      1.0000 0.32320  0.80930  0.30990  Biso   1.000  C
  C25      1.0000 0.22240  0.83910  0.37400  Biso   1.000  C
  C26      1.0000 0.25230  0.98190  0.42310  Biso   1.000  C
  C27      1.0000 0.38860  0.09330  0.40990  Biso   1.000  C
  C28      1.0000 0.48930  0.06370  0.34420  Biso   1.000  C
  C29      1.0000 0.08020  0.71980  0.39740  Biso   1.000  C
  C30      1.0000 0.42360  0.24620  0.46750  Biso   1.000  C
  O1       1.0000 0.78480  0.39020  0.30640  Biso   1.000  O
  O2       1.0000 0.62200  0.50340  0.27630  Biso   1.000  O
  O3       1.0000 0.68950  0.54240  0.68240  Biso   1.000  O
  O4       1.0000 0.04730  0.25890  0.61150  Biso   1.000  O
  O5       1.0000 0.98900  0.71790  0.64460  Biso   1.000  O
  O6       1.0000 0.91140  0.39810  0.57430  Biso   1.000  O
  O7       1.0000 0.68180  0.72980  0.48890  Biso   1.000  O
  O8       1.0000 0.44470  0.65970  0.53250  Biso   1.000  O
  O9       1.0000 0.44270  0.10480  0.77410  Biso   1.000  O
  O10      1.0000 0.21520  0.60980  0.69360  Biso   1.000  O
  O11      1.0000 0.37800  0.49660  0.72370  Biso   1.000  O
  O12      1.0000 0.31050  0.45760  0.31760  Biso   1.000  O
  O13      1.0000 0.95270  0.74110  0.38850  Biso   1.000  O
  O14      1.0000 0.01100  0.28210  0.35540  Biso   1.000  O
  O15      1.0000 0.08860  0.60190  0.42570  Biso   1.000  O
  O16      1.0000 0.31820  0.27020  0.51110  Biso   1.000  O
  O17      1.0000 0.55530  0.34030  0.46750  Biso   1.000  O
  O18      1.0000 0.55730  0.89520  0.22590  Biso   1.000  O
