data_image0
_cell_length_a       9.37
_cell_length_b       9.902
_cell_length_c       11.429
_cell_angle_alpha    93.942
_cell_angle_beta     98.075
_cell_angle_gamma    110.692

_symmetry_space_group_name_H-M    P 1
_symmetry_int_tables_number       1

loop_
  _symmetry_equiv_pos_as_xyz
  'x, y, z'

loop_
  _atom_site_label
  _atom_site_occupancy
  _atom_site_fract_x
  _atom_site_fract_y
  _atom_site_fract_z
  _atom_site_thermal_displace_type
  _atom_site_B_iso_or_equiv
  _atom_site_type_symbol
  Nd1      1.0000 0.71605  0.45412  0.01559  Biso   1.000  Nd
  Nd2      1.0000 0.28395  0.54588  0.98441  Biso   1.000  Nd
  H1       1.0000 0.06260  0.60350  0.42460  Biso   1.000  H
  H2       1.0000 0.08150  0.13690  0.83500  Biso   1.000  H
  H3       1.0000 0.82660  0.90220  0.56950  Biso   1.000  H
  H4       1.0000 0.73450  0.77670  0.38250  Biso   1.000  H
  H5       1.0000 0.80380  0.71430  0.77920  Biso   1.000  H
  H6       1.0000 0.68180  0.00470  0.96220  Biso   1.000  H
  H7       1.0000 0.15350  0.72700  0.61550  Biso   1.000  H
  H8       1.0000 0.93740  0.39650  0.57540  Biso   1.000  H
  H9       1.0000 0.91850  0.86310  0.16500  Biso   1.000  H
  H10      1.0000 0.17340  0.09780  0.43050  Biso   1.000  H
  H11      1.0000 0.26550  0.22330  0.61750  Biso   1.000  H
  H12      1.0000 0.19620  0.28570  0.22080  Biso   1.000  H
  H13      1.0000 0.31820  0.99530  0.03780  Biso   1.000  H
  H14      1.0000 0.84650  0.27300  0.38450  Biso   1.000  H
  C1       1.0000 0.01340  0.66180  0.45420  Biso   1.000  C
  C2       1.0000 0.99610  0.82150  0.61140  Biso   1.000  C
  C3       1.0000 0.99050  0.06340  0.84410  Biso   1.000  C
  C4       1.0000 0.95380  0.92280  0.79230  Biso   1.000  C
  C5       1.0000 0.92560  0.24540  0.96780  Biso   1.000  C
  C6       1.0000 0.87200  0.84000  0.54080  Biso   1.000  C
  C7       1.0000 0.88870  0.09360  0.91060  Biso   1.000  C
  C8       1.0000 0.81840  0.76560  0.42910  Biso   1.000  C
  C9       1.0000 0.88510  0.67330  0.38220  Biso   1.000  C
  C10      1.0000 0.82310  0.80960  0.81030  Biso   1.000  C
  C11      1.0000 0.75270  0.98330  0.92240  Biso   1.000  C
  C12      1.0000 0.72190  0.84090  0.87520  Biso   1.000  C
  C13      1.0000 0.57880  0.72360  0.89700  Biso   1.000  C
  C14      1.0000 0.06840  0.73580  0.56860  Biso   1.000  C
  C15      1.0000 0.82340  0.58900  0.26280  Biso   1.000  C
  C16      1.0000 0.98660  0.33820  0.54580  Biso   1.000  C
  C17      1.0000 0.00390  0.17850  0.38860  Biso   1.000  C
  C18      1.0000 0.00950  0.93660  0.15590  Biso   1.000  C
  C19      1.0000 0.04620  0.07720  0.20770  Biso   1.000  C
  C20      1.0000 0.07440  0.75460  0.03220  Biso   1.000  C
  C21      1.0000 0.12800  0.16000  0.45920  Biso   1.000  C
  C22      1.0000 0.11130  0.90640  0.08940  Biso   1.000  C
  C23      1.0000 0.18160  0.23440  0.57090  Biso   1.000  C
  C24      1.0000 0.11490  0.32670  0.61780  Biso   1.000  C
  C25      1.0000 0.17690  0.19040  0.18970  Biso   1.000  C
  C26      1.0000 0.24730  0.01670  0.07760  Biso   1.000  C
  C27      1.0000 0.27810  0.15910  0.12480  Biso   1.000  C
  C28      1.0000 0.42120  0.27640  0.10300  Biso   1.000  C
  C29      1.0000 0.93160  0.26420  0.43140  Biso   1.000  C
  C30      1.0000 0.17660  0.41100  0.73720  Biso   1.000  C
  O1       1.0000 0.71310  0.60920  0.19640  Biso   1.000  O
  O2       1.0000 0.81180  0.45820  0.81630  Biso   1.000  O
  O3       1.0000 0.05570  0.89380  0.72590  Biso   1.000  O
  O4       1.0000 0.82100  0.27020  0.01290  Biso   1.000  O
  O5       1.0000 0.51090  0.28160  0.85330  Biso   1.000  O
  O6       1.0000 0.05630  0.33830  0.96730  Biso   1.000  O
  O7       1.0000 0.87800  0.49780  0.22520  Biso   1.000  O
  O8       1.0000 0.58530  0.60450  0.92560  Biso   1.000  O
  O9       1.0000 0.45450  0.74590  0.88770  Biso   1.000  O
  O10      1.0000 0.28690  0.39080  0.80360  Biso   1.000  O
  O11      1.0000 0.18820  0.54180  0.18370  Biso   1.000  O
  O12      1.0000 0.94430  0.10620  0.27410  Biso   1.000  O
  O13      1.0000 0.17900  0.72980  0.98710  Biso   1.000  O
  O14      1.0000 0.48910  0.71840  0.14670  Biso   1.000  O
  O15      1.0000 0.94370  0.66170  0.03270  Biso   1.000  O
  O16      1.0000 0.12200  0.50220  0.77480  Biso   1.000  O
  O17      1.0000 0.41470  0.39550  0.07440  Biso   1.000  O
  O18      1.0000 0.54550  0.25410  0.11230  Biso   1.000  O
