data_image0
_cell_length_a       9.356
_cell_length_b       9.796
_cell_length_c       11.415
_cell_angle_alpha    94.799
_cell_angle_beta     99.614
_cell_angle_gamma    111.738

_symmetry_space_group_name_H-M    P 1
_symmetry_int_tables_number       1

loop_
  _symmetry_equiv_pos_as_xyz
  'x, y, z'

loop_
  _atom_site_label
  _atom_site_occupancy
  _atom_site_fract_x
  _atom_site_fract_y
  _atom_site_fract_z
  _atom_site_thermal_displace_type
  _atom_site_B_iso_or_equiv
  _atom_site_type_symbol
  Tm1      1.0000 0.72515  0.45516  0.01024  Biso   1.000  Tm
  Tm2      1.0000 0.27485  0.54484  0.98976  Biso   1.000  Tm
  H1       1.0000 0.06490  0.60500  0.42070  Biso   1.000  H
  H2       1.0000 0.14820  0.72250  0.61880  Biso   1.000  H
  H3       1.0000 0.82000  0.89600  0.56580  Biso   1.000  H
  H4       1.0000 0.72860  0.77110  0.37450  Biso   1.000  H
  H5       1.0000 0.80070  0.70500  0.77490  Biso   1.000  H
  H6       1.0000 0.67600  0.99440  0.96100  Biso   1.000  H
  H7       1.0000 0.07520  0.14250  0.83580  Biso   1.000  H
  H8       1.0000 0.93510  0.39500  0.57930  Biso   1.000  H
  H9       1.0000 0.85180  0.27750  0.38120  Biso   1.000  H
  H10      1.0000 0.18000  0.10400  0.43420  Biso   1.000  H
  H11      1.0000 0.27140  0.22890  0.62550  Biso   1.000  H
  H12      1.0000 0.19930  0.29500  0.22510  Biso   1.000  H
  H13      1.0000 0.32400  0.00560  0.03900  Biso   1.000  H
  H14      1.0000 0.92480  0.85750  0.16420  Biso   1.000  H
  C1       1.0000 0.82650  0.58920  0.25180  Biso   1.000  C
  C2       1.0000 0.88390  0.67130  0.37370  Biso   1.000  C
  C3       1.0000 0.01330  0.66090  0.45010  Biso   1.000  C
  C4       1.0000 0.06500  0.73290  0.56860  Biso   1.000  C
  C5       1.0000 0.99240  0.81920  0.61070  Biso   1.000  C
  C6       1.0000 0.86690  0.83530  0.53680  Biso   1.000  C
  C7       1.0000 0.81400  0.76170  0.42250  Biso   1.000  C
  C8       1.0000 0.94900  0.91930  0.79280  Biso   1.000  C
  C9       1.0000 0.82000  0.80180  0.80780  Biso   1.000  C
  C10      1.0000 0.71820  0.83070  0.87360  Biso   1.000  C
  C11      1.0000 0.74740  0.97540  0.92140  Biso   1.000  C
  C12      1.0000 0.88130  0.09120  0.91100  Biso   1.000  C
  C13      1.0000 0.98510  0.06480  0.84470  Biso   1.000  C
  C14      1.0000 0.58160  0.70480  0.89800  Biso   1.000  C
  C15      1.0000 0.91730  0.24690  0.96730  Biso   1.000  C
  C16      1.0000 0.17350  0.41080  0.74820  Biso   1.000  C
  C17      1.0000 0.11610  0.32870  0.62630  Biso   1.000  C
  C18      1.0000 0.98670  0.33910  0.54990  Biso   1.000  C
  C19      1.0000 0.93500  0.26710  0.43140  Biso   1.000  C
  C20      1.0000 0.00760  0.18080  0.38930  Biso   1.000  C
  C21      1.0000 0.13310  0.16470  0.46320  Biso   1.000  C
  C22      1.0000 0.18600  0.23830  0.57750  Biso   1.000  C
  C23      1.0000 0.05100  0.08070  0.20720  Biso   1.000  C
  C24      1.0000 0.18000  0.19820  0.19220  Biso   1.000  C
  C25      1.0000 0.28180  0.16930  0.12640  Biso   1.000  C
  C26      1.0000 0.25260  0.02460  0.07860  Biso   1.000  C
  C27      1.0000 0.11870  0.90880  0.08900  Biso   1.000  C
  C28      1.0000 0.01490  0.93520  0.15530  Biso   1.000  C
  C29      1.0000 0.41840  0.29520  0.10200  Biso   1.000  C
  C30      1.0000 0.08270  0.75310  0.03270  Biso   1.000  C
  O1       1.0000 0.87930  0.49620  0.21520  Biso   1.000  O
  O2       1.0000 0.72100  0.61290  0.18000  Biso   1.000  O
  O3       1.0000 0.80710  0.45170  0.81710  Biso   1.000  O
  O4       1.0000 0.60170  0.58970  0.92160  Biso   1.000  O
  O5       1.0000 0.51390  0.28320  0.85510  Biso   1.000  O
  O6       1.0000 0.45320  0.72000  0.89660  Biso   1.000  O
  O7       1.0000 0.80730  0.26790  0.00610  Biso   1.000  O
  O8       1.0000 0.04950  0.34580  0.97140  Biso   1.000  O
  O9       1.0000 0.05430  0.89420  0.72850  Biso   1.000  O
  O10      1.0000 0.12070  0.50380  0.78480  Biso   1.000  O
  O11      1.0000 0.27900  0.38710  0.82000  Biso   1.000  O
  O12      1.0000 0.19290  0.54830  0.18290  Biso   1.000  O
  O13      1.0000 0.39830  0.41030  0.07840  Biso   1.000  O
  O14      1.0000 0.48610  0.71680  0.14490  Biso   1.000  O
  O15      1.0000 0.54680  0.28000  0.10340  Biso   1.000  O
  O16      1.0000 0.19270  0.73210  0.99390  Biso   1.000  O
  O17      1.0000 0.95050  0.65420  0.02860  Biso   1.000  O
  O18      1.0000 0.94570  0.10580  0.27150  Biso   1.000  O
