data_image0
_cell_length_a       9.341
_cell_length_b       9.813
_cell_length_c       11.395
_cell_angle_alpha    94.247
_cell_angle_beta     99.087
_cell_angle_gamma    111.259

_symmetry_space_group_name_H-M    P 1
_symmetry_int_tables_number       1

loop_
  _symmetry_equiv_pos_as_xyz
  'x, y, z'

loop_
  _atom_site_label
  _atom_site_occupancy
  _atom_site_fract_x
  _atom_site_fract_y
  _atom_site_fract_z
  _atom_site_thermal_displace_type
  _atom_site_B_iso_or_equiv
  _atom_site_type_symbol
  Dy1      1.0000 0.22185  0.45483  0.01271  Biso   1.000  Dy
  Dy2      1.0000 0.77815  0.54517  0.98729  Biso   1.000  Dy
  H1       1.0000 0.56750  0.60720  0.42150  Biso   1.000  H
  H2       1.0000 0.65420  0.72720  0.61760  Biso   1.000  H
  H3       1.0000 0.32060  0.89690  0.56670  Biso   1.000  H
  H4       1.0000 0.23080  0.77310  0.37720  Biso   1.000  H
  H5       1.0000 0.30300  0.70980  0.77650  Biso   1.000  H
  H6       1.0000 0.17760  0.99880  0.96060  Biso   1.000  H
  H7       1.0000 0.58020  0.14050  0.83720  Biso   1.000  H
  H8       1.0000 0.43250  0.39280  0.57850  Biso   1.000  H
  H9       1.0000 0.34580  0.27280  0.38240  Biso   1.000  H
  H10      1.0000 0.67940  0.10310  0.43330  Biso   1.000  H
  H11      1.0000 0.76920  0.22690  0.62280  Biso   1.000  H
  H12      1.0000 0.69700  0.29020  0.22350  Biso   1.000  H
  H13      1.0000 0.82240  0.00120  0.03940  Biso   1.000  H
  H14      1.0000 0.41980  0.85950  0.16280  Biso   1.000  H
  C1       1.0000 0.32430  0.58830  0.25580  Biso   1.000  C
  C2       1.0000 0.38440  0.67150  0.37660  Biso   1.000  C
  C3       1.0000 0.51560  0.66290  0.45130  Biso   1.000  C
  C4       1.0000 0.56930  0.73610  0.56880  Biso   1.000  C
  C5       1.0000 0.49520  0.82120  0.61130  Biso   1.000  C
  C6       1.0000 0.36830  0.83660  0.53790  Biso   1.000  C
  C7       1.0000 0.31580  0.76290  0.42490  Biso   1.000  C
  C8       1.0000 0.45130  0.92180  0.79270  Biso   1.000  C
  C9       1.0000 0.32200  0.80610  0.80870  Biso   1.000  C
  C10      1.0000 0.22040  0.83540  0.87370  Biso   1.000  C
  C11      1.0000 0.24930  0.97890  0.92120  Biso   1.000  C
  C12      1.0000 0.38480  0.09310  0.91010  Biso   1.000  C
  C13      1.0000 0.48860  0.06490  0.84500  Biso   1.000  C
  C14      1.0000 0.08040  0.71140  0.89700  Biso   1.000  C
  C15      1.0000 0.42120  0.24730  0.96840  Biso   1.000  C
  C16      1.0000 0.67570  0.41170  0.74420  Biso   1.000  C
  C17      1.0000 0.61560  0.32850  0.62340  Biso   1.000  C
  C18      1.0000 0.48440  0.33710  0.54870  Biso   1.000  C
  C19      1.0000 0.43070  0.26390  0.43120  Biso   1.000  C
  C20      1.0000 0.50480  0.17880  0.38870  Biso   1.000  C
  C21      1.0000 0.63170  0.16340  0.46210  Biso   1.000  C
  C22      1.0000 0.68420  0.23710  0.57510  Biso   1.000  C
  C23      1.0000 0.54870  0.07820  0.20730  Biso   1.000  C
  C24      1.0000 0.67800  0.19390  0.19130  Biso   1.000  C
  C25      1.0000 0.77960  0.16460  0.12630  Biso   1.000  C
  C26      1.0000 0.75070  0.02110  0.07880  Biso   1.000  C
  C27      1.0000 0.61520  0.90690  0.08990  Biso   1.000  C
  C28      1.0000 0.51140  0.93510  0.15500  Biso   1.000  C
  C29      1.0000 0.91960  0.28860  0.10300  Biso   1.000  C
  C30      1.0000 0.57880  0.75270  0.03160  Biso   1.000  C
  O1       1.0000 0.37870  0.49520  0.21900  Biso   1.000  O
  O2       1.0000 0.21840  0.61010  0.18550  Biso   1.000  O
  O3       1.0000 0.01220  0.28360  0.85600  Biso   1.000  O
  O4       1.0000 0.09640  0.59540  0.92430  Biso   1.000  O
  O5       1.0000 0.30820  0.45430  0.81770  Biso   1.000  O
  O6       1.0000 0.95320  0.72940  0.89210  Biso   1.000  O
  O7       1.0000 0.55210  0.34450  0.96970  Biso   1.000  O
  O8       1.0000 0.31300  0.26900  0.00980  Biso   1.000  O
  O9       1.0000 0.55580  0.89490  0.72650  Biso   1.000  O
  O10      1.0000 0.62130  0.50480  0.78100  Biso   1.000  O
  O11      1.0000 0.78160  0.38990  0.81450  Biso   1.000  O
  O12      1.0000 0.98780  0.71640  0.14400  Biso   1.000  O
  O13      1.0000 0.90360  0.40460  0.07570  Biso   1.000  O
  O14      1.0000 0.69180  0.54570  0.18230  Biso   1.000  O
  O15      1.0000 0.04680  0.27060  0.10790  Biso   1.000  O
  O16      1.0000 0.44790  0.65550  0.03030  Biso   1.000  O
  O17      1.0000 0.68700  0.73100  0.99020  Biso   1.000  O
  O18      1.0000 0.44420  0.10510  0.27350  Biso   1.000  O
