data_image0
_cell_length_a       9.349
_cell_length_b       9.8
_cell_length_c       11.379
_cell_angle_alpha    94.441
_cell_angle_beta     99.305
_cell_angle_gamma    111.527

_symmetry_space_group_name_H-M    P 1
_symmetry_int_tables_number       1

loop_
  _symmetry_equiv_pos_as_xyz
  'x, y, z'

loop_
  _atom_site_label
  _atom_site_occupancy
  _atom_site_fract_x
  _atom_site_fract_y
  _atom_site_fract_z
  _atom_site_thermal_displace_type
  _atom_site_B_iso_or_equiv
  _atom_site_type_symbol
  Er1      1.0000 0.72419  0.45490  0.01131  Biso   1.000  Er
  Er2      1.0000 0.27581  0.54510  0.98869  Biso   1.000  Er
  H1       1.0000 0.72940  0.77230  0.37580  Biso   1.000  H
  H2       1.0000 0.82320  0.89840  0.56550  Biso   1.000  H
  H3       1.0000 0.15300  0.72560  0.61680  Biso   1.000  H
  H4       1.0000 0.06640  0.60640  0.42080  Biso   1.000  H
  H5       1.0000 0.07680  0.14050  0.83730  Biso   1.000  H
  H6       1.0000 0.67810  0.99640  0.96090  Biso   1.000  H
  H7       1.0000 0.80290  0.70760  0.77690  Biso   1.000  H
  H8       1.0000 0.27060  0.22770  0.62420  Biso   1.000  H
  H9       1.0000 0.17680  0.10160  0.43450  Biso   1.000  H
  H10      1.0000 0.84700  0.27440  0.38320  Biso   1.000  H
  H11      1.0000 0.93360  0.39360  0.57920  Biso   1.000  H
  H12      1.0000 0.92320  0.85950  0.16270  Biso   1.000  H
  H13      1.0000 0.32190  0.00360  0.03910  Biso   1.000  H
  H14      1.0000 0.19710  0.29240  0.22310  Biso   1.000  H
  C1       1.0000 0.82390  0.58700  0.25300  Biso   1.000  C
  C2       1.0000 0.88300  0.66980  0.37410  Biso   1.000  C
  C3       1.0000 0.81490  0.76240  0.42330  Biso   1.000  C
  C4       1.0000 0.86940  0.83690  0.53670  Biso   1.000  C
  C5       1.0000 0.99530  0.82100  0.61020  Biso   1.000  C
  C6       1.0000 0.06840  0.73490  0.56760  Biso   1.000  C
  C7       1.0000 0.01460  0.66220  0.45040  Biso   1.000  C
  C8       1.0000 0.95070  0.92220  0.79350  Biso   1.000  C
  C9       1.0000 0.98570  0.06400  0.84560  Biso   1.000  C
  C10      1.0000 0.88440  0.09290  0.91060  Biso   1.000  C
  C11      1.0000 0.74950  0.97690  0.92110  Biso   1.000  C
  C12      1.0000 0.71890  0.83200  0.87320  Biso   1.000  C
  C13      1.0000 0.82100  0.80410  0.80910  Biso   1.000  C
  C14      1.0000 0.91850  0.24580  0.96640  Biso   1.000  C
  C15      1.0000 0.58310  0.70850  0.89680  Biso   1.000  C
  C16      1.0000 0.17610  0.41300  0.74700  Biso   1.000  C
  C17      1.0000 0.11700  0.33020  0.62590  Biso   1.000  C
  C18      1.0000 0.18510  0.23760  0.57670  Biso   1.000  C
  C19      1.0000 0.13060  0.16310  0.46330  Biso   1.000  C
  C20      1.0000 0.00470  0.17900  0.38980  Biso   1.000  C
  C21      1.0000 0.93160  0.26510  0.43240  Biso   1.000  C
  C22      1.0000 0.98540  0.33780  0.54960  Biso   1.000  C
  C23      1.0000 0.04930  0.07780  0.20650  Biso   1.000  C
  C24      1.0000 0.01430  0.93600  0.15440  Biso   1.000  C
  C25      1.0000 0.11560  0.90710  0.08940  Biso   1.000  C
  C26      1.0000 0.25050  0.02310  0.07890  Biso   1.000  C
  C27      1.0000 0.28110  0.16800  0.12680  Biso   1.000  C
  C28      1.0000 0.17900  0.19590  0.19090  Biso   1.000  C
  C29      1.0000 0.08150  0.75420  0.03360  Biso   1.000  C
  C30      1.0000 0.41690  0.29150  0.10320  Biso   1.000  C
  O1       1.0000 0.87780  0.49480  0.21670  Biso   1.000  O
  O2       1.0000 0.71980  0.61150  0.18260  Biso   1.000  O
  O3       1.0000 0.51400  0.28350  0.85560  Biso   1.000  O
  O4       1.0000 0.45240  0.72260  0.89390  Biso   1.000  O
  O5       1.0000 0.80880  0.45250  0.81910  Biso   1.000  O
  O6       1.0000 0.60020  0.59060  0.92190  Biso   1.000  O
  O7       1.0000 0.81020  0.26870  0.00900  Biso   1.000  O
  O8       1.0000 0.05030  0.34470  0.97070  Biso   1.000  O
  O9       1.0000 0.05650  0.89560  0.72730  Biso   1.000  O
  O10      1.0000 0.12220  0.50520  0.78330  Biso   1.000  O
  O11      1.0000 0.28020  0.38850  0.81740  Biso   1.000  O
  O12      1.0000 0.48600  0.71650  0.14440  Biso   1.000  O
  O13      1.0000 0.54760  0.27740  0.10610  Biso   1.000  O
  O14      1.0000 0.19120  0.54750  0.18090  Biso   1.000  O
  O15      1.0000 0.39980  0.40940  0.07810  Biso   1.000  O
  O16      1.0000 0.18980  0.73130  0.99100  Biso   1.000  O
  O17      1.0000 0.94970  0.65530  0.02930  Biso   1.000  O
  O18      1.0000 0.94350  0.10440  0.27270  Biso   1.000  O
