data_image0
_cell_length_a       8.13
_cell_length_b       22.358
_cell_length_c       10.538
_cell_angle_alpha    90
_cell_angle_beta     112.357
_cell_angle_gamma    90

_symmetry_space_group_name_H-M    "P 1"
_symmetry_int_tables_number       1

loop_
  _symmetry_equiv_pos_as_xyz
  'x, y, z'

loop_
  _atom_site_label
  _atom_site_occupancy
  _atom_site_fract_x
  _atom_site_fract_y
  _atom_site_fract_z
  _atom_site_thermal_displace_type
  _atom_site_B_iso_or_equiv
  _atom_site_type_symbol
  Zn1      1.0000 0.84223  0.19393  0.41381  Biso   1.000  Zn
  Zn2      1.0000 0.28353  0.03194  0.33221  Biso   1.000  Zn
  Cl1      1.0000 0.30358  0.97535  0.15615  Biso   1.000  Cl
  P1       1.0000 0.00350  0.14788  0.20862  Biso   1.000  P
  P2       1.0000 0.69687  0.07216  0.46679  Biso   1.000  P
  P3       1.0000 0.48756  0.22974  0.19198  Biso   1.000  P
  O1       1.0000 0.10030  0.08990  0.24960  Biso   1.000  O
  O2       1.0000 0.04820  0.18120  0.09890  Biso   1.000  O
  O3       1.0000 0.02950  0.18758  0.33270  Biso   1.000  O
  O4       1.0000 0.78720  0.01704  0.54670  Biso   1.000  O
  O5       1.0000 0.79090  0.13018  0.53140  Biso   1.000  O
  O6       1.0000 0.49930  0.07634  0.44410  Biso   1.000  O
  O7       1.0000 0.31010  0.24580  0.20450  Biso   1.000  O
  H1       1.0000 0.23490  0.22060  0.16410  Biso   1.000  H
  O8       1.0000 0.63540  0.24919  0.32540  Biso   1.000  O
  O9       1.0000 0.50160  0.25526  0.06550  Biso   1.000  O
  N1       1.0000 0.69030  0.12899  0.23860  Biso   1.000  N
  C1       1.0000 0.76460  0.13410  0.13110  Biso   1.000  C
  H2       1.0000 0.70670  0.16670  0.06950  Biso   1.000  H
  H3       1.0000 0.74210  0.09750  0.07790  Biso   1.000  H
  C2       1.0000 0.71820  0.06870  0.30130  Biso   1.000  C
  H4       1.0000 0.83560  0.05420  0.31320  Biso   1.000  H
  H5       1.0000 0.63090  0.04110  0.24140  Biso   1.000  H
  C3       1.0000 0.50060  0.14840  0.18650  Biso   1.000  C
  H6       1.0000 0.43990  0.13460  0.09300  Biso   1.000  H
  H7       1.0000 0.44200  0.13090  0.24250  Biso   1.000  H
  Zn3      1.0000 0.65777  0.69393  0.08619  Biso   1.000  Zn
  Zn4      1.0000 0.21647  0.53194  0.16779  Biso   1.000  Zn
  Cl2      1.0000 0.19642  0.47535  0.34385  Biso   1.000  Cl
  P4       1.0000 0.49650  0.64788  0.29138  Biso   1.000  P
  P5       1.0000 0.80313  0.57216  0.03321  Biso   1.000  P
  P6       1.0000 0.01244  0.72974  0.30802  Biso   1.000  P
  O10      1.0000 0.39970  0.58990  0.25040  Biso   1.000  O
  O11      1.0000 0.45180  0.68120  0.40110  Biso   1.000  O
  O12      1.0000 0.47050  0.68758  0.16730  Biso   1.000  O
  O13      1.0000 0.71280  0.51704  0.95330  Biso   1.000  O
  O14      1.0000 0.70910  0.63018  0.96860  Biso   1.000  O
  O15      1.0000 0.00070  0.57634  0.05590  Biso   1.000  O
  O16      1.0000 0.18990  0.74580  0.29550  Biso   1.000  O
  H8       1.0000 0.26510  0.72060  0.33590  Biso   1.000  H
  O17      1.0000 0.86460  0.74919  0.17460  Biso   1.000  O
  O18      1.0000 0.99840  0.75526  0.43450  Biso   1.000  O
  N2       1.0000 0.80970  0.62899  0.26140  Biso   1.000  N
  C4       1.0000 0.73540  0.63410  0.36890  Biso   1.000  C
  H9       1.0000 0.79330  0.66670  0.43050  Biso   1.000  H
  H10      1.0000 0.75790  0.59750  0.42210  Biso   1.000  H
  C5       1.0000 0.78180  0.56870  0.19870  Biso   1.000  C
  H11      1.0000 0.66440  0.55420  0.18680  Biso   1.000  H
  H12      1.0000 0.86910  0.54110  0.25860  Biso   1.000  H
  C6       1.0000 0.99940  0.64840  0.31350  Biso   1.000  C
  H13      1.0000 0.06010  0.63460  0.40700  Biso   1.000  H
  H14      1.0000 0.05800  0.63090  0.25750  Biso   1.000  H
  Zn5      1.0000 0.15777  0.80607  0.58619  Biso   1.000  Zn
  Zn6      1.0000 0.71647  0.96806  0.66779  Biso   1.000  Zn
  Cl3      1.0000 0.69642  0.02465  0.84385  Biso   1.000  Cl
  P7       1.0000 0.99650  0.85212  0.79138  Biso   1.000  P
  P8       1.0000 0.30313  0.92784  0.53321  Biso   1.000  P
  P9       1.0000 0.51244  0.77026  0.80802  Biso   1.000  P
  O19      1.0000 0.89970  0.91010  0.75040  Biso   1.000  O
  O20      1.0000 0.95180  0.81880  0.90110  Biso   1.000  O
  O21      1.0000 0.97050  0.81242  0.66730  Biso   1.000  O
  O22      1.0000 0.21280  0.98296  0.45330  Biso   1.000  O
  O23      1.0000 0.20910  0.86982  0.46860  Biso   1.000  O
  O24      1.0000 0.50070  0.92366  0.55590  Biso   1.000  O
  O25      1.0000 0.68990  0.75420  0.79550  Biso   1.000  O
  H15      1.0000 0.76510  0.77940  0.83590  Biso   1.000  H
  O26      1.0000 0.36460  0.75081  0.67460  Biso   1.000  O
  O27      1.0000 0.49840  0.74474  0.93450  Biso   1.000  O
  N3       1.0000 0.30970  0.87101  0.76140  Biso   1.000  N
  C7       1.0000 0.23540  0.86590  0.86890  Biso   1.000  C
  H16      1.0000 0.29330  0.83330  0.93050  Biso   1.000  H
  H17      1.0000 0.25790  0.90250  0.92210  Biso   1.000  H
  C8       1.0000 0.28180  0.93130  0.69870  Biso   1.000  C
  H18      1.0000 0.16440  0.94580  0.68680  Biso   1.000  H
  H19      1.0000 0.36910  0.95890  0.75860  Biso   1.000  H
  C9       1.0000 0.49940  0.85160  0.81350  Biso   1.000  C
  H20      1.0000 0.56010  0.86540  0.90700  Biso   1.000  H
  H21      1.0000 0.55800  0.86910  0.75750  Biso   1.000  H
  Zn7      1.0000 0.34223  0.30607  0.91381  Biso   1.000  Zn
  Zn8      1.0000 0.78353  0.46806  0.83221  Biso   1.000  Zn
  Cl4      1.0000 0.80358  0.52465  0.65615  Biso   1.000  Cl
  P10      1.0000 0.50350  0.35212  0.70862  Biso   1.000  P
  P11      1.0000 0.19687  0.42784  0.96679  Biso   1.000  P
  P12      1.0000 0.98756  0.27026  0.69198  Biso   1.000  P
  O28      1.0000 0.60030  0.41010  0.74960  Biso   1.000  O
  O29      1.0000 0.54820  0.31880  0.59890  Biso   1.000  O
  O30      1.0000 0.52950  0.31242  0.83270  Biso   1.000  O
  O31      1.0000 0.28720  0.48296  0.04670  Biso   1.000  O
  O32      1.0000 0.29090  0.36982  0.03140  Biso   1.000  O
  O33      1.0000 0.99930  0.42366  0.94410  Biso   1.000  O
  O34      1.0000 0.81010  0.25420  0.70450  Biso   1.000  O
  H22      1.0000 0.73490  0.27940  0.66410  Biso   1.000  H
  O35      1.0000 0.13540  0.25081  0.82540  Biso   1.000  O
  O36      1.0000 0.00160  0.24474  0.56550  Biso   1.000  O
  N4       1.0000 0.19030  0.37101  0.73860  Biso   1.000  N
  C10      1.0000 0.26460  0.36590  0.63110  Biso   1.000  C
  H23      1.0000 0.20670  0.33330  0.56950  Biso   1.000  H
  H24      1.0000 0.24210  0.40250  0.57790  Biso   1.000  H
  C11      1.0000 0.21820  0.43130  0.80130  Biso   1.000  C
  H25      1.0000 0.33560  0.44580  0.81320  Biso   1.000  H
  H26      1.0000 0.13090  0.45890  0.74140  Biso   1.000  H
  C12      1.0000 0.00060  0.35160  0.68650  Biso   1.000  C
  H27      1.0000 0.93990  0.36540  0.59300  Biso   1.000  H
  H28      1.0000 0.94200  0.36910  0.74250  Biso   1.000  H
