data_image0
_cell_length_a       10.3515
_cell_length_b       21.3776
_cell_length_c       21.3776
_cell_angle_alpha    62.5534
_cell_angle_beta     80.7114
_cell_angle_gamma    99.2886

_symmetry_space_group_name_H-M    P 1
_symmetry_int_tables_number       1

loop_
  _symmetry_equiv_pos_as_xyz
  'x, y, z'

loop_
  _atom_site_label
  _atom_site_occupancy
  _atom_site_fract_x
  _atom_site_fract_y
  _atom_site_fract_z
  _atom_site_thermal_displace_type
  _atom_site_B_iso_or_equiv
  _atom_site_type_symbol
  P1       1.0000 0.46919  0.59821  0.94314  Biso   1.000  P
  P2       1.0000 0.49898  0.78194  0.72460  Biso   1.000  P
  P3       1.0000 0.03173  0.43448  0.96409  Biso   1.000  P
  P4       1.0000 0.30317  0.54544  0.72273  Biso   1.000  P
  P5       1.0000 0.41233  0.94314  0.45865  Biso   1.000  P
  P6       1.0000 0.22358  0.72460  0.49346  Biso   1.000  P
  P7       1.0000 0.99582  0.96409  0.60143  Biso   1.000  P
  P8       1.0000 0.02590  0.72273  0.73183  Biso   1.000  P
  P9       1.0000 0.87098  0.45865  0.59821  Biso   1.000  P
  P10      1.0000 0.71704  0.49346  0.78194  Biso   1.000  P
  P11      1.0000 0.59725  0.60143  0.43448  Biso   1.000  P
  P12      1.0000 0.75773  0.73183  0.54544  Biso   1.000  P
  P13      1.0000 0.53081  0.40179  0.05686  Biso   1.000  P
  P14      1.0000 0.50102  0.21806  0.27540  Biso   1.000  P
  P15      1.0000 0.96827  0.56552  0.03591  Biso   1.000  P
  P16      1.0000 0.69683  0.45456  0.27727  Biso   1.000  P
  P17      1.0000 0.58767  0.05686  0.54135  Biso   1.000  P
  P18      1.0000 0.77642  0.27540  0.50654  Biso   1.000  P
  P19      1.0000 0.00418  0.03591  0.39857  Biso   1.000  P
  P20      1.0000 0.97410  0.27727  0.26817  Biso   1.000  P
  P21      1.0000 0.12902  0.54135  0.40179  Biso   1.000  P
  P22      1.0000 0.28296  0.50654  0.21806  Biso   1.000  P
  P23      1.0000 0.40275  0.39857  0.56552  Biso   1.000  P
  P24      1.0000 0.24227  0.26817  0.45456  Biso   1.000  P
  H1       1.0000 0.49330  0.83060  0.80200  Biso   1.000  H
  H2       1.0000 0.34760  0.81100  0.79320  Biso   1.000  H
  H3       1.0000 0.53590  0.71660  0.92440  Biso   1.000  H
  H4       1.0000 0.57730  0.71830  0.84990  Biso   1.000  H
  H5       1.0000 0.22380  0.73970  0.92800  Biso   1.000  H
  H6       1.0000 0.30200  0.69370  0.98100  Biso   1.000  H
  H7       1.0000 0.03840  0.33400  0.94890  Biso   1.000  H
  H8       1.0000 0.95760  0.38140  0.89820  Biso   1.000  H
  H9       1.0000 0.08200  0.49930  0.80550  Biso   1.000  H
  H10      1.0000 0.09230  0.45570  0.76370  Biso   1.000  H
  H11      1.0000 0.26390  0.38150  0.79060  Biso   1.000  H
  H12      1.0000 0.22110  0.32360  0.87400  Biso   1.000  H
  H13      1.0000 0.29530  0.80200  0.36740  Biso   1.000  H
  H14      1.0000 0.14080  0.79320  0.39580  Biso   1.000  H
  H15      1.0000 0.46030  0.92440  0.35900  Biso   1.000  H
  H16      1.0000 0.42720  0.84990  0.43180  Biso   1.000  H
  H17      1.0000 0.15180  0.92800  0.33230  Biso   1.000  H
  H18      1.0000 0.28300  0.98100  0.32530  Biso   1.000  H
  H19      1.0000 0.98730  0.94890  0.71710  Biso   1.000  H
  H20      1.0000 0.85580  0.89820  0.72040  Biso   1.000  H
  H21      1.0000 0.88750  0.80550  0.69520  Biso   1.000  H
  H22      1.0000 0.85600  0.76370  0.78060  Biso   1.000  H
  H23      1.0000 0.05450  0.79060  0.82790  Biso   1.000  H
  H24      1.0000 0.09510  0.87400  0.80240  Biso   1.000  H
  H25      1.0000 0.66270  0.36740  0.83060  Biso   1.000  H
  H26      1.0000 0.53660  0.39580  0.81100  Biso   1.000  H
  H27      1.0000 0.81930  0.35900  0.71660  Biso   1.000  H
  H28      1.0000 0.85900  0.43180  0.71830  Biso   1.000  H
  H29      1.0000 0.48410  0.33230  0.73970  Biso   1.000  H
  H30      1.0000 0.60830  0.32530  0.69370  Biso   1.000  H
  H31      1.0000 0.70440  0.71710  0.33400  Biso   1.000  H
  H32      1.0000 0.57620  0.72040  0.38140  Biso   1.000  H
  H33      1.0000 0.58270  0.69520  0.49930  Biso   1.000  H
  H34      1.0000 0.63660  0.78060  0.45570  Biso   1.000  H
  H35      1.0000 0.88240  0.82790  0.38150  Biso   1.000  H
  H36      1.0000 0.89750  0.80240  0.32360  Biso   1.000  H
  H37      1.0000 0.50670  0.16940  0.19800  Biso   1.000  H
  H38      1.0000 0.65240  0.18900  0.20680  Biso   1.000  H
  H39      1.0000 0.46410  0.28340  0.07560  Biso   1.000  H
  H40      1.0000 0.42270  0.28170  0.15010  Biso   1.000  H
  H41      1.0000 0.77620  0.26030  0.07200  Biso   1.000  H
  H42      1.0000 0.69800  0.30630  0.01900  Biso   1.000  H
  H43      1.0000 0.96160  0.66600  0.05110  Biso   1.000  H
  H44      1.0000 0.04240  0.61860  0.10180  Biso   1.000  H
  H45      1.0000 0.91800  0.50070  0.19450  Biso   1.000  H
  H46      1.0000 0.90770  0.54430  0.23630  Biso   1.000  H
  H47      1.0000 0.73610  0.61850  0.20940  Biso   1.000  H
  H48      1.0000 0.77890  0.67640  0.12600  Biso   1.000  H
  H49      1.0000 0.70470  0.19800  0.63260  Biso   1.000  H
  H50      1.0000 0.85920  0.20680  0.60420  Biso   1.000  H
  H51      1.0000 0.53970  0.07560  0.64100  Biso   1.000  H
  H52      1.0000 0.57280  0.15010  0.56820  Biso   1.000  H
  H53      1.0000 0.84820  0.07200  0.66770  Biso   1.000  H
  H54      1.0000 0.71700  0.01900  0.67470  Biso   1.000  H
  H55      1.0000 0.01270  0.05110  0.28290  Biso   1.000  H
  H56      1.0000 0.14420  0.10180  0.27960  Biso   1.000  H
  H57      1.0000 0.11250  0.19450  0.30480  Biso   1.000  H
  H58      1.0000 0.14400  0.23630  0.21940  Biso   1.000  H
  H59      1.0000 0.94550  0.20940  0.17210  Biso   1.000  H
  H60      1.0000 0.90490  0.12600  0.19760  Biso   1.000  H
  H61      1.0000 0.33730  0.63260  0.16940  Biso   1.000  H
  H62      1.0000 0.46340  0.60420  0.18900  Biso   1.000  H
  H63      1.0000 0.18070  0.64100  0.28340  Biso   1.000  H
  H64      1.0000 0.14100  0.56820  0.28170  Biso   1.000  H
  H65      1.0000 0.51590  0.66770  0.26030  Biso   1.000  H
  H66      1.0000 0.39170  0.67470  0.30630  Biso   1.000  H
  H67      1.0000 0.29560  0.28290  0.66600  Biso   1.000  H
  H68      1.0000 0.42380  0.27960  0.61860  Biso   1.000  H
  H69      1.0000 0.41730  0.30480  0.50070  Biso   1.000  H
  H70      1.0000 0.36340  0.21940  0.54430  Biso   1.000  H
  H71      1.0000 0.11760  0.17210  0.61850  Biso   1.000  H
  H72      1.0000 0.10250  0.19760  0.67640  Biso   1.000  H
  Pb1      1.0000 0.38581  0.45859  0.90048  Biso   1.000  Pb
  Pb2      1.0000 0.78901  0.54496  0.91089  Biso   1.000  Pb
  Pb3      1.0000 0.34843  0.73679  0.61531  Biso   1.000  Pb
  Pb4      1.0000 0.20111  0.61860  0.86402  Biso   1.000  Pb
  Pb5      1.0000 0.28629  0.90048  0.64093  Biso   1.000  Pb
  Pb6      1.0000 0.69990  0.91089  0.54415  Biso   1.000  Pb
  Pb7      1.0000 0.96374  0.61531  0.64790  Biso   1.000  Pb
  Pb8      1.0000 0.06513  0.86402  0.51738  Biso   1.000  Pb
  Pb9      1.0000 0.92722  0.64093  0.45859  Biso   1.000  Pb
  Pb10     1.0000 0.24405  0.54415  0.54496  Biso   1.000  Pb
  Pb11     1.0000 0.61164  0.64790  0.73679  Biso   1.000  Pb
  Pb12     1.0000 0.58251  0.51738  0.61860  Biso   1.000  Pb
  Pb13     1.0000 0.61419  0.54141  0.09952  Biso   1.000  Pb
  Pb14     1.0000 0.21099  0.45504  0.08911  Biso   1.000  Pb
  Pb15     1.0000 0.65157  0.26321  0.38469  Biso   1.000  Pb
  Pb16     1.0000 0.79889  0.38140  0.13598  Biso   1.000  Pb
  Pb17     1.0000 0.71371  0.09952  0.35907  Biso   1.000  Pb
  Pb18     1.0000 0.30010  0.08911  0.45585  Biso   1.000  Pb
  Pb19     1.0000 0.03626  0.38469  0.35210  Biso   1.000  Pb
  Pb20     1.0000 0.93487  0.13598  0.48262  Biso   1.000  Pb
  Pb21     1.0000 0.07278  0.35907  0.54141  Biso   1.000  Pb
  Pb22     1.0000 0.75595  0.45585  0.45504  Biso   1.000  Pb
  Pb23     1.0000 0.38836  0.35210  0.26321  Biso   1.000  Pb
  Pb24     1.0000 0.41749  0.48262  0.38140  Biso   1.000  Pb
  C1       1.0000 0.42700  0.79330  0.80130  Biso   1.000  C
  C2       1.0000 0.50450  0.69850  0.89400  Biso   1.000  C
  C3       1.0000 0.31390  0.73710  0.93440  Biso   1.000  C
  C4       1.0000 0.37470  0.80220  0.94010  Biso   1.000  C
  C5       1.0000 0.30160  0.85320  0.91340  Biso   1.000  C
  C6       1.0000 0.47650  0.81000  0.95450  Biso   1.000  C
  C7       1.0000 0.03860  0.38380  0.91500  Biso   1.000  C
  C8       1.0000 0.13990  0.47500  0.78930  Biso   1.000  C
  C9       1.0000 0.18960  0.35740  0.83460  Biso   1.000  C
  C10      1.0000 0.07560  0.31330  0.82350  Biso   1.000  C
  C11      1.0000 0.11360  0.33620  0.74440  Biso   1.000  C
  C12      1.0000 0.11490  0.24080  0.85210  Biso   1.000  C
  C13      1.0000 0.22830  0.80130  0.40540  Biso   1.000  C
  C14      1.0000 0.39850  0.89400  0.40750  Biso   1.000  C
  C15      1.0000 0.24830  0.93440  0.32850  Biso   1.000  C
  C16      1.0000 0.31480  0.94010  0.25770  Biso   1.000  C
  C17      1.0000 0.21500  0.91340  0.23340  Biso   1.000  C
  C18      1.0000 0.43100  0.95450  0.23550  Biso   1.000  C
  C19      1.0000 0.95360  0.91500  0.70120  Biso   1.000  C
  C20      1.0000 0.92920  0.78930  0.73570  Biso   1.000  C
  C21      1.0000 0.02420  0.83460  0.80800  Biso   1.000  C
  C22      1.0000 0.89910  0.82350  0.86320  Biso   1.000  C
  C23      1.0000 0.85800  0.74440  0.91940  Biso   1.000  C
  C24      1.0000 0.96700  0.85210  0.90710  Biso   1.000  C
  C25      1.0000 0.63370  0.40540  0.79330  Biso   1.000  C
  C26      1.0000 0.80600  0.40750  0.69850  Biso   1.000  C
  C27      1.0000 0.57680  0.32850  0.73710  Biso   1.000  C
  C28      1.0000 0.57250  0.25770  0.80220  Biso   1.000  C
  C29      1.0000 0.44840  0.23340  0.85320  Biso   1.000  C
  C30      1.0000 0.66650  0.23550  0.81000  Biso   1.000  C
  C31      1.0000 0.65480  0.70120  0.38380  Biso   1.000  C
  C32      1.0000 0.66490  0.73570  0.47500  Biso   1.000  C
  C33      1.0000 0.83220  0.80800  0.35740  Biso   1.000  C
  C34      1.0000 0.76230  0.86320  0.31330  Biso   1.000  C
  C35      1.0000 0.77740  0.91940  0.33620  Biso   1.000  C
  C36      1.0000 0.87410  0.90710  0.24080  Biso   1.000  C
  C37      1.0000 0.57300  0.20670  0.19870  Biso   1.000  C
  C38      1.0000 0.49550  0.30150  0.10600  Biso   1.000  C
  C39      1.0000 0.68610  0.26290  0.06560  Biso   1.000  C
  C40      1.0000 0.62530  0.19780  0.05990  Biso   1.000  C
  C41      1.0000 0.69840  0.14680  0.08660  Biso   1.000  C
  C42      1.0000 0.52350  0.19000  0.04550  Biso   1.000  C
  C43      1.0000 0.96140  0.61620  0.08500  Biso   1.000  C
  C44      1.0000 0.86010  0.52500  0.21070  Biso   1.000  C
  C45      1.0000 0.81040  0.64260  0.16540  Biso   1.000  C
  C46      1.0000 0.92440  0.68670  0.17650  Biso   1.000  C
  C47      1.0000 0.88640  0.66380  0.25560  Biso   1.000  C
  C48      1.0000 0.88510  0.75920  0.14790  Biso   1.000  C
  C49      1.0000 0.77170  0.19870  0.59460  Biso   1.000  C
  C50      1.0000 0.60150  0.10600  0.59250  Biso   1.000  C
  C51      1.0000 0.75170  0.06560  0.67150  Biso   1.000  C
  C52      1.0000 0.68520  0.05990  0.74230  Biso   1.000  C
  C53      1.0000 0.78500  0.08660  0.76660  Biso   1.000  C
  C54      1.0000 0.56900  0.04550  0.76450  Biso   1.000  C
  C55      1.0000 0.04640  0.08500  0.29880  Biso   1.000  C
  C56      1.0000 0.07080  0.21070  0.26430  Biso   1.000  C
  C57      1.0000 0.97580  0.16540  0.19200  Biso   1.000  C
  C58      1.0000 0.10090  0.17650  0.13680  Biso   1.000  C
  C59      1.0000 0.14200  0.25560  0.08060  Biso   1.000  C
  C60      1.0000 0.03300  0.14790  0.09290  Biso   1.000  C
  C61      1.0000 0.36630  0.59460  0.20670  Biso   1.000  C
  C62      1.0000 0.19400  0.59250  0.30150  Biso   1.000  C
  C63      1.0000 0.42320  0.67150  0.26290  Biso   1.000  C
  C64      1.0000 0.42750  0.74230  0.19780  Biso   1.000  C
  C65      1.0000 0.55160  0.76660  0.14680  Biso   1.000  C
  C66      1.0000 0.33350  0.76450  0.19000  Biso   1.000  C
  C67      1.0000 0.34520  0.29880  0.61620  Biso   1.000  C
  C68      1.0000 0.33510  0.26430  0.52500  Biso   1.000  C
  C69      1.0000 0.16780  0.19200  0.64260  Biso   1.000  C
  C70      1.0000 0.23770  0.13680  0.68670  Biso   1.000  C
  C71      1.0000 0.22260  0.08060  0.66380  Biso   1.000  C
  C72      1.0000 0.12590  0.09290  0.75920  Biso   1.000  C
  N1       1.0000 0.38870  0.72540  0.87410  Biso   1.000  N
  N2       1.0000 0.15630  0.41470  0.85290  Biso   1.000  N
  N3       1.0000 0.26280  0.87410  0.40050  Biso   1.000  N
  N4       1.0000 0.00920  0.85290  0.73240  Biso   1.000  N
  N5       1.0000 0.66330  0.40050  0.72540  Biso   1.000  N
  N6       1.0000 0.74160  0.73240  0.41470  Biso   1.000  N
  N7       1.0000 0.61130  0.27460  0.12590  Biso   1.000  N
  N8       1.0000 0.84370  0.58530  0.14710  Biso   1.000  N
  N9       1.0000 0.73720  0.12590  0.59950  Biso   1.000  N
  N10      1.0000 0.99080  0.14710  0.26760  Biso   1.000  N
  N11      1.0000 0.33670  0.59950  0.27460  Biso   1.000  N
  N12      1.0000 0.25840  0.26760  0.58530  Biso   1.000  N
  O1       1.0000 0.45430  0.57520  0.88560  Biso   1.000  O
  O2       1.0000 0.58960  0.58060  0.97410  Biso   1.000  O
  O3       1.0000 0.33440  0.56960  0.00120  Biso   1.000  O
  O4       1.0000 0.41670  0.70880  0.73690  Biso   1.000  O
  O5       1.0000 0.48530  0.84490  0.65700  Biso   1.000  O
  O6       1.0000 0.64480  0.78210  0.72080  Biso   1.000  O
  O7       1.0000 0.98800  0.50320  0.91890  Biso   1.000  O
  O8       1.0000 0.17740  0.45900  0.96860  Biso   1.000  O
  O9       1.0000 0.93200  0.38180  0.03810  Biso   1.000  O
  O10      1.0000 0.25120  0.61300  0.67800  Biso   1.000  O
  O11      1.0000 0.36550  0.51460  0.67800  Biso   1.000  O
  O12      1.0000 0.38990  0.55590  0.77120  Biso   1.000  O
  O13      1.0000 0.33990  0.88560  0.53920  Biso   1.000  O
  O14      1.0000 0.56370  0.97410  0.44530  Biso   1.000  O
  O15      1.0000 0.33560  0.00120  0.42920  Biso   1.000  O
  O16      1.0000 0.15360  0.73690  0.55430  Biso   1.000  O
  O17      1.0000 0.14230  0.65700  0.49810  Biso   1.000  O
  O18      1.0000 0.36560  0.72080  0.49710  Biso   1.000  O
  O19      1.0000 0.90690  0.91890  0.57790  Biso   1.000  O
  O20      1.0000 0.14600  0.96860  0.57240  Biso   1.000  O
  O21      1.0000 0.97010  0.03810  0.58010  Biso   1.000  O
  O22      1.0000 0.92920  0.67800  0.70900  Biso   1.000  O
  O23      1.0000 0.04350  0.67800  0.80740  Biso   1.000  O
  O24      1.0000 0.16110  0.77120  0.67290  Biso   1.000  O
  O25      1.0000 0.87910  0.53920  0.57520  Biso   1.000  O
  O26      1.0000 0.00900  0.44530  0.58060  Biso   1.000  O
  O27      1.0000 0.76480  0.42920  0.56960  Biso   1.000  O
  O28      1.0000 0.70790  0.55430  0.70880  Biso   1.000  O
  O29      1.0000 0.64040  0.49810  0.84490  Biso   1.000  O
  O30      1.0000 0.86270  0.49710  0.78210  Biso   1.000  O
  O31      1.0000 0.48480  0.57790  0.50320  Biso   1.000  O
  O32      1.0000 0.71840  0.57240  0.45900  Biso   1.000  O
  O33      1.0000 0.55020  0.58010  0.38180  Biso   1.000  O
  O34      1.0000 0.63820  0.70900  0.61300  Biso   1.000  O
  O35      1.0000 0.85090  0.80740  0.51460  Biso   1.000  O
  O36      1.0000 0.83400  0.67290  0.55590  Biso   1.000  O
  O37      1.0000 0.54570  0.42480  0.11440  Biso   1.000  O
  O38      1.0000 0.41040  0.41940  0.02590  Biso   1.000  O
  O39      1.0000 0.66560  0.43040  0.99880  Biso   1.000  O
  O40      1.0000 0.58330  0.29120  0.26310  Biso   1.000  O
  O41      1.0000 0.51470  0.15510  0.34300  Biso   1.000  O
  O42      1.0000 0.35520  0.21790  0.27920  Biso   1.000  O
  O43      1.0000 0.01200  0.49680  0.08110  Biso   1.000  O
  O44      1.0000 0.82260  0.54100  0.03140  Biso   1.000  O
  O45      1.0000 0.06800  0.61820  0.96190  Biso   1.000  O
  O46      1.0000 0.74880  0.38700  0.32200  Biso   1.000  O
  O47      1.0000 0.63450  0.48540  0.32200  Biso   1.000  O
  O48      1.0000 0.61010  0.44410  0.22880  Biso   1.000  O
  O49      1.0000 0.66010  0.11440  0.46080  Biso   1.000  O
  O50      1.0000 0.43630  0.02590  0.55470  Biso   1.000  O
  O51      1.0000 0.66440  0.99880  0.57080  Biso   1.000  O
  O52      1.0000 0.84640  0.26310  0.44570  Biso   1.000  O
  O53      1.0000 0.85770  0.34300  0.50190  Biso   1.000  O
  O54      1.0000 0.63440  0.27920  0.50290  Biso   1.000  O
  O55      1.0000 0.09310  0.08110  0.42210  Biso   1.000  O
  O56      1.0000 0.85400  0.03140  0.42760  Biso   1.000  O
  O57      1.0000 0.02990  0.96190  0.41990  Biso   1.000  O
  O58      1.0000 0.07080  0.32200  0.29100  Biso   1.000  O
  O59      1.0000 0.95650  0.32200  0.19260  Biso   1.000  O
  O60      1.0000 0.83890  0.22880  0.32710  Biso   1.000  O
  O61      1.0000 0.12090  0.46080  0.42480  Biso   1.000  O
  O62      1.0000 0.99100  0.55470  0.41940  Biso   1.000  O
  O63      1.0000 0.23520  0.57080  0.43040  Biso   1.000  O
  O64      1.0000 0.29210  0.44570  0.29120  Biso   1.000  O
  O65      1.0000 0.35960  0.50190  0.15510  Biso   1.000  O
  O66      1.0000 0.13730  0.50290  0.21790  Biso   1.000  O
  O67      1.0000 0.51520  0.42210  0.49680  Biso   1.000  O
  O68      1.0000 0.28160  0.42760  0.54100  Biso   1.000  O
  O69      1.0000 0.44980  0.41990  0.61820  Biso   1.000  O
  O70      1.0000 0.36180  0.29100  0.38700  Biso   1.000  O
  O71      1.0000 0.14910  0.19260  0.48540  Biso   1.000  O
  O72      1.0000 0.16600  0.32710  0.44410  Biso   1.000  O
