data_image0
_cell_length_a       8.494
_cell_length_b       12.987
_cell_length_c       15.187
_cell_angle_alpha    91.213
_cell_angle_beta     94.185
_cell_angle_gamma    108.525

_symmetry_space_group_name_H-M    "P 1"
_symmetry_int_tables_number       1

loop_
  _symmetry_equiv_pos_as_xyz
  'x, y, z'

loop_
  _atom_site_label
  _atom_site_occupancy
  _atom_site_fract_x
  _atom_site_fract_y
  _atom_site_fract_z
  _atom_site_thermal_displace_type
  _atom_site_B_iso_or_equiv
  _atom_site_type_symbol
  C1       1.0000 0.93800  0.72370  0.64180  Biso   1.000  C
  H1       1.0000 0.97100  0.68610  0.59780  Biso   1.000  H
  C2       1.0000 0.79500  0.76780  0.73900  Biso   1.000  C
  H2       1.0000 0.70910  0.76540  0.77450  Biso   1.000  H
  C3       1.0000 0.94100  0.85180  0.74100  Biso   1.000  C
  H3       1.0000 0.97270  0.91530  0.77670  Biso   1.000  H
  C4       1.0000 0.19400  0.88560  0.65970  Biso   1.000  C
  C5       1.0000 0.23500  0.99500  0.66700  Biso   1.000  C
  H4       1.0000 0.15340  0.02680  0.67780  Biso   1.000  H
  C6       1.0000 0.40100  0.06200  0.65900  Biso   1.000  C
  H5       1.0000 0.43420  0.13600  0.67290  Biso   1.000  H
  C7       1.0000 0.51100  0.01530  0.62970  Biso   1.000  C
  C8       1.0000 0.46700  0.90420  0.61660  Biso   1.000  C
  H6       1.0000 0.54260  0.87140  0.59880  Biso   1.000  H
  C9       1.0000 0.30000  0.84060  0.63110  Biso   1.000  C
  H7       1.0000 0.26540  0.76570  0.62000  Biso   1.000  H
  C10      1.0000 0.73100  0.18840  0.61140  Biso   1.000  C
  H8       1.0000 0.66230  0.23110  0.61580  Biso   1.000  H
  C11      1.0000 0.94000  0.14300  0.58600  Biso   1.000  C
  H9       1.0000 0.04150  0.14380  0.56680  Biso   1.000  H
  C12      1.0000 0.80800  0.05200  0.60300  Biso   1.000  C
  H10      1.0000 0.81070  0.98180  0.60720  Biso   1.000  H
  C13      1.0000 0.45200  0.50910  0.82010  Biso   1.000  C
  H11      1.0000 0.49200  0.58110  0.84150  Biso   1.000  H
  C14      1.0000 0.40400  0.36600  0.73910  Biso   1.000  C
  H12      1.0000 0.40520  0.31860  0.69260  Biso   1.000  H
  C15      1.0000 0.31700  0.33600  0.81150  Biso   1.000  C
  H13      1.0000 0.24800  0.26710  0.82280  Biso   1.000  H
  C16      1.0000 0.28000  0.43730  0.94360  Biso   1.000  C
  C17      1.0000 0.19100  0.34620  0.98300  Biso   1.000  C
  H14      1.0000 0.17870  0.27780  0.95830  Biso   1.000  H
  C18      1.0000 0.11800  0.35610  0.05910  Biso   1.000  C
  H15      1.0000 0.05690  0.29380  0.08560  Biso   1.000  H
  C19      1.0000 0.13500  0.45460  0.09630  Biso   1.000  C
  C20      1.0000 0.23100  0.54990  0.05900  Biso   1.000  C
  H16      1.0000 0.24350  0.61830  0.08420  Biso   1.000  H
  C21      1.0000 0.30600  0.53770  0.98300  Biso   1.000  C
  H17      1.0000 0.37440  0.59900  0.95830  Biso   1.000  H
  C22      1.0000 0.10600  0.54300  0.24040  Biso   1.000  C
  H18      1.0000 0.20690  0.59960  0.24400  Biso   1.000  H
  C23      1.0000 0.86600  0.43460  0.27270  Biso   1.000  C
  H19      1.0000 0.77070  0.40490  0.30200  Biso   1.000  H
  C24      1.0000 0.90000  0.39190  0.19400  Biso   1.000  C
  H20      1.0000 0.83610  0.32880  0.16200  Biso   1.000  H
  N1       1.0000 0.79040  0.68760  0.67840  Biso   1.000  N
  N2       1.0000 0.03000  0.82200  0.67840  Biso   1.000  N
  N3       1.0000 0.67790  0.08400  0.61360  Biso   1.000  N
  N4       1.0000 0.89230  0.22970  0.60250  Biso   1.000  N
  N5       1.0000 0.48800  0.47500  0.74380  Biso   1.000  N
  N6       1.0000 0.35290  0.42780  0.86350  Biso   1.000  N
  N7       1.0000 0.05380  0.46640  0.17400  Biso   1.000  N
  N8       1.0000 0.99350  0.52650  0.30050  Biso   1.000  N
  O1       1.0000 0.85170  0.39940  0.48240  Biso   1.000  O
  O2       1.0000 0.66140  0.45320  0.57700  Biso   1.000  O
  O3       1.0000 0.56650  0.38710  0.41890  Biso   1.000  O
  O4       1.0000 0.78170  0.57040  0.45280  Biso   1.000  O
  Zn1      1.0000 0.59610  0.55776  0.64106  Biso   1.000  Zn
  Zn2      1.0000 0.99410  0.39041  0.58485  Biso   1.000  Zn
  P1       1.0000 0.71410  0.45260  0.48380  Biso   1.000  P
  C25      1.0000 0.06200  0.27630  0.35820  Biso   1.000  C
  H21      1.0000 0.02900  0.31390  0.40220  Biso   1.000  H
  C26      1.0000 0.20500  0.23220  0.26100  Biso   1.000  C
  H22      1.0000 0.29090  0.23460  0.22550  Biso   1.000  H
  C27      1.0000 0.05900  0.14820  0.25900  Biso   1.000  C
  H23      1.0000 0.02730  0.08470  0.22330  Biso   1.000  H
  C28      1.0000 0.80600  0.11440  0.34030  Biso   1.000  C
  C29      1.0000 0.76500  0.00500  0.33300  Biso   1.000  C
  H24      1.0000 0.84660  0.97320  0.32220  Biso   1.000  H
  C30      1.0000 0.59900  0.93800  0.34100  Biso   1.000  C
  H25      1.0000 0.56580  0.86400  0.32710  Biso   1.000  H
  C31      1.0000 0.48900  0.98470  0.37030  Biso   1.000  C
  C32      1.0000 0.53300  0.09580  0.38340  Biso   1.000  C
  H26      1.0000 0.45740  0.12860  0.40120  Biso   1.000  H
  C33      1.0000 0.70000  0.15940  0.36890  Biso   1.000  C
  H27      1.0000 0.73460  0.23430  0.38000  Biso   1.000  H
  C34      1.0000 0.26900  0.81160  0.38860  Biso   1.000  C
  H28      1.0000 0.33770  0.76890  0.38420  Biso   1.000  H
  C35      1.0000 0.06000  0.85700  0.41400  Biso   1.000  C
  H29      1.0000 0.95850  0.85620  0.43320  Biso   1.000  H
  C36      1.0000 0.19200  0.94800  0.39700  Biso   1.000  C
  H30      1.0000 0.18930  0.01820  0.39280  Biso   1.000  H
  C37      1.0000 0.54800  0.49090  0.17990  Biso   1.000  C
  H31      1.0000 0.50800  0.41890  0.15850  Biso   1.000  H
  C38      1.0000 0.59600  0.63400  0.26090  Biso   1.000  C
  H32      1.0000 0.59480  0.68140  0.30740  Biso   1.000  H
  C39      1.0000 0.68300  0.66400  0.18850  Biso   1.000  C
  H33      1.0000 0.75200  0.73290  0.17720  Biso   1.000  H
  C40      1.0000 0.72000  0.56270  0.05640  Biso   1.000  C
  C41      1.0000 0.80900  0.65380  0.01700  Biso   1.000  C
  H34      1.0000 0.82130  0.72220  0.04170  Biso   1.000  H
  C42      1.0000 0.88200  0.64390  0.94090  Biso   1.000  C
  H35      1.0000 0.94310  0.70620  0.91440  Biso   1.000  H
  C43      1.0000 0.86500  0.54540  0.90370  Biso   1.000  C
  C44      1.0000 0.76900  0.45010  0.94100  Biso   1.000  C
  H36      1.0000 0.75650  0.38170  0.91580  Biso   1.000  H
  C45      1.0000 0.69400  0.46230  0.01700  Biso   1.000  C
  H37      1.0000 0.62560  0.40100  0.04170  Biso   1.000  H
  C46      1.0000 0.89400  0.45700  0.75960  Biso   1.000  C
  H38      1.0000 0.79310  0.40040  0.75600  Biso   1.000  H
  C47      1.0000 0.13400  0.56540  0.72730  Biso   1.000  C
  H39      1.0000 0.22930  0.59510  0.69800  Biso   1.000  H
  C48      1.0000 0.10000  0.60810  0.80600  Biso   1.000  C
  H40      1.0000 0.16390  0.67120  0.83800  Biso   1.000  H
  N9       1.0000 0.20960  0.31240  0.32160  Biso   1.000  N
  N10      1.0000 0.97000  0.17800  0.32160  Biso   1.000  N
  N11      1.0000 0.32210  0.91600  0.38640  Biso   1.000  N
  N12      1.0000 0.10770  0.77030  0.39750  Biso   1.000  N
  N13      1.0000 0.51200  0.52500  0.25620  Biso   1.000  N
  N14      1.0000 0.64710  0.57220  0.13650  Biso   1.000  N
  N15      1.0000 0.94620  0.53360  0.82600  Biso   1.000  N
  N16      1.0000 0.00650  0.47350  0.69950  Biso   1.000  N
  O5       1.0000 0.14830  0.60060  0.51760  Biso   1.000  O
  O6       1.0000 0.33860  0.54680  0.42300  Biso   1.000  O
  O7       1.0000 0.43350  0.61290  0.58110  Biso   1.000  O
  O8       1.0000 0.21830  0.42960  0.54720  Biso   1.000  O
  Zn3      1.0000 0.40390  0.44224  0.35894  Biso   1.000  Zn
  Zn4      1.0000 0.00590  0.60959  0.41515  Biso   1.000  Zn
  P2       1.0000 0.28590  0.54740  0.51620  Biso   1.000  P
