data_image0
_cell_length_a       8.566
_cell_length_b       8.566
_cell_length_c       37.811
_cell_angle_alpha    90
_cell_angle_beta     90
_cell_angle_gamma    120

_symmetry_space_group_name_H-M    P 1
_symmetry_int_tables_number       1

loop_
  _symmetry_equiv_pos_as_xyz
  'x, y, z'

loop_
  _atom_site_label
  _atom_site_occupancy
  _atom_site_fract_x
  _atom_site_fract_y
  _atom_site_fract_z
  _atom_site_thermal_displace_type
  _atom_site_B_iso_or_equiv
  _atom_site_type_symbol
  Cd1      1.0000 0.00000  0.00000  0.66667  Biso   1.000  Cd
  Cd2      1.0000 0.00000  0.00000  0.33333  Biso   1.000  Cd
  Cd3      1.0000 0.00000  0.00000  0.00000  Biso   1.000  Cd
  In1      1.0000 0.50000  0.50000  0.77804  Biso   1.000  In
  In2      1.0000 0.00000  0.50000  0.44471  Biso   1.000  In
  In3      1.0000 0.50000  0.00000  0.11137  Biso   1.000  In
  In4      1.0000 0.00000  0.50000  0.88863  Biso   1.000  In
  In5      1.0000 0.50000  0.50000  0.22196  Biso   1.000  In
  In6      1.0000 0.50000  0.00000  0.55529  Biso   1.000  In
  C1       1.0000 0.27820  0.17750  0.72542  Biso   1.000  C
  C2       1.0000 0.22610  0.32130  0.71710  Biso   1.000  C
  C3       1.0000 0.89930  0.72180  0.39209  Biso   1.000  C
  C4       1.0000 0.09520  0.77390  0.38377  Biso   1.000  C
  C5       1.0000 0.82250  0.10070  0.05875  Biso   1.000  C
  C6       1.0000 0.67870  0.90480  0.05043  Biso   1.000  C
  C7       1.0000 0.72180  0.82250  0.72542  Biso   1.000  C
  C8       1.0000 0.77390  0.67870  0.71710  Biso   1.000  C
  C9       1.0000 0.10070  0.27820  0.39209  Biso   1.000  C
  C10      1.0000 0.90480  0.22610  0.38377  Biso   1.000  C
  C11      1.0000 0.17750  0.89930  0.05875  Biso   1.000  C
  C12      1.0000 0.32130  0.09520  0.05043  Biso   1.000  C
  C13      1.0000 0.10070  0.82250  0.94125  Biso   1.000  C
  C14      1.0000 0.90480  0.67870  0.94957  Biso   1.000  C
  C15      1.0000 0.17750  0.27820  0.27458  Biso   1.000  C
  C16      1.0000 0.32130  0.22610  0.28290  Biso   1.000  C
  C17      1.0000 0.72180  0.89930  0.60791  Biso   1.000  C
  C18      1.0000 0.77390  0.09520  0.61623  Biso   1.000  C
  C19      1.0000 0.89930  0.17750  0.94125  Biso   1.000  C
  C20      1.0000 0.09520  0.32130  0.94957  Biso   1.000  C
  C21      1.0000 0.82250  0.72180  0.27458  Biso   1.000  C
  C22      1.0000 0.67870  0.77390  0.28290  Biso   1.000  C
  C23      1.0000 0.27820  0.10070  0.60791  Biso   1.000  C
  C24      1.0000 0.22610  0.90480  0.61623  Biso   1.000  C
  C25      1.0000 0.70480  0.40960  0.83333  Biso   1.000  C
  C26      1.0000 0.80720  0.61440  0.83333  Biso   1.000  C
  C27      1.0000 0.70480  0.29520  0.50000  Biso   1.000  C
  C28      1.0000 0.80720  0.19280  0.50000  Biso   1.000  C
  C29      1.0000 0.59040  0.29520  0.16667  Biso   1.000  C
  C30      1.0000 0.38560  0.19280  0.16667  Biso   1.000  C
  C31      1.0000 0.29520  0.59040  0.83333  Biso   1.000  C
  C32      1.0000 0.19280  0.38560  0.83333  Biso   1.000  C
  C33      1.0000 0.29520  0.70480  0.50000  Biso   1.000  C
  C34      1.0000 0.19280  0.80720  0.50000  Biso   1.000  C
  C35      1.0000 0.40960  0.70480  0.16667  Biso   1.000  C
  C36      1.0000 0.61440  0.80720  0.16667  Biso   1.000  C
  O1       1.0000 0.57850  0.33040  0.81194  Biso   1.000  O
  O2       1.0000 0.29510  0.46060  0.73615  Biso   1.000  O
  O3       1.0000 0.12050  0.28970  0.69213  Biso   1.000  O
  O4       1.0000 0.39160  0.21410  0.74959  Biso   1.000  O
  O5       1.0000 0.75620  0.69010  0.81155  Biso   1.000  O
  O6       1.0000 0.20520  0.03550  0.70731  Biso   1.000  O
  O7       1.0000 0.75190  0.42150  0.47861  Biso   1.000  O
  O8       1.0000 0.16550  0.70490  0.40282  Biso   1.000  O
  O9       1.0000 0.16920  0.87950  0.35880  Biso   1.000  O
  O10      1.0000 0.82250  0.60840  0.41626  Biso   1.000  O
  O11      1.0000 0.93390  0.24380  0.47822  Biso   1.000  O
  O12      1.0000 0.83030  0.79480  0.37398  Biso   1.000  O
  O13      1.0000 0.66960  0.24810  0.14527  Biso   1.000  O
  O14      1.0000 0.53940  0.83450  0.06948  Biso   1.000  O
  O15      1.0000 0.71030  0.83080  0.02546  Biso   1.000  O
  O16      1.0000 0.78590  0.17750  0.08292  Biso   1.000  O
  O17      1.0000 0.30990  0.06610  0.14488  Biso   1.000  O
  O18      1.0000 0.96450  0.16970  0.04064  Biso   1.000  O
  O19      1.0000 0.42150  0.66960  0.81194  Biso   1.000  O
  O20      1.0000 0.70490  0.53940  0.73615  Biso   1.000  O
  O21      1.0000 0.87950  0.71030  0.69213  Biso   1.000  O
  O22      1.0000 0.60840  0.78590  0.74959  Biso   1.000  O
  O23      1.0000 0.24380  0.30990  0.81155  Biso   1.000  O
  O24      1.0000 0.79480  0.96450  0.70731  Biso   1.000  O
  O25      1.0000 0.24810  0.57850  0.47861  Biso   1.000  O
  O26      1.0000 0.83450  0.29510  0.40282  Biso   1.000  O
  O27      1.0000 0.83080  0.12050  0.35880  Biso   1.000  O
  O28      1.0000 0.17750  0.39160  0.41626  Biso   1.000  O
  O29      1.0000 0.06610  0.75620  0.47822  Biso   1.000  O
  O30      1.0000 0.16970  0.20520  0.37398  Biso   1.000  O
  O31      1.0000 0.33040  0.75190  0.14527  Biso   1.000  O
  O32      1.0000 0.46060  0.16550  0.06948  Biso   1.000  O
  O33      1.0000 0.28970  0.16920  0.02546  Biso   1.000  O
  O34      1.0000 0.21410  0.82250  0.08292  Biso   1.000  O
  O35      1.0000 0.69010  0.93390  0.14488  Biso   1.000  O
  O36      1.0000 0.03550  0.83030  0.04064  Biso   1.000  O
  O37      1.0000 0.24810  0.66960  0.85473  Biso   1.000  O
  O38      1.0000 0.83450  0.53940  0.93052  Biso   1.000  O
  O39      1.0000 0.83080  0.71030  0.97454  Biso   1.000  O
  O40      1.0000 0.17750  0.78590  0.91708  Biso   1.000  O
  O41      1.0000 0.06610  0.30990  0.85512  Biso   1.000  O
  O42      1.0000 0.16970  0.96450  0.95936  Biso   1.000  O
  O43      1.0000 0.33040  0.57850  0.18806  Biso   1.000  O
  O44      1.0000 0.46060  0.29510  0.26385  Biso   1.000  O
  O45      1.0000 0.28970  0.12050  0.30787  Biso   1.000  O
  O46      1.0000 0.21410  0.39160  0.25041  Biso   1.000  O
  O47      1.0000 0.69010  0.75620  0.18845  Biso   1.000  O
  O48      1.0000 0.03550  0.20520  0.29269  Biso   1.000  O
  O49      1.0000 0.42150  0.75190  0.52139  Biso   1.000  O
  O50      1.0000 0.70490  0.16550  0.59718  Biso   1.000  O
  O51      1.0000 0.87950  0.16920  0.64120  Biso   1.000  O
  O52      1.0000 0.60840  0.82250  0.58374  Biso   1.000  O
  O53      1.0000 0.24380  0.93390  0.52178  Biso   1.000  O
  O54      1.0000 0.79480  0.83030  0.62602  Biso   1.000  O
  O55      1.0000 0.75190  0.33040  0.85473  Biso   1.000  O
  O56      1.0000 0.16550  0.46060  0.93052  Biso   1.000  O
  O57      1.0000 0.16920  0.28970  0.97454  Biso   1.000  O
  O58      1.0000 0.82250  0.21410  0.91708  Biso   1.000  O
  O59      1.0000 0.93390  0.69010  0.85512  Biso   1.000  O
  O60      1.0000 0.83030  0.03550  0.95936  Biso   1.000  O
  O61      1.0000 0.66960  0.42150  0.18806  Biso   1.000  O
  O62      1.0000 0.53940  0.70490  0.26385  Biso   1.000  O
  O63      1.0000 0.71030  0.87950  0.30787  Biso   1.000  O
  O64      1.0000 0.78590  0.60840  0.25041  Biso   1.000  O
  O65      1.0000 0.30990  0.24380  0.18845  Biso   1.000  O
  O66      1.0000 0.96450  0.79480  0.29269  Biso   1.000  O
  O67      1.0000 0.57850  0.24810  0.52139  Biso   1.000  O
  O68      1.0000 0.29510  0.83450  0.59718  Biso   1.000  O
  O69      1.0000 0.12050  0.83080  0.64120  Biso   1.000  O
  O70      1.0000 0.39160  0.17750  0.58374  Biso   1.000  O
  O71      1.0000 0.75620  0.06610  0.52178  Biso   1.000  O
  O72      1.0000 0.20520  0.16970  0.62602  Biso   1.000  O
