data_image0
_cell_length_a       8.7097
_cell_length_b       14.0738
_cell_length_c       16.2065
_cell_angle_alpha    114.085
_cell_angle_beta     91.028
_cell_angle_gamma    94.463

_symmetry_space_group_name_H-M    P 1
_symmetry_int_tables_number       1

loop_
  _symmetry_equiv_pos_as_xyz
  'x, y, z'

loop_
  _atom_site_label
  _atom_site_occupancy
  _atom_site_fract_x
  _atom_site_fract_y
  _atom_site_fract_z
  _atom_site_thermal_displace_type
  _atom_site_B_iso_or_equiv
  _atom_site_type_symbol
  Eu1      1.0000 0.18541  0.04422  0.43851  Biso   1.000  Eu
  Eu2      1.0000 0.81459  0.95578  0.56149  Biso   1.000  Eu
  H1       1.0000 0.71940  0.13020  0.31380  Biso   1.000  H
  H2       1.0000 0.52920  0.10930  0.20370  Biso   1.000  H
  H3       1.0000 0.77340  0.90570  0.01360  Biso   1.000  H
  H4       1.0000 0.97310  0.93300  0.12240  Biso   1.000  H
  H5       1.0000 0.94190  0.16910  0.74630  Biso   1.000  H
  H6       1.0000 0.94150  0.28710  0.89610  Biso   1.000  H
  H7       1.0000 0.16660  0.50990  0.83440  Biso   1.000  H
  H8       1.0000 0.16530  0.39180  0.68440  Biso   1.000  H
  H9       1.0000 0.28080  0.55790  0.98540  Biso   1.000  H
  H10      1.0000 0.21590  0.58350  0.08290  Biso   1.000  H
  H11      1.0000 0.26530  0.33000  0.10500  Biso   1.000  H
  H12      1.0000 0.21150  0.44490  0.15670  Biso   1.000  H
  H13      1.0000 0.11750  0.36320  0.06670  Biso   1.000  H
  H14      1.0000 0.70490  0.22240  0.53870  Biso   1.000  H
  H15      1.0000 0.89780  0.35650  0.57130  Biso   1.000  H
  H16      1.0000 0.66420  0.47010  0.41880  Biso   1.000  H
  H17      1.0000 0.46780  0.33730  0.38780  Biso   1.000  H
  H18      1.0000 0.97770  0.67030  0.57900  Biso   1.000  H
  H19      1.0000 0.80020  0.63500  0.54550  Biso   1.000  H
  H20      1.0000 0.03180  0.64890  0.78660  Biso   1.000  H
  H21      1.0000 0.08510  0.58940  0.68570  Biso   1.000  H
  H22      1.0000 0.07890  0.71350  0.72790  Biso   1.000  H
  H23      1.0000 0.45260  0.93970  0.28400  Biso   1.000  H
  H24      1.0000 0.62950  0.85160  0.19190  Biso   1.000  H
  H25      1.0000 0.68950  0.75850  0.21260  Biso   1.000  H
  H26      1.0000 0.56190  0.73340  0.13250  Biso   1.000  H
  H27      1.0000 0.33490  0.70870  0.29730  Biso   1.000  H
  H28      1.0000 0.44360  0.64010  0.22120  Biso   1.000  H
  H29      1.0000 0.51210  0.70540  0.32300  Biso   1.000  H
  H30      1.0000 0.28060  0.86980  0.68620  Biso   1.000  H
  H31      1.0000 0.47080  0.89070  0.79630  Biso   1.000  H
  H32      1.0000 0.22660  0.09430  0.98640  Biso   1.000  H
  H33      1.0000 0.02690  0.06700  0.87760  Biso   1.000  H
  H34      1.0000 0.05810  0.83090  0.25370  Biso   1.000  H
  H35      1.0000 0.05850  0.71290  0.10390  Biso   1.000  H
  H36      1.0000 0.83340  0.49010  0.16560  Biso   1.000  H
  H37      1.0000 0.83470  0.60820  0.31560  Biso   1.000  H
  H38      1.0000 0.71920  0.44210  0.01460  Biso   1.000  H
  H39      1.0000 0.78410  0.41650  0.91710  Biso   1.000  H
  H40      1.0000 0.73470  0.67000  0.89500  Biso   1.000  H
  H41      1.0000 0.78850  0.55510  0.84330  Biso   1.000  H
  H42      1.0000 0.88250  0.63680  0.93330  Biso   1.000  H
  H43      1.0000 0.29510  0.77760  0.46130  Biso   1.000  H
  H44      1.0000 0.10220  0.64350  0.42870  Biso   1.000  H
  H45      1.0000 0.33580  0.52990  0.58120  Biso   1.000  H
  H46      1.0000 0.53220  0.66270  0.61220  Biso   1.000  H
  H47      1.0000 0.02230  0.32970  0.42100  Biso   1.000  H
  H48      1.0000 0.19980  0.36500  0.45450  Biso   1.000  H
  H49      1.0000 0.96820  0.35110  0.21340  Biso   1.000  H
  H50      1.0000 0.91490  0.41060  0.31430  Biso   1.000  H
  H51      1.0000 0.92110  0.28650  0.27210  Biso   1.000  H
  H52      1.0000 0.54740  0.06030  0.71600  Biso   1.000  H
  H53      1.0000 0.37050  0.14840  0.80810  Biso   1.000  H
  H54      1.0000 0.31050  0.24150  0.78740  Biso   1.000  H
  H55      1.0000 0.43810  0.26660  0.86750  Biso   1.000  H
  H56      1.0000 0.66510  0.29130  0.70270  Biso   1.000  H
  H57      1.0000 0.55640  0.35990  0.77880  Biso   1.000  H
  H58      1.0000 0.48790  0.29460  0.67700  Biso   1.000  H
  C1       1.0000 0.98290  0.04340  0.30020  Biso   1.000  C
  C2       1.0000 0.86240  0.03140  0.22900  Biso   1.000  C
  C3       1.0000 0.73110  0.08440  0.25260  Biso   1.000  C
  C4       1.0000 0.61680  0.07070  0.18680  Biso   1.000  C
  C5       1.0000 0.62690  0.00280  0.09770  Biso   1.000  C
  C6       1.0000 0.76220  0.95180  0.07480  Biso   1.000  C
  C7       1.0000 0.88120  0.96670  0.13960  Biso   1.000  C
  C8       1.0000 0.49540  0.98330  0.03060  Biso   1.000  C
  C9       1.0000 0.07820  0.18930  0.60800  Biso   1.000  C
  C10      1.0000 0.05840  0.26770  0.70100  Biso   1.000  C
  C11      1.0000 0.98930  0.23820  0.76440  Biso   1.000  C
  C12      1.0000 0.98880  0.30820  0.85320  Biso   1.000  C
  C13      1.0000 0.05800  0.41130  0.88130  Biso   1.000  C
  C14      1.0000 0.12180  0.44030  0.81710  Biso   1.000  C
  C15      1.0000 0.12170  0.37000  0.72790  Biso   1.000  C
  C16      1.0000 0.06260  0.48880  0.97930  Biso   1.000  C
  C17      1.0000 0.22360  0.52690  0.02210  Biso   1.000  C
  C18      1.0000 0.22020  0.38770  0.09730  Biso   1.000  C
  C19      1.0000 0.44020  0.18060  0.44020  Biso   1.000  C
  C20      1.0000 0.56520  0.26590  0.46050  Biso   1.000  C
  C21      1.0000 0.69560  0.27300  0.51460  Biso   1.000  C
  C22      1.0000 0.81090  0.35240  0.53330  Biso   1.000  C
  C23      1.0000 0.80300  0.42720  0.49760  Biso   1.000  C
  C24      1.0000 0.67260  0.41990  0.44340  Biso   1.000  C
  C25      1.0000 0.55560  0.34090  0.42490  Biso   1.000  C
  C26      1.0000 0.93070  0.51150  0.51570  Biso   1.000  C
  C27      1.0000 0.89000  0.61880  0.57410  Biso   1.000  C
  C28      1.0000 0.03000  0.64700  0.72600  Biso   1.000  C
  C29      1.0000 0.41870  0.88230  0.29780  Biso   1.000  C
  C30      1.0000 0.59970  0.78360  0.19320  Biso   1.000  C
  C31      1.0000 0.43960  0.70480  0.27580  Biso   1.000  C
  C32      1.0000 0.33820  0.93260  0.04910  Biso   1.000  C
  C33      1.0000 0.01710  0.95660  0.69980  Biso   1.000  C
  C34      1.0000 0.13760  0.96860  0.77100  Biso   1.000  C
  C35      1.0000 0.26890  0.91560  0.74740  Biso   1.000  C
  C36      1.0000 0.38320  0.92930  0.81320  Biso   1.000  C
  C37      1.0000 0.37310  0.99720  0.90230  Biso   1.000  C
  C38      1.0000 0.23780  0.04820  0.92520  Biso   1.000  C
  C39      1.0000 0.11880  0.03330  0.86040  Biso   1.000  C
  C40      1.0000 0.50460  0.01670  0.96940  Biso   1.000  C
  C41      1.0000 0.92180  0.81070  0.39200  Biso   1.000  C
  C42      1.0000 0.94160  0.73230  0.29900  Biso   1.000  C
  C43      1.0000 0.01070  0.76180  0.23560  Biso   1.000  C
  C44      1.0000 0.01120  0.69180  0.14680  Biso   1.000  C
  C45      1.0000 0.94200  0.58870  0.11870  Biso   1.000  C
  C46      1.0000 0.87820  0.55970  0.18290  Biso   1.000  C
  C47      1.0000 0.87830  0.63000  0.27210  Biso   1.000  C
  C48      1.0000 0.93740  0.51120  0.02070  Biso   1.000  C
  C49      1.0000 0.77640  0.47310  0.97790  Biso   1.000  C
  C50      1.0000 0.77980  0.61230  0.90270  Biso   1.000  C
  C51      1.0000 0.55980  0.81940  0.55980  Biso   1.000  C
  C52      1.0000 0.43480  0.73410  0.53950  Biso   1.000  C
  C53      1.0000 0.30440  0.72700  0.48540  Biso   1.000  C
  C54      1.0000 0.18910  0.64760  0.46670  Biso   1.000  C
  C55      1.0000 0.19700  0.57280  0.50240  Biso   1.000  C
  C56      1.0000 0.32740  0.58010  0.55660  Biso   1.000  C
  C57      1.0000 0.44440  0.65910  0.57510  Biso   1.000  C
  C58      1.0000 0.06930  0.48850  0.48430  Biso   1.000  C
  C59      1.0000 0.11000  0.38120  0.42590  Biso   1.000  C
  C60      1.0000 0.97000  0.35300  0.27400  Biso   1.000  C
  C61      1.0000 0.58130  0.11770  0.70220  Biso   1.000  C
  C62      1.0000 0.40030  0.21640  0.80680  Biso   1.000  C
  C63      1.0000 0.56040  0.29520  0.72420  Biso   1.000  C
  C64      1.0000 0.66180  0.06740  0.95090  Biso   1.000  C
  S1       1.0000 0.33460  0.43110  0.03400  Biso   1.000  S
  S2       1.0000 0.84500  0.63080  0.68520  Biso   1.000  S
  S3       1.0000 0.66540  0.56890  0.96600  Biso   1.000  S
  S4       1.0000 0.15500  0.36920  0.31480  Biso   1.000  S
  N1       1.0000 0.48140  0.79410  0.25470  Biso   1.000  N
  N2       1.0000 0.51860  0.20590  0.74530  Biso   1.000  N
  O1       1.0000 0.95420  0.09350  0.38350  Biso   1.000  O
  O2       1.0000 0.10650  0.00170  0.27870  Biso   1.000  O
  O3       1.0000 0.00620  0.09760  0.57770  Biso   1.000  O
  O4       1.0000 0.17160  0.21360  0.56150  Biso   1.000  O
  O5       1.0000 0.32170  0.17640  0.39450  Biso   1.000  O
  O6       1.0000 0.45660  0.11180  0.47190  Biso   1.000  O
  O7       1.0000 0.32160  0.89700  0.35350  Biso   1.000  O
  O8       1.0000 0.28420  0.99050  0.55200  Biso   1.000  O
  O9       1.0000 0.04580  0.90650  0.61650  Biso   1.000  O
  O10      1.0000 0.89350  0.99830  0.72130  Biso   1.000  O
  O11      1.0000 0.99380  0.90240  0.42230  Biso   1.000  O
  O12      1.0000 0.82840  0.78640  0.43850  Biso   1.000  O
  O13      1.0000 0.67830  0.82360  0.60550  Biso   1.000  O
  O14      1.0000 0.54340  0.88820  0.52810  Biso   1.000  O
  O15      1.0000 0.67840  0.10300  0.64650  Biso   1.000  O
  O16      1.0000 0.71580  0.00950  0.44800  Biso   1.000  O
