data_image0
_cell_length_a       11.1037
_cell_length_b       11.1037
_cell_length_c       15.9395
_cell_angle_alpha    90
_cell_angle_beta     90
_cell_angle_gamma    90

_symmetry_space_group_name_H-M    "P 1"
_symmetry_int_tables_number       1

loop_
  _symmetry_equiv_pos_as_xyz
  'x, y, z'

loop_
  _atom_site_label
  _atom_site_occupancy
  _atom_site_fract_x
  _atom_site_fract_y
  _atom_site_fract_z
  _atom_site_thermal_displace_type
  _atom_site_B_iso_or_equiv
  _atom_site_type_symbol
  C1       1.0000 0.96360  0.24630  0.31708  Biso   1.000  C
  C2       1.0000 0.96450  0.37130  0.32101  Biso   1.000  C
  H1       1.0000 0.93680  0.19150  0.36990  Biso   1.000  H
  H2       1.0000 0.93120  0.41430  0.37710  Biso   1.000  H
  C3       1.0000 0.03640  0.75370  0.31708  Biso   1.000  C
  C4       1.0000 0.03550  0.62870  0.32101  Biso   1.000  C
  H3       1.0000 0.06320  0.80850  0.36990  Biso   1.000  H
  H4       1.0000 0.06880  0.58570  0.37710  Biso   1.000  H
  C5       1.0000 0.75370  0.96360  0.31708  Biso   1.000  C
  C6       1.0000 0.62870  0.96450  0.32101  Biso   1.000  C
  H5       1.0000 0.80850  0.93680  0.36990  Biso   1.000  H
  H6       1.0000 0.58570  0.93120  0.37710  Biso   1.000  H
  C7       1.0000 0.24630  0.03640  0.31708  Biso   1.000  C
  C8       1.0000 0.37130  0.03550  0.32101  Biso   1.000  C
  H7       1.0000 0.19150  0.06320  0.36990  Biso   1.000  H
  H8       1.0000 0.41430  0.06880  0.37710  Biso   1.000  H
  C9       1.0000 0.03640  0.24630  0.18292  Biso   1.000  C
  C10      1.0000 0.03550  0.37130  0.17899  Biso   1.000  C
  H9       1.0000 0.06320  0.19150  0.13010  Biso   1.000  H
  H10      1.0000 0.06880  0.41430  0.12290  Biso   1.000  H
  C11      1.0000 0.96360  0.75370  0.18292  Biso   1.000  C
  C12      1.0000 0.96450  0.62870  0.17899  Biso   1.000  C
  H11      1.0000 0.93680  0.80850  0.13010  Biso   1.000  H
  H12      1.0000 0.93120  0.58570  0.12290  Biso   1.000  H
  C13      1.0000 0.24630  0.96360  0.18292  Biso   1.000  C
  C14      1.0000 0.37130  0.96450  0.17899  Biso   1.000  C
  H13      1.0000 0.19150  0.93680  0.13010  Biso   1.000  H
  H14      1.0000 0.41430  0.93120  0.12290  Biso   1.000  H
  C15      1.0000 0.75370  0.03640  0.18292  Biso   1.000  C
  C16      1.0000 0.62870  0.03550  0.17899  Biso   1.000  C
  H15      1.0000 0.80850  0.06320  0.13010  Biso   1.000  H
  H16      1.0000 0.58570  0.06880  0.12290  Biso   1.000  H
  C17      1.0000 0.03640  0.75370  0.68292  Biso   1.000  C
  C18      1.0000 0.03550  0.62870  0.67899  Biso   1.000  C
  H17      1.0000 0.06320  0.80850  0.63010  Biso   1.000  H
  H18      1.0000 0.06880  0.58570  0.62290  Biso   1.000  H
  C19      1.0000 0.96360  0.24630  0.68292  Biso   1.000  C
  C20      1.0000 0.96450  0.37130  0.67899  Biso   1.000  C
  H19      1.0000 0.93680  0.19150  0.63010  Biso   1.000  H
  H20      1.0000 0.93120  0.41430  0.62290  Biso   1.000  H
  C21      1.0000 0.24630  0.03640  0.68292  Biso   1.000  C
  C22      1.0000 0.37130  0.03550  0.67899  Biso   1.000  C
  H21      1.0000 0.19150  0.06320  0.63010  Biso   1.000  H
  H22      1.0000 0.41430  0.06880  0.62290  Biso   1.000  H
  C23      1.0000 0.75370  0.96360  0.68292  Biso   1.000  C
  C24      1.0000 0.62870  0.96450  0.67899  Biso   1.000  C
  H23      1.0000 0.80850  0.93680  0.63010  Biso   1.000  H
  H24      1.0000 0.58570  0.93120  0.62290  Biso   1.000  H
  C25      1.0000 0.96360  0.75370  0.81708  Biso   1.000  C
  C26      1.0000 0.96450  0.62870  0.82101  Biso   1.000  C
  H25      1.0000 0.93680  0.80850  0.86990  Biso   1.000  H
  H26      1.0000 0.93120  0.58570  0.87710  Biso   1.000  H
  C27      1.0000 0.03640  0.24630  0.81708  Biso   1.000  C
  C28      1.0000 0.03550  0.37130  0.82101  Biso   1.000  C
  H27      1.0000 0.06320  0.19150  0.86990  Biso   1.000  H
  H28      1.0000 0.06880  0.41430  0.87710  Biso   1.000  H
  C29      1.0000 0.75370  0.03640  0.81708  Biso   1.000  C
  C30      1.0000 0.62870  0.03550  0.82101  Biso   1.000  C
  H29      1.0000 0.80850  0.06320  0.86990  Biso   1.000  H
  H30      1.0000 0.58570  0.06880  0.87710  Biso   1.000  H
  C31      1.0000 0.24630  0.96360  0.81708  Biso   1.000  C
  C32      1.0000 0.37130  0.96450  0.82101  Biso   1.000  C
  H31      1.0000 0.19150  0.93680  0.86990  Biso   1.000  H
  H32      1.0000 0.41430  0.93120  0.87710  Biso   1.000  H
  F1       1.0000 0.10910  0.10600  0.50000  Biso   1.000  F
  F2       1.0000 0.89090  0.89400  0.50000  Biso   1.000  F
  F3       1.0000 0.89400  0.10910  0.50000  Biso   1.000  F
  F4       1.0000 0.10600  0.89090  0.50000  Biso   1.000  F
  F5       1.0000 0.89090  0.10600  0.00000  Biso   1.000  F
  F6       1.0000 0.10910  0.89400  0.00000  Biso   1.000  F
  F7       1.0000 0.10600  0.10910  0.00000  Biso   1.000  F
  F8       1.0000 0.89400  0.89090  0.00000  Biso   1.000  F
  C33      1.0000 0.00000  0.43390  0.25000  Biso   1.000  C
  N1       1.0000 0.00000  0.18210  0.25000  Biso   1.000  N
  C34      1.0000 0.00000  0.56610  0.25000  Biso   1.000  C
  N2       1.0000 0.00000  0.81790  0.25000  Biso   1.000  N
  C35      1.0000 0.56610  0.00000  0.25000  Biso   1.000  C
  N3       1.0000 0.81790  0.00000  0.25000  Biso   1.000  N
  C36      1.0000 0.43390  0.00000  0.25000  Biso   1.000  C
  N4       1.0000 0.18210  0.00000  0.25000  Biso   1.000  N
  C37      1.0000 0.00000  0.56610  0.75000  Biso   1.000  C
  N5       1.0000 0.00000  0.81790  0.75000  Biso   1.000  N
  C38      1.0000 0.00000  0.43390  0.75000  Biso   1.000  C
  N6       1.0000 0.00000  0.18210  0.75000  Biso   1.000  N
  C39      1.0000 0.43390  0.00000  0.75000  Biso   1.000  C
  N7       1.0000 0.18210  0.00000  0.75000  Biso   1.000  N
  C40      1.0000 0.56610  0.00000  0.75000  Biso   1.000  C
  N8       1.0000 0.81790  0.00000  0.75000  Biso   1.000  N
  Cu1      1.0000 0.00000  0.00000  0.25000  Biso   1.000  Cu
  Cu2      1.0000 0.00000  0.00000  0.75000  Biso   1.000  Cu
  Si1      1.0000 0.00000  0.00000  0.50000  Biso   1.000  Si
  Si2      1.0000 0.00000  0.00000  0.00000  Biso   1.000  Si
  F9       1.0000 0.00000  0.00000  0.39170  Biso   1.000  F
  F10      1.0000 0.00000  0.00000  0.10830  Biso   1.000  F
  F11      1.0000 0.00000  0.00000  0.60830  Biso   1.000  F
  F12      1.0000 0.00000  0.00000  0.89170  Biso   1.000  F
