data_image0
_cell_length_a       22.5121
_cell_length_b       22.661
_cell_length_c       33.3409
_cell_angle_alpha    90
_cell_angle_beta     90
_cell_angle_gamma    90

_symmetry_space_group_name_H-M    "P 1"
_symmetry_int_tables_number       1

loop_
  _symmetry_equiv_pos_as_xyz
  'x, y, z'

loop_
  _atom_site_label
  _atom_site_occupancy
  _atom_site_fract_x
  _atom_site_fract_y
  _atom_site_fract_z
  _atom_site_thermal_displace_type
  _atom_site_B_iso_or_equiv
  _atom_site_type_symbol
  In1      1.0000 0.91361  0.30102  0.25550  Biso   1.000  In
  In2      1.0000 0.82206  0.23196  0.33533  Biso   1.000  In
  In3      1.0000 0.98401  0.31012  0.35687  Biso   1.000  In
  In4      1.0000 0.97621  0.15883  0.29199  Biso   1.000  In
  In5      1.0000 0.75270  0.15495  0.42251  Biso   1.000  In
  In6      1.0000 0.89206  0.23307  0.44854  Biso   1.000  In
  In7      1.0000 0.04184  0.30150  0.46103  Biso   1.000  In
  In8      1.0000 0.88527  0.07841  0.38281  Biso   1.000  In
  In9      1.0000 0.04437  0.15772  0.40710  Biso   1.000  In
  In10     1.0000 0.03172  0.02362  0.34507  Biso   1.000  In
  S1       1.0000 0.81102  0.28870  0.27467  Biso   1.000  S
  S2       1.0000 0.97680  0.36460  0.29535  Biso   1.000  S
  S3       1.0000 0.96420  0.21370  0.23043  Biso   1.000  S
  S4       1.0000 0.72553  0.20970  0.36252  Biso   1.000  S
  S5       1.0000 0.88248  0.29033  0.38451  Biso   1.000  S
  S6       1.0000 0.04180  0.36740  0.40371  Biso   1.000  S
  S7       1.0000 0.87450  0.13698  0.31970  Biso   1.000  S
  S8       1.0000 0.03558  0.21470  0.34316  Biso   1.000  S
  S9       1.0000 0.03050  0.06950  0.27939  Biso   1.000  S
  S10      1.0000 0.79500  0.21440  0.47541  Biso   1.000  S
  S11      1.0000 0.94880  0.28980  0.49613  Biso   1.000  S
  S12      1.0000 0.78980  0.05650  0.41134  Biso   1.000  S
  S13      1.0000 0.94284  0.13689  0.43366  Biso   1.000  S
  S14      1.0000 0.10270  0.21410  0.45404  Biso   1.000  S
  S15      1.0000 0.93550  0.98700  0.36723  Biso   1.000  S
  S16      1.0000 0.09550  0.06600  0.39586  Biso   1.000  S
  N1       1.0000 0.59390  0.15250  0.49370  Biso   1.000  N
  N2       1.0000 0.66830  0.13790  0.45120  Biso   1.000  N
  N3       1.0000 0.90210  0.36170  0.20520  Biso   1.000  N
  N4       1.0000 0.92130  0.44230  0.17030  Biso   1.000  N
  C1       1.0000 0.62900  0.09210  0.44900  Biso   1.000  C
  H1       1.0000 0.63290  0.05930  0.43140  Biso   1.000  H
  C2       1.0000 0.85330  0.37580  0.18480  Biso   1.000  C
  H2       1.0000 0.81700  0.35430  0.18490  Biso   1.000  H
  C3       1.0000 0.58290  0.09970  0.47590  Biso   1.000  C
  H3       1.0000 0.55060  0.07380  0.48090  Biso   1.000  H
  C4       1.0000 0.64370  0.17270  0.47710  Biso   1.000  C
  H4       1.0000 0.66000  0.21000  0.48380  Biso   1.000  H
  C5       1.0000 0.86420  0.42570  0.16390  Biso   1.000  C
  H5       1.0000 0.83640  0.44590  0.14750  Biso   1.000  H
  C6       1.0000 0.94070  0.40350  0.19640  Biso   1.000  C
  H6       1.0000 0.97920  0.40540  0.20800  Biso   1.000  H
  In11     1.0000 0.58639  0.69898  0.75550  Biso   1.000  In
  In12     1.0000 0.67794  0.76804  0.83533  Biso   1.000  In
  In13     1.0000 0.51599  0.68988  0.85687  Biso   1.000  In
  In14     1.0000 0.52379  0.84117  0.79199  Biso   1.000  In
  In15     1.0000 0.74730  0.84505  0.92251  Biso   1.000  In
  In16     1.0000 0.60794  0.76693  0.94854  Biso   1.000  In
  In17     1.0000 0.45816  0.69850  0.96103  Biso   1.000  In
  In18     1.0000 0.61473  0.92159  0.88281  Biso   1.000  In
  In19     1.0000 0.45563  0.84228  0.90710  Biso   1.000  In
  In20     1.0000 0.46828  0.97638  0.84507  Biso   1.000  In
  S17      1.0000 0.68898  0.71130  0.77467  Biso   1.000  S
  S18      1.0000 0.52320  0.63540  0.79535  Biso   1.000  S
  S19      1.0000 0.53580  0.78630  0.73043  Biso   1.000  S
  S20      1.0000 0.77447  0.79030  0.86252  Biso   1.000  S
  S21      1.0000 0.61752  0.70967  0.88451  Biso   1.000  S
  S22      1.0000 0.45820  0.63260  0.90371  Biso   1.000  S
  S23      1.0000 0.62550  0.86302  0.81970  Biso   1.000  S
  S24      1.0000 0.46442  0.78530  0.84316  Biso   1.000  S
  S25      1.0000 0.46950  0.93050  0.77939  Biso   1.000  S
  S26      1.0000 0.70500  0.78560  0.97541  Biso   1.000  S
  S27      1.0000 0.55120  0.71020  0.99613  Biso   1.000  S
  S28      1.0000 0.71020  0.94350  0.91134  Biso   1.000  S
  S29      1.0000 0.55716  0.86311  0.93366  Biso   1.000  S
  S30      1.0000 0.39730  0.78590  0.95404  Biso   1.000  S
  S31      1.0000 0.56450  0.01300  0.86723  Biso   1.000  S
  S32      1.0000 0.40450  0.93400  0.89586  Biso   1.000  S
  N5       1.0000 0.90610  0.84750  0.99370  Biso   1.000  N
  N6       1.0000 0.83170  0.86210  0.95120  Biso   1.000  N
  N7       1.0000 0.59790  0.63830  0.70520  Biso   1.000  N
  N8       1.0000 0.57870  0.55770  0.67030  Biso   1.000  N
  C7       1.0000 0.87100  0.90790  0.94900  Biso   1.000  C
  H7       1.0000 0.86710  0.94070  0.93140  Biso   1.000  H
  C8       1.0000 0.64670  0.62420  0.68480  Biso   1.000  C
  H8       1.0000 0.68300  0.64570  0.68490  Biso   1.000  H
  C9       1.0000 0.91710  0.90030  0.97590  Biso   1.000  C
  H9       1.0000 0.94940  0.92620  0.98090  Biso   1.000  H
  C10      1.0000 0.85630  0.82730  0.97710  Biso   1.000  C
  H10      1.0000 0.84000  0.79000  0.98380  Biso   1.000  H
  C11      1.0000 0.63580  0.57430  0.66390  Biso   1.000  C
  H11      1.0000 0.66360  0.55410  0.64750  Biso   1.000  H
  C12      1.0000 0.55930  0.59650  0.69640  Biso   1.000  C
  H12      1.0000 0.52080  0.59460  0.70800  Biso   1.000  H
  In21     1.0000 0.08639  0.80102  0.24450  Biso   1.000  In
  In22     1.0000 0.17794  0.73196  0.16467  Biso   1.000  In
  In23     1.0000 0.01599  0.81012  0.14313  Biso   1.000  In
  In24     1.0000 0.02379  0.65883  0.20801  Biso   1.000  In
  In25     1.0000 0.24730  0.65495  0.07749  Biso   1.000  In
  In26     1.0000 0.10794  0.73307  0.05146  Biso   1.000  In
  In27     1.0000 0.95816  0.80150  0.03897  Biso   1.000  In
  In28     1.0000 0.11473  0.57841  0.11719  Biso   1.000  In
  In29     1.0000 0.95563  0.65772  0.09290  Biso   1.000  In
  In30     1.0000 0.96828  0.52362  0.15493  Biso   1.000  In
  S33      1.0000 0.18898  0.78870  0.22533  Biso   1.000  S
  S34      1.0000 0.02320  0.86460  0.20465  Biso   1.000  S
  S35      1.0000 0.03580  0.71370  0.26957  Biso   1.000  S
  S36      1.0000 0.27447  0.70970  0.13748  Biso   1.000  S
  S37      1.0000 0.11752  0.79033  0.11549  Biso   1.000  S
  S38      1.0000 0.95820  0.86740  0.09629  Biso   1.000  S
  S39      1.0000 0.12550  0.63698  0.18030  Biso   1.000  S
  S40      1.0000 0.96442  0.71470  0.15684  Biso   1.000  S
  S41      1.0000 0.96950  0.56950  0.22061  Biso   1.000  S
  S42      1.0000 0.20500  0.71440  0.02459  Biso   1.000  S
  S43      1.0000 0.05120  0.78980  0.00387  Biso   1.000  S
  S44      1.0000 0.21020  0.55650  0.08866  Biso   1.000  S
  S45      1.0000 0.05716  0.63689  0.06634  Biso   1.000  S
  S46      1.0000 0.89730  0.71410  0.04596  Biso   1.000  S
  S47      1.0000 0.06450  0.48700  0.13277  Biso   1.000  S
  S48      1.0000 0.90450  0.56600  0.10414  Biso   1.000  S
  N9       1.0000 0.40610  0.65250  0.00630  Biso   1.000  N
  N10      1.0000 0.33170  0.63790  0.04880  Biso   1.000  N
  N11      1.0000 0.09790  0.86170  0.29480  Biso   1.000  N
  N12      1.0000 0.07870  0.94230  0.32970  Biso   1.000  N
  C13      1.0000 0.37100  0.59210  0.05100  Biso   1.000  C
  H13      1.0000 0.36710  0.55930  0.06860  Biso   1.000  H
  C14      1.0000 0.14670  0.87580  0.31520  Biso   1.000  C
  H14      1.0000 0.18300  0.85430  0.31510  Biso   1.000  H
  C15      1.0000 0.41710  0.59970  0.02410  Biso   1.000  C
  H15      1.0000 0.44940  0.57380  0.01910  Biso   1.000  H
  C16      1.0000 0.35630  0.67270  0.02290  Biso   1.000  C
  H16      1.0000 0.34000  0.71000  0.01620  Biso   1.000  H
  C17      1.0000 0.13580  0.92570  0.33610  Biso   1.000  C
  H17      1.0000 0.16360  0.94590  0.35250  Biso   1.000  H
  C18      1.0000 0.05930  0.90350  0.30360  Biso   1.000  C
  H18      1.0000 0.02080  0.90540  0.29200  Biso   1.000  H
  In31     1.0000 0.41361  0.19898  0.74450  Biso   1.000  In
  In32     1.0000 0.32206  0.26804  0.66467  Biso   1.000  In
  In33     1.0000 0.48401  0.18988  0.64313  Biso   1.000  In
  In34     1.0000 0.47621  0.34117  0.70801  Biso   1.000  In
  In35     1.0000 0.25270  0.34505  0.57749  Biso   1.000  In
  In36     1.0000 0.39206  0.26693  0.55146  Biso   1.000  In
  In37     1.0000 0.54184  0.19850  0.53897  Biso   1.000  In
  In38     1.0000 0.38527  0.42159  0.61719  Biso   1.000  In
  In39     1.0000 0.54437  0.34228  0.59290  Biso   1.000  In
  In40     1.0000 0.53172  0.47638  0.65493  Biso   1.000  In
  S49      1.0000 0.31102  0.21130  0.72533  Biso   1.000  S
  S50      1.0000 0.47680  0.13540  0.70465  Biso   1.000  S
  S51      1.0000 0.46420  0.28630  0.76957  Biso   1.000  S
  S52      1.0000 0.22553  0.29030  0.63748  Biso   1.000  S
  S53      1.0000 0.38248  0.20967  0.61549  Biso   1.000  S
  S54      1.0000 0.54180  0.13260  0.59629  Biso   1.000  S
  S55      1.0000 0.37450  0.36302  0.68030  Biso   1.000  S
  S56      1.0000 0.53558  0.28530  0.65684  Biso   1.000  S
  S57      1.0000 0.53050  0.43050  0.72061  Biso   1.000  S
  S58      1.0000 0.29500  0.28560  0.52459  Biso   1.000  S
  S59      1.0000 0.44880  0.21020  0.50387  Biso   1.000  S
  S60      1.0000 0.28980  0.44350  0.58866  Biso   1.000  S
  S61      1.0000 0.44284  0.36311  0.56634  Biso   1.000  S
  S62      1.0000 0.60270  0.28590  0.54596  Biso   1.000  S
  S63      1.0000 0.43550  0.51300  0.63277  Biso   1.000  S
  S64      1.0000 0.59550  0.43400  0.60414  Biso   1.000  S
  N13      1.0000 0.09390  0.34750  0.50630  Biso   1.000  N
  N14      1.0000 0.16830  0.36210  0.54880  Biso   1.000  N
  N15      1.0000 0.40210  0.13830  0.79480  Biso   1.000  N
  N16      1.0000 0.42130  0.05770  0.82970  Biso   1.000  N
  C19      1.0000 0.12900  0.40790  0.55100  Biso   1.000  C
  H19      1.0000 0.13290  0.44070  0.56860  Biso   1.000  H
  C20      1.0000 0.35330  0.12420  0.81520  Biso   1.000  C
  H20      1.0000 0.31700  0.14570  0.81510  Biso   1.000  H
  C21      1.0000 0.08290  0.40030  0.52410  Biso   1.000  C
  H21      1.0000 0.05060  0.42620  0.51910  Biso   1.000  H
  C22      1.0000 0.14370  0.32730  0.52290  Biso   1.000  C
  H22      1.0000 0.16000  0.29000  0.51620  Biso   1.000  H
  C23      1.0000 0.36420  0.07430  0.83610  Biso   1.000  C
  H23      1.0000 0.33640  0.05410  0.85250  Biso   1.000  H
  C24      1.0000 0.44070  0.09650  0.80360  Biso   1.000  C
  H24      1.0000 0.47920  0.09460  0.79200  Biso   1.000  H
  In41     1.0000 0.08639  0.69898  0.74450  Biso   1.000  In
  In42     1.0000 0.17794  0.76804  0.66467  Biso   1.000  In
  In43     1.0000 0.01599  0.68988  0.64313  Biso   1.000  In
  In44     1.0000 0.02379  0.84117  0.70801  Biso   1.000  In
  In45     1.0000 0.24730  0.84505  0.57749  Biso   1.000  In
  In46     1.0000 0.10794  0.76693  0.55146  Biso   1.000  In
  In47     1.0000 0.95816  0.69850  0.53897  Biso   1.000  In
  In48     1.0000 0.11473  0.92159  0.61719  Biso   1.000  In
  In49     1.0000 0.95563  0.84228  0.59290  Biso   1.000  In
  In50     1.0000 0.96828  0.97638  0.65493  Biso   1.000  In
  S65      1.0000 0.18898  0.71130  0.72533  Biso   1.000  S
  S66      1.0000 0.02320  0.63540  0.70465  Biso   1.000  S
  S67      1.0000 0.03580  0.78630  0.76957  Biso   1.000  S
  S68      1.0000 0.27447  0.79030  0.63748  Biso   1.000  S
  S69      1.0000 0.11752  0.70967  0.61549  Biso   1.000  S
  S70      1.0000 0.95820  0.63260  0.59629  Biso   1.000  S
  S71      1.0000 0.12550  0.86302  0.68030  Biso   1.000  S
  S72      1.0000 0.96442  0.78530  0.65684  Biso   1.000  S
  S73      1.0000 0.96950  0.93050  0.72061  Biso   1.000  S
  S74      1.0000 0.20500  0.78560  0.52459  Biso   1.000  S
  S75      1.0000 0.05120  0.71020  0.50387  Biso   1.000  S
  S76      1.0000 0.21020  0.94350  0.58866  Biso   1.000  S
  S77      1.0000 0.05716  0.86311  0.56634  Biso   1.000  S
  S78      1.0000 0.89730  0.78590  0.54596  Biso   1.000  S
  S79      1.0000 0.06450  0.01300  0.63277  Biso   1.000  S
  S80      1.0000 0.90450  0.93400  0.60414  Biso   1.000  S
  N17      1.0000 0.40610  0.84750  0.50630  Biso   1.000  N
  N18      1.0000 0.33170  0.86210  0.54880  Biso   1.000  N
  N19      1.0000 0.09790  0.63830  0.79480  Biso   1.000  N
  N20      1.0000 0.07870  0.55770  0.82970  Biso   1.000  N
  C25      1.0000 0.37100  0.90790  0.55100  Biso   1.000  C
  H25      1.0000 0.36710  0.94070  0.56860  Biso   1.000  H
  C26      1.0000 0.14670  0.62420  0.81520  Biso   1.000  C
  H26      1.0000 0.18300  0.64570  0.81510  Biso   1.000  H
  C27      1.0000 0.41710  0.90030  0.52410  Biso   1.000  C
  H27      1.0000 0.44940  0.92620  0.51910  Biso   1.000  H
  C28      1.0000 0.35630  0.82730  0.52290  Biso   1.000  C
  H28      1.0000 0.34000  0.79000  0.51620  Biso   1.000  H
  C29      1.0000 0.13580  0.57430  0.83610  Biso   1.000  C
  H29      1.0000 0.16360  0.55410  0.85250  Biso   1.000  H
  C30      1.0000 0.05930  0.59650  0.80360  Biso   1.000  C
  H30      1.0000 0.02080  0.59460  0.79200  Biso   1.000  H
  In51     1.0000 0.41361  0.30102  0.24450  Biso   1.000  In
  In52     1.0000 0.32206  0.23196  0.16467  Biso   1.000  In
  In53     1.0000 0.48401  0.31012  0.14313  Biso   1.000  In
  In54     1.0000 0.47621  0.15883  0.20801  Biso   1.000  In
  In55     1.0000 0.25270  0.15495  0.07749  Biso   1.000  In
  In56     1.0000 0.39206  0.23307  0.05146  Biso   1.000  In
  In57     1.0000 0.54184  0.30150  0.03897  Biso   1.000  In
  In58     1.0000 0.38527  0.07841  0.11719  Biso   1.000  In
  In59     1.0000 0.54437  0.15772  0.09290  Biso   1.000  In
  In60     1.0000 0.53172  0.02362  0.15493  Biso   1.000  In
  S81      1.0000 0.31102  0.28870  0.22533  Biso   1.000  S
  S82      1.0000 0.47680  0.36460  0.20465  Biso   1.000  S
  S83      1.0000 0.46420  0.21370  0.26957  Biso   1.000  S
  S84      1.0000 0.22553  0.20970  0.13748  Biso   1.000  S
  S85      1.0000 0.38248  0.29033  0.11549  Biso   1.000  S
  S86      1.0000 0.54180  0.36740  0.09629  Biso   1.000  S
  S87      1.0000 0.37450  0.13698  0.18030  Biso   1.000  S
  S88      1.0000 0.53558  0.21470  0.15684  Biso   1.000  S
  S89      1.0000 0.53050  0.06950  0.22061  Biso   1.000  S
  S90      1.0000 0.29500  0.21440  0.02459  Biso   1.000  S
  S91      1.0000 0.44880  0.28980  0.00387  Biso   1.000  S
  S92      1.0000 0.28980  0.05650  0.08866  Biso   1.000  S
  S93      1.0000 0.44284  0.13689  0.06634  Biso   1.000  S
  S94      1.0000 0.60270  0.21410  0.04596  Biso   1.000  S
  S95      1.0000 0.43550  0.98700  0.13277  Biso   1.000  S
  S96      1.0000 0.59550  0.06600  0.10414  Biso   1.000  S
  N21      1.0000 0.09390  0.15250  0.00630  Biso   1.000  N
  N22      1.0000 0.16830  0.13790  0.04880  Biso   1.000  N
  N23      1.0000 0.40210  0.36170  0.29480  Biso   1.000  N
  N24      1.0000 0.42130  0.44230  0.32970  Biso   1.000  N
  C31      1.0000 0.12900  0.09210  0.05100  Biso   1.000  C
  H31      1.0000 0.13290  0.05930  0.06860  Biso   1.000  H
  C32      1.0000 0.35330  0.37580  0.31520  Biso   1.000  C
  H32      1.0000 0.31700  0.35430  0.31510  Biso   1.000  H
  C33      1.0000 0.08290  0.09970  0.02410  Biso   1.000  C
  H33      1.0000 0.05060  0.07380  0.01910  Biso   1.000  H
  C34      1.0000 0.14370  0.17270  0.02290  Biso   1.000  C
  H34      1.0000 0.16000  0.21000  0.01620  Biso   1.000  H
  C35      1.0000 0.36420  0.42570  0.33610  Biso   1.000  C
  H35      1.0000 0.33640  0.44590  0.35250  Biso   1.000  H
  C36      1.0000 0.44070  0.40350  0.30360  Biso   1.000  C
  H36      1.0000 0.47920  0.40540  0.29200  Biso   1.000  H
  In61     1.0000 0.91361  0.19898  0.75550  Biso   1.000  In
  In62     1.0000 0.82206  0.26804  0.83533  Biso   1.000  In
  In63     1.0000 0.98401  0.18988  0.85687  Biso   1.000  In
  In64     1.0000 0.97621  0.34117  0.79199  Biso   1.000  In
  In65     1.0000 0.75270  0.34505  0.92251  Biso   1.000  In
  In66     1.0000 0.89206  0.26693  0.94854  Biso   1.000  In
  In67     1.0000 0.04184  0.19850  0.96103  Biso   1.000  In
  In68     1.0000 0.88527  0.42159  0.88281  Biso   1.000  In
  In69     1.0000 0.04437  0.34228  0.90710  Biso   1.000  In
  In70     1.0000 0.03172  0.47638  0.84507  Biso   1.000  In
  S97      1.0000 0.81102  0.21130  0.77467  Biso   1.000  S
  S98      1.0000 0.97680  0.13540  0.79535  Biso   1.000  S
  S99      1.0000 0.96420  0.28630  0.73043  Biso   1.000  S
  S100     1.0000 0.72553  0.29030  0.86252  Biso   1.000  S
  S101     1.0000 0.88248  0.20967  0.88451  Biso   1.000  S
  S102     1.0000 0.04180  0.13260  0.90371  Biso   1.000  S
  S103     1.0000 0.87450  0.36302  0.81970  Biso   1.000  S
  S104     1.0000 0.03558  0.28530  0.84316  Biso   1.000  S
  S105     1.0000 0.03050  0.43050  0.77939  Biso   1.000  S
  S106     1.0000 0.79500  0.28560  0.97541  Biso   1.000  S
  S107     1.0000 0.94880  0.21020  0.99613  Biso   1.000  S
  S108     1.0000 0.78980  0.44350  0.91134  Biso   1.000  S
  S109     1.0000 0.94284  0.36311  0.93366  Biso   1.000  S
  S110     1.0000 0.10270  0.28590  0.95404  Biso   1.000  S
  S111     1.0000 0.93550  0.51300  0.86723  Biso   1.000  S
  S112     1.0000 0.09550  0.43400  0.89586  Biso   1.000  S
  N25      1.0000 0.59390  0.34750  0.99370  Biso   1.000  N
  N26      1.0000 0.66830  0.36210  0.95120  Biso   1.000  N
  N27      1.0000 0.90210  0.13830  0.70520  Biso   1.000  N
  N28      1.0000 0.92130  0.05770  0.67030  Biso   1.000  N
  C37      1.0000 0.62900  0.40790  0.94900  Biso   1.000  C
  H37      1.0000 0.63290  0.44070  0.93140  Biso   1.000  H
  C38      1.0000 0.85330  0.12420  0.68480  Biso   1.000  C
  H38      1.0000 0.81700  0.14570  0.68490  Biso   1.000  H
  C39      1.0000 0.58290  0.40030  0.97590  Biso   1.000  C
  H39      1.0000 0.55060  0.42620  0.98090  Biso   1.000  H
  C40      1.0000 0.64370  0.32730  0.97710  Biso   1.000  C
  H40      1.0000 0.66000  0.29000  0.98380  Biso   1.000  H
  C41      1.0000 0.86420  0.07430  0.66390  Biso   1.000  C
  H41      1.0000 0.83640  0.05410  0.64750  Biso   1.000  H
  C42      1.0000 0.94070  0.09650  0.69640  Biso   1.000  C
  H42      1.0000 0.97920  0.09460  0.70800  Biso   1.000  H
  In71     1.0000 0.58639  0.80102  0.25550  Biso   1.000  In
  In72     1.0000 0.67794  0.73196  0.33533  Biso   1.000  In
  In73     1.0000 0.51599  0.81012  0.35687  Biso   1.000  In
  In74     1.0000 0.52379  0.65883  0.29199  Biso   1.000  In
  In75     1.0000 0.74730  0.65495  0.42251  Biso   1.000  In
  In76     1.0000 0.60794  0.73307  0.44854  Biso   1.000  In
  In77     1.0000 0.45816  0.80150  0.46103  Biso   1.000  In
  In78     1.0000 0.61473  0.57841  0.38281  Biso   1.000  In
  In79     1.0000 0.45563  0.65772  0.40710  Biso   1.000  In
  In80     1.0000 0.46828  0.52362  0.34507  Biso   1.000  In
  S113     1.0000 0.68898  0.78870  0.27467  Biso   1.000  S
  S114     1.0000 0.52320  0.86460  0.29535  Biso   1.000  S
  S115     1.0000 0.53580  0.71370  0.23043  Biso   1.000  S
  S116     1.0000 0.77447  0.70970  0.36252  Biso   1.000  S
  S117     1.0000 0.61752  0.79033  0.38451  Biso   1.000  S
  S118     1.0000 0.45820  0.86740  0.40371  Biso   1.000  S
  S119     1.0000 0.62550  0.63698  0.31970  Biso   1.000  S
  S120     1.0000 0.46442  0.71470  0.34316  Biso   1.000  S
  S121     1.0000 0.46950  0.56950  0.27939  Biso   1.000  S
  S122     1.0000 0.70500  0.71440  0.47541  Biso   1.000  S
  S123     1.0000 0.55120  0.78980  0.49613  Biso   1.000  S
  S124     1.0000 0.71020  0.55650  0.41134  Biso   1.000  S
  S125     1.0000 0.55716  0.63689  0.43366  Biso   1.000  S
  S126     1.0000 0.39730  0.71410  0.45404  Biso   1.000  S
  S127     1.0000 0.56450  0.48700  0.36723  Biso   1.000  S
  S128     1.0000 0.40450  0.56600  0.39586  Biso   1.000  S
  N29      1.0000 0.90610  0.65250  0.49370  Biso   1.000  N
  N30      1.0000 0.83170  0.63790  0.45120  Biso   1.000  N
  N31      1.0000 0.59790  0.86170  0.20520  Biso   1.000  N
  N32      1.0000 0.57870  0.94230  0.17030  Biso   1.000  N
  C43      1.0000 0.87100  0.59210  0.44900  Biso   1.000  C
  H43      1.0000 0.86710  0.55930  0.43140  Biso   1.000  H
  C44      1.0000 0.64670  0.87580  0.18480  Biso   1.000  C
  H44      1.0000 0.68300  0.85430  0.18490  Biso   1.000  H
  C45      1.0000 0.91710  0.59970  0.47590  Biso   1.000  C
  H45      1.0000 0.94940  0.57380  0.48090  Biso   1.000  H
  C46      1.0000 0.85630  0.67270  0.47710  Biso   1.000  C
  H46      1.0000 0.84000  0.71000  0.48380  Biso   1.000  H
  C47      1.0000 0.63580  0.92570  0.16390  Biso   1.000  C
  H47      1.0000 0.66360  0.94590  0.14750  Biso   1.000  H
  C48      1.0000 0.55930  0.90350  0.19640  Biso   1.000  C
  H48      1.0000 0.52080  0.90540  0.20800  Biso   1.000  H
