data_image0
_cell_length_a       21.2772
_cell_length_b       21.418
_cell_length_c       36.01
_cell_angle_alpha    90
_cell_angle_beta     90
_cell_angle_gamma    90

_symmetry_space_group_name_H-M    "P 1"
_symmetry_int_tables_number       1

loop_
  _symmetry_equiv_pos_as_xyz
  'x, y, z'

loop_
  _atom_site_label
  _atom_site_occupancy
  _atom_site_fract_x
  _atom_site_fract_y
  _atom_site_fract_z
  _atom_site_thermal_displace_type
  _atom_site_B_iso_or_equiv
  _atom_site_type_symbol
  In1      1.0000 0.07272  0.83738  0.05048  Biso   1.000  In
  In2      1.0000 0.08748  0.68969  0.10546  Biso   1.000  In
  In3      1.0000 0.92350  0.74481  0.05273  Biso   1.000  In
  In4      1.0000 0.98959  0.84376  0.14101  Biso   1.000  In
  In5      1.0000 0.07936  0.54804  0.16271  Biso   1.000  In
  In6      1.0000 0.92912  0.58353  0.11342  Biso   1.000  In
  In7      1.0000 0.99057  0.68347  0.20300  Biso   1.000  In
  In8      1.0000 0.78290  0.64229  0.06845  Biso   1.000  In
  In9      1.0000 0.82839  0.73661  0.15038  Biso   1.000  In
  In10     1.0000 0.89719  0.82493  0.22940  Biso   1.000  In
  S1       1.0000 0.14660  0.75370  0.06327  Biso   1.000  S
  S2       1.0000 0.98580  0.80660  0.01076  Biso   1.000  S
  S3       1.0000 0.04990  0.90970  0.10009  Biso   1.000  S
  S4       1.0000 0.15270  0.60280  0.12320  Biso   1.000  S
  S5       1.0000 0.99060  0.65370  0.07198  Biso   1.000  S
  S6       1.0000 0.05510  0.75190  0.16130  Biso   1.000  S
  S7       1.0000 0.83190  0.70670  0.02044  Biso   1.000  S
  S8       1.0000 0.89190  0.80570  0.10853  Biso   1.000  S
  S9       1.0000 0.95690  0.90190  0.19486  Biso   1.000  S
  S10      1.0000 0.99430  0.49640  0.13042  Biso   1.000  S
  S11      1.0000 0.05330  0.59590  0.22215  Biso   1.000  S
  S12      1.0000 0.83840  0.54490  0.08049  Biso   1.000  S
  S13      1.0000 0.89490  0.64570  0.16851  Biso   1.000  S
  S14      1.0000 0.95640  0.74010  0.25701  Biso   1.000  S
  S15      1.0000 0.73610  0.69490  0.12033  Biso   1.000  S
  S16      1.0000 0.79590  0.79430  0.20448  Biso   1.000  S
  N1       1.0000 0.13050  0.88720  0.01060  Biso   1.000  N
  N2       1.0000 0.20220  0.89010  0.96330  Biso   1.000  N
  N3       1.0000 0.12700  0.46630  0.18490  Biso   1.000  N
  N4       1.0000 0.13050  0.38360  0.22360  Biso   1.000  N
  C1       1.0000 0.17890  0.85840  0.99220  Biso   1.000  C
  H1       1.0000 0.19470  0.81880  0.99950  Biso   1.000  H
  C2       1.0000 0.12240  0.94310  0.98960  Biso   1.000  C
  C3       1.0000 0.07840  0.99020  0.99440  Biso   1.000  C
  H2       1.0000 0.04680  0.98720  0.01290  Biso   1.000  H
  C4       1.0000 0.08180  0.04090  0.97160  Biso   1.000  C
  H3       1.0000 0.05590  0.07620  0.97630  Biso   1.000  H
  C5       1.0000 0.12390  0.04140  0.94090  Biso   1.000  C
  H4       1.0000 0.12240  0.07480  0.92360  Biso   1.000  H
  C6       1.0000 0.16730  0.99310  0.93590  Biso   1.000  C
  H5       1.0000 0.19520  0.99280  0.91530  Biso   1.000  H
  C7       1.0000 0.16830  0.94500  0.96240  Biso   1.000  C
  C8       1.0000 0.10420  0.43840  0.21660  Biso   1.000  C
  H6       1.0000 0.07280  0.45660  0.23190  Biso   1.000  H
  C9       1.0000 0.17070  0.37360  0.19440  Biso   1.000  C
  C10      1.0000 0.21410  0.32180  0.18590  Biso   1.000  C
  H7       1.0000 0.21720  0.28580  0.20120  Biso   1.000  H
  C11      1.0000 0.24940  0.32930  0.15460  Biso   1.000  C
  H8       1.0000 0.27470  0.29550  0.14640  Biso   1.000  H
  C12      1.0000 0.25000  0.38200  0.13490  Biso   1.000  C
  H9       1.0000 0.28110  0.38720  0.11640  Biso   1.000  H
  C13      1.0000 0.20780  0.42980  0.14000  Biso   1.000  C
  H10      1.0000 0.20570  0.46510  0.12400  Biso   1.000  H
  C14      1.0000 0.16960  0.42240  0.16940  Biso   1.000  C
  In11     1.0000 0.42728  0.16262  0.55048  Biso   1.000  In
  In12     1.0000 0.41252  0.31031  0.60546  Biso   1.000  In
  In13     1.0000 0.57650  0.25519  0.55273  Biso   1.000  In
  In14     1.0000 0.51041  0.15624  0.64101  Biso   1.000  In
  In15     1.0000 0.42064  0.45196  0.66271  Biso   1.000  In
  In16     1.0000 0.57088  0.41647  0.61342  Biso   1.000  In
  In17     1.0000 0.50943  0.31653  0.70300  Biso   1.000  In
  In18     1.0000 0.71710  0.35771  0.56845  Biso   1.000  In
  In19     1.0000 0.67161  0.26339  0.65038  Biso   1.000  In
  In20     1.0000 0.60281  0.17507  0.72940  Biso   1.000  In
  S17      1.0000 0.35340  0.24630  0.56327  Biso   1.000  S
  S18      1.0000 0.51420  0.19340  0.51076  Biso   1.000  S
  S19      1.0000 0.45010  0.09030  0.60009  Biso   1.000  S
  S20      1.0000 0.34730  0.39720  0.62320  Biso   1.000  S
  S21      1.0000 0.50940  0.34630  0.57198  Biso   1.000  S
  S22      1.0000 0.44490  0.24810  0.66130  Biso   1.000  S
  S23      1.0000 0.66810  0.29330  0.52044  Biso   1.000  S
  S24      1.0000 0.60810  0.19430  0.60853  Biso   1.000  S
  S25      1.0000 0.54310  0.09810  0.69486  Biso   1.000  S
  S26      1.0000 0.50570  0.50360  0.63042  Biso   1.000  S
  S27      1.0000 0.44670  0.40410  0.72215  Biso   1.000  S
  S28      1.0000 0.66160  0.45510  0.58049  Biso   1.000  S
  S29      1.0000 0.60510  0.35430  0.66851  Biso   1.000  S
  S30      1.0000 0.54360  0.25990  0.75701  Biso   1.000  S
  S31      1.0000 0.76390  0.30510  0.62033  Biso   1.000  S
  S32      1.0000 0.70410  0.20570  0.70448  Biso   1.000  S
  N5       1.0000 0.36950  0.11280  0.51060  Biso   1.000  N
  N6       1.0000 0.29780  0.10990  0.46330  Biso   1.000  N
  N7       1.0000 0.37300  0.53370  0.68490  Biso   1.000  N
  N8       1.0000 0.36950  0.61640  0.72360  Biso   1.000  N
  C15      1.0000 0.32110  0.14160  0.49220  Biso   1.000  C
  H11      1.0000 0.30530  0.18120  0.49950  Biso   1.000  H
  C16      1.0000 0.37760  0.05690  0.48960  Biso   1.000  C
  C17      1.0000 0.42160  0.00980  0.49440  Biso   1.000  C
  H12      1.0000 0.45320  0.01280  0.51290  Biso   1.000  H
  C18      1.0000 0.41820  0.95910  0.47160  Biso   1.000  C
  H13      1.0000 0.44410  0.92380  0.47630  Biso   1.000  H
  C19      1.0000 0.37610  0.95860  0.44090  Biso   1.000  C
  H14      1.0000 0.37760  0.92520  0.42360  Biso   1.000  H
  C20      1.0000 0.33270  0.00690  0.43590  Biso   1.000  C
  H15      1.0000 0.30480  0.00720  0.41530  Biso   1.000  H
  C21      1.0000 0.33170  0.05500  0.46240  Biso   1.000  C
  C22      1.0000 0.39580  0.56160  0.71660  Biso   1.000  C
  H16      1.0000 0.42720  0.54340  0.73190  Biso   1.000  H
  C23      1.0000 0.32930  0.62640  0.69440  Biso   1.000  C
  C24      1.0000 0.28590  0.67820  0.68590  Biso   1.000  C
  H17      1.0000 0.28280  0.71420  0.70120  Biso   1.000  H
  C25      1.0000 0.25060  0.67070  0.65460  Biso   1.000  C
  H18      1.0000 0.22530  0.70450  0.64640  Biso   1.000  H
  C26      1.0000 0.25000  0.61800  0.63490  Biso   1.000  C
  H19      1.0000 0.21890  0.61280  0.61640  Biso   1.000  H
  C27      1.0000 0.29220  0.57020  0.64000  Biso   1.000  C
  H20      1.0000 0.29430  0.53490  0.62400  Biso   1.000  H
  C28      1.0000 0.33040  0.57760  0.66940  Biso   1.000  C
  In21     1.0000 0.92728  0.33738  0.44952  Biso   1.000  In
  In22     1.0000 0.91252  0.18969  0.39454  Biso   1.000  In
  In23     1.0000 0.07650  0.24481  0.44727  Biso   1.000  In
  In24     1.0000 0.01041  0.34376  0.35899  Biso   1.000  In
  In25     1.0000 0.92064  0.04804  0.33729  Biso   1.000  In
  In26     1.0000 0.07088  0.08353  0.38658  Biso   1.000  In
  In27     1.0000 0.00943  0.18347  0.29700  Biso   1.000  In
  In28     1.0000 0.21710  0.14229  0.43155  Biso   1.000  In
  In29     1.0000 0.17161  0.23661  0.34962  Biso   1.000  In
  In30     1.0000 0.10281  0.32493  0.27060  Biso   1.000  In
  S33      1.0000 0.85340  0.25370  0.43673  Biso   1.000  S
  S34      1.0000 0.01420  0.30660  0.48924  Biso   1.000  S
  S35      1.0000 0.95010  0.40970  0.39991  Biso   1.000  S
  S36      1.0000 0.84730  0.10280  0.37680  Biso   1.000  S
  S37      1.0000 0.00940  0.15370  0.42802  Biso   1.000  S
  S38      1.0000 0.94490  0.25190  0.33870  Biso   1.000  S
  S39      1.0000 0.16810  0.20670  0.47956  Biso   1.000  S
  S40      1.0000 0.10810  0.30570  0.39147  Biso   1.000  S
  S41      1.0000 0.04310  0.40190  0.30514  Biso   1.000  S
  S42      1.0000 0.00570  0.99640  0.36958  Biso   1.000  S
  S43      1.0000 0.94670  0.09590  0.27785  Biso   1.000  S
  S44      1.0000 0.16160  0.04490  0.41951  Biso   1.000  S
  S45      1.0000 0.10510  0.14570  0.33149  Biso   1.000  S
  S46      1.0000 0.04360  0.24010  0.24299  Biso   1.000  S
  S47      1.0000 0.26390  0.19490  0.37967  Biso   1.000  S
  S48      1.0000 0.20410  0.29430  0.29552  Biso   1.000  S
  N9       1.0000 0.86950  0.38720  0.48940  Biso   1.000  N
  N10      1.0000 0.79780  0.39010  0.53670  Biso   1.000  N
  N11      1.0000 0.87300  0.96630  0.31510  Biso   1.000  N
  N12      1.0000 0.86950  0.88360  0.27640  Biso   1.000  N
  C29      1.0000 0.82110  0.35840  0.50780  Biso   1.000  C
  H21      1.0000 0.80530  0.31880  0.50050  Biso   1.000  H
  C30      1.0000 0.87760  0.44310  0.51040  Biso   1.000  C
  C31      1.0000 0.92160  0.49020  0.50560  Biso   1.000  C
  H22      1.0000 0.95320  0.48720  0.48710  Biso   1.000  H
  C32      1.0000 0.91820  0.54090  0.52840  Biso   1.000  C
  H23      1.0000 0.94410  0.57620  0.52370  Biso   1.000  H
  C33      1.0000 0.87610  0.54140  0.55910  Biso   1.000  C
  H24      1.0000 0.87760  0.57480  0.57640  Biso   1.000  H
  C34      1.0000 0.83270  0.49310  0.56410  Biso   1.000  C
  H25      1.0000 0.80480  0.49280  0.58470  Biso   1.000  H
  C35      1.0000 0.83170  0.44500  0.53760  Biso   1.000  C
  C36      1.0000 0.89580  0.93840  0.28340  Biso   1.000  C
  H26      1.0000 0.92720  0.95660  0.26810  Biso   1.000  H
  C37      1.0000 0.82930  0.87360  0.30560  Biso   1.000  C
  C38      1.0000 0.78590  0.82180  0.31410  Biso   1.000  C
  H27      1.0000 0.78280  0.78580  0.29880  Biso   1.000  H
  C39      1.0000 0.75060  0.82930  0.34540  Biso   1.000  C
  H28      1.0000 0.72530  0.79550  0.35360  Biso   1.000  H
  C40      1.0000 0.75000  0.88200  0.36510  Biso   1.000  C
  H29      1.0000 0.71890  0.88720  0.38360  Biso   1.000  H
  C41      1.0000 0.79220  0.92980  0.36000  Biso   1.000  C
  H30      1.0000 0.79430  0.96510  0.37600  Biso   1.000  H
  C42      1.0000 0.83040  0.92240  0.33060  Biso   1.000  C
  In31     1.0000 0.57272  0.66262  0.94952  Biso   1.000  In
  In32     1.0000 0.58748  0.81031  0.89454  Biso   1.000  In
  In33     1.0000 0.42350  0.75519  0.94727  Biso   1.000  In
  In34     1.0000 0.48959  0.65624  0.85899  Biso   1.000  In
  In35     1.0000 0.57936  0.95196  0.83729  Biso   1.000  In
  In36     1.0000 0.42912  0.91647  0.88658  Biso   1.000  In
  In37     1.0000 0.49057  0.81653  0.79700  Biso   1.000  In
  In38     1.0000 0.28290  0.85771  0.93155  Biso   1.000  In
  In39     1.0000 0.32839  0.76339  0.84962  Biso   1.000  In
  In40     1.0000 0.39719  0.67507  0.77060  Biso   1.000  In
  S49      1.0000 0.64660  0.74630  0.93673  Biso   1.000  S
  S50      1.0000 0.48580  0.69340  0.98924  Biso   1.000  S
  S51      1.0000 0.54990  0.59030  0.89991  Biso   1.000  S
  S52      1.0000 0.65270  0.89720  0.87680  Biso   1.000  S
  S53      1.0000 0.49060  0.84630  0.92802  Biso   1.000  S
  S54      1.0000 0.55510  0.74810  0.83870  Biso   1.000  S
  S55      1.0000 0.33190  0.79330  0.97956  Biso   1.000  S
  S56      1.0000 0.39190  0.69430  0.89147  Biso   1.000  S
  S57      1.0000 0.45690  0.59810  0.80514  Biso   1.000  S
  S58      1.0000 0.49430  0.00360  0.86958  Biso   1.000  S
  S59      1.0000 0.55330  0.90410  0.77785  Biso   1.000  S
  S60      1.0000 0.33840  0.95510  0.91951  Biso   1.000  S
  S61      1.0000 0.39490  0.85430  0.83149  Biso   1.000  S
  S62      1.0000 0.45640  0.75990  0.74299  Biso   1.000  S
  S63      1.0000 0.23610  0.80510  0.87967  Biso   1.000  S
  S64      1.0000 0.29590  0.70570  0.79552  Biso   1.000  S
  N13      1.0000 0.63050  0.61280  0.98940  Biso   1.000  N
  N14      1.0000 0.70220  0.60990  0.03670  Biso   1.000  N
  N15      1.0000 0.62700  0.03370  0.81510  Biso   1.000  N
  N16      1.0000 0.63050  0.11640  0.77640  Biso   1.000  N
  C43      1.0000 0.67890  0.64160  0.00780  Biso   1.000  C
  H31      1.0000 0.69470  0.68120  0.00050  Biso   1.000  H
  C44      1.0000 0.62240  0.55690  0.01040  Biso   1.000  C
  C45      1.0000 0.57840  0.50980  0.00560  Biso   1.000  C
  H32      1.0000 0.54680  0.51280  0.98710  Biso   1.000  H
  C46      1.0000 0.58180  0.45910  0.02840  Biso   1.000  C
  H33      1.0000 0.55590  0.42380  0.02370  Biso   1.000  H
  C47      1.0000 0.62390  0.45860  0.05910  Biso   1.000  C
  H34      1.0000 0.62240  0.42520  0.07640  Biso   1.000  H
  C48      1.0000 0.66730  0.50690  0.06410  Biso   1.000  C
  H35      1.0000 0.69520  0.50720  0.08470  Biso   1.000  H
  C49      1.0000 0.66830  0.55500  0.03760  Biso   1.000  C
  C50      1.0000 0.60420  0.06160  0.78340  Biso   1.000  C
  H36      1.0000 0.57280  0.04340  0.76810  Biso   1.000  H
  C51      1.0000 0.67070  0.12640  0.80560  Biso   1.000  C
  C52      1.0000 0.71410  0.17820  0.81410  Biso   1.000  C
  H37      1.0000 0.71720  0.21420  0.79880  Biso   1.000  H
  C53      1.0000 0.74940  0.17070  0.84540  Biso   1.000  C
  H38      1.0000 0.77470  0.20450  0.85360  Biso   1.000  H
  C54      1.0000 0.75000  0.11800  0.86510  Biso   1.000  C
  H39      1.0000 0.78110  0.11280  0.88360  Biso   1.000  H
  C55      1.0000 0.70780  0.07020  0.86000  Biso   1.000  C
  H40      1.0000 0.70570  0.03490  0.87600  Biso   1.000  H
  C56      1.0000 0.66960  0.07760  0.83060  Biso   1.000  C
  In41     1.0000 0.90422  0.43969  0.82318  Biso   1.000  In
  In42     1.0000 0.89403  0.30634  0.88892  Biso   1.000  In
  In43     1.0000 0.04847  0.42049  0.88354  Biso   1.000  In
  In44     1.0000 0.00585  0.30576  0.79535  Biso   1.000  In
  In45     1.0000 0.90435  0.16689  0.94985  Biso   1.000  In
  In46     1.0000 0.04725  0.26817  0.95298  Biso   1.000  In
  In47     1.0000 0.00502  0.15434  0.86565  Biso   1.000  In
  In48     1.0000 0.18308  0.37657  0.94148  Biso   1.000  In
  In49     1.0000 0.15837  0.27003  0.85975  Biso   1.000  In
  In50     1.0000 0.11051  0.16593  0.78272  Biso   1.000  In
  S65      1.0000 0.82760  0.38560  0.86055  Biso   1.000  S
  S66      1.0000 0.98220  0.50020  0.85663  Biso   1.000  S
  S67      1.0000 0.94150  0.38630  0.76773  Biso   1.000  S
  S68      1.0000 0.83040  0.24670  0.93110  Biso   1.000  S
  S69      1.0000 0.98220  0.35430  0.92546  Biso   1.000  S
  S70      1.0000 0.93990  0.24090  0.83806  Biso   1.000  S
  S71      1.0000 0.13260  0.46910  0.91755  Biso   1.000  S
  S72      1.0000 0.09240  0.35490  0.83181  Biso   1.000  S
  S73      1.0000 0.04790  0.23970  0.74682  Biso   1.000  S
  S74      1.0000 0.98580  0.20100  0.99240  Biso   1.000  S
  S75      1.0000 0.93720  0.09190  0.90423  Biso   1.000  S
  S76      1.0000 0.12890  0.31710  0.98882  Biso   1.000  S
  S77      1.0000 0.09270  0.20360  0.90195  Biso   1.000  S
  S78      1.0000 0.05160  0.09040  0.81830  Biso   1.000  S
  S79      1.0000 0.24080  0.31690  0.89591  Biso   1.000  S
  S80      1.0000 0.20390  0.20830  0.81088  Biso   1.000  S
  N17      1.0000 0.85400  0.51760  0.79680  Biso   1.000  N
  N18      1.0000 0.85260  0.60300  0.76070  Biso   1.000  N
  N19      1.0000 0.84360  0.11090  0.98530  Biso   1.000  N
  N20      1.0000 0.76160  0.09250  0.02300  Biso   1.000  N
  C57      1.0000 0.88180  0.55360  0.77180  Biso   1.000  C
  H41      1.0000 0.92210  0.54340  0.76230  Biso   1.000  H
  C58      1.0000 0.79860  0.54870  0.80300  Biso   1.000  C
  C59      1.0000 0.75100  0.53520  0.82890  Biso   1.000  C
  H42      1.0000 0.75330  0.50070  0.84540  Biso   1.000  H
  C60      1.0000 0.69860  0.57750  0.82840  Biso   1.000  C
  H43      1.0000 0.66280  0.56800  0.84300  Biso   1.000  H
  C61      1.0000 0.69830  0.63300  0.80680  Biso   1.000  C
  H44      1.0000 0.66730  0.66450  0.81010  Biso   1.000  H
  C62      1.0000 0.74530  0.63850  0.78110  Biso   1.000  C
  H45      1.0000 0.74170  0.67020  0.76280  Biso   1.000  H
  C63      1.0000 0.79490  0.60240  0.78020  Biso   1.000  C
  C64      1.0000 0.78800  0.13010  0.99840  Biso   1.000  C
  H46      1.0000 0.76890  0.16800  0.99060  Biso   1.000  H
  C65      1.0000 0.85860  0.05970  0.00720  Biso   1.000  C
  C66      1.0000 0.90880  0.02180  0.00560  Biso   1.000  C
  H47      1.0000 0.94130  0.02790  0.98790  Biso   1.000  H
  C67      1.0000 0.91100  0.97270  0.03150  Biso   1.000  C
  H48      1.0000 0.94710  0.94670  0.03280  Biso   1.000  H
  C68      1.0000 0.86100  0.96220  0.05470  Biso   1.000  C
  H49      1.0000 0.86310  0.92860  0.07190  Biso   1.000  H
  C69      1.0000 0.80790  0.99870  0.05400  Biso   1.000  C
  H50      1.0000 0.77340  0.99000  0.07000  Biso   1.000  H
  C70      1.0000 0.80620  0.04780  0.02980  Biso   1.000  C
  In51     1.0000 0.59578  0.56031  0.32318  Biso   1.000  In
  In52     1.0000 0.60597  0.69366  0.38892  Biso   1.000  In
  In53     1.0000 0.45153  0.57951  0.38354  Biso   1.000  In
  In54     1.0000 0.49415  0.69424  0.29535  Biso   1.000  In
  In55     1.0000 0.59565  0.83311  0.44985  Biso   1.000  In
  In56     1.0000 0.45275  0.73183  0.45298  Biso   1.000  In
  In57     1.0000 0.49498  0.84566  0.36565  Biso   1.000  In
  In58     1.0000 0.31692  0.62343  0.44148  Biso   1.000  In
  In59     1.0000 0.34163  0.72997  0.35975  Biso   1.000  In
  In60     1.0000 0.38949  0.83407  0.28272  Biso   1.000  In
  S81      1.0000 0.67240  0.61440  0.36055  Biso   1.000  S
  S82      1.0000 0.51780  0.49980  0.35663  Biso   1.000  S
  S83      1.0000 0.55850  0.61370  0.26773  Biso   1.000  S
  S84      1.0000 0.66960  0.75330  0.43110  Biso   1.000  S
  S85      1.0000 0.51780  0.64570  0.42546  Biso   1.000  S
  S86      1.0000 0.56010  0.75910  0.33806  Biso   1.000  S
  S87      1.0000 0.36740  0.53090  0.41755  Biso   1.000  S
  S88      1.0000 0.40760  0.64510  0.33181  Biso   1.000  S
  S89      1.0000 0.45210  0.76030  0.24682  Biso   1.000  S
  S90      1.0000 0.51420  0.79900  0.49240  Biso   1.000  S
  S91      1.0000 0.56280  0.90810  0.40423  Biso   1.000  S
  S92      1.0000 0.37110  0.68290  0.48882  Biso   1.000  S
  S93      1.0000 0.40730  0.79640  0.40195  Biso   1.000  S
  S94      1.0000 0.44840  0.90960  0.31830  Biso   1.000  S
  S95      1.0000 0.25920  0.68310  0.39591  Biso   1.000  S
  S96      1.0000 0.29610  0.79170  0.31088  Biso   1.000  S
  N21      1.0000 0.64600  0.48240  0.29680  Biso   1.000  N
  N22      1.0000 0.64740  0.39700  0.26070  Biso   1.000  N
  N23      1.0000 0.65640  0.88910  0.48530  Biso   1.000  N
  N24      1.0000 0.73840  0.90750  0.52300  Biso   1.000  N
  C71      1.0000 0.61820  0.44640  0.27180  Biso   1.000  C
  H51      1.0000 0.57790  0.45660  0.26230  Biso   1.000  H
  C72      1.0000 0.70140  0.45130  0.30300  Biso   1.000  C
  C73      1.0000 0.74900  0.46480  0.32890  Biso   1.000  C
  H52      1.0000 0.74670  0.49930  0.34540  Biso   1.000  H
  C74      1.0000 0.80140  0.42250  0.32840  Biso   1.000  C
  H53      1.0000 0.83720  0.43200  0.34300  Biso   1.000  H
  C75      1.0000 0.80170  0.36700  0.30680  Biso   1.000  C
  H54      1.0000 0.83270  0.33550  0.31010  Biso   1.000  H
  C76      1.0000 0.75470  0.36150  0.28110  Biso   1.000  C
  H55      1.0000 0.75830  0.32980  0.26280  Biso   1.000  H
  C77      1.0000 0.70510  0.39760  0.28020  Biso   1.000  C
  C78      1.0000 0.71200  0.86990  0.49840  Biso   1.000  C
  H56      1.0000 0.73110  0.83200  0.49060  Biso   1.000  H
  C79      1.0000 0.64140  0.94030  0.50720  Biso   1.000  C
  C80      1.0000 0.59120  0.97820  0.50560  Biso   1.000  C
  H57      1.0000 0.55870  0.97210  0.48790  Biso   1.000  H
  C81      1.0000 0.58900  0.02730  0.53150  Biso   1.000  C
  H58      1.0000 0.55290  0.05330  0.53280  Biso   1.000  H
  C82      1.0000 0.63900  0.03780  0.55470  Biso   1.000  C
  H59      1.0000 0.63690  0.07140  0.57190  Biso   1.000  H
  C83      1.0000 0.69210  0.00130  0.55400  Biso   1.000  C
  H60      1.0000 0.72660  0.01000  0.57000  Biso   1.000  H
  C84      1.0000 0.69380  0.95220  0.52980  Biso   1.000  C
  In61     1.0000 0.09578  0.93969  0.67682  Biso   1.000  In
  In62     1.0000 0.10597  0.80634  0.61108  Biso   1.000  In
  In63     1.0000 0.95153  0.92049  0.61646  Biso   1.000  In
  In64     1.0000 0.99415  0.80576  0.70465  Biso   1.000  In
  In65     1.0000 0.09565  0.66689  0.55015  Biso   1.000  In
  In66     1.0000 0.95275  0.76817  0.54702  Biso   1.000  In
  In67     1.0000 0.99498  0.65434  0.63435  Biso   1.000  In
  In68     1.0000 0.81692  0.87657  0.55852  Biso   1.000  In
  In69     1.0000 0.84163  0.77003  0.64025  Biso   1.000  In
  In70     1.0000 0.88949  0.66593  0.71728  Biso   1.000  In
  S97      1.0000 0.17240  0.88560  0.63945  Biso   1.000  S
  S98      1.0000 0.01780  0.00020  0.64337  Biso   1.000  S
  S99      1.0000 0.05850  0.88630  0.73227  Biso   1.000  S
  S100     1.0000 0.16960  0.74670  0.56890  Biso   1.000  S
  S101     1.0000 0.01780  0.85430  0.57454  Biso   1.000  S
  S102     1.0000 0.06010  0.74090  0.66194  Biso   1.000  S
  S103     1.0000 0.86740  0.96910  0.58245  Biso   1.000  S
  S104     1.0000 0.90760  0.85490  0.66819  Biso   1.000  S
  S105     1.0000 0.95210  0.73970  0.75318  Biso   1.000  S
  S106     1.0000 0.01420  0.70100  0.50760  Biso   1.000  S
  S107     1.0000 0.06280  0.59190  0.59577  Biso   1.000  S
  S108     1.0000 0.87110  0.81710  0.51118  Biso   1.000  S
  S109     1.0000 0.90730  0.70360  0.59805  Biso   1.000  S
  S110     1.0000 0.94840  0.59040  0.68170  Biso   1.000  S
  S111     1.0000 0.75920  0.81690  0.60409  Biso   1.000  S
  S112     1.0000 0.79610  0.70830  0.68912  Biso   1.000  S
  N25      1.0000 0.14600  0.01760  0.70320  Biso   1.000  N
  N26      1.0000 0.14740  0.10300  0.73930  Biso   1.000  N
  N27      1.0000 0.15640  0.61090  0.51470  Biso   1.000  N
  N28      1.0000 0.23840  0.59250  0.47700  Biso   1.000  N
  C85      1.0000 0.11820  0.05360  0.72820  Biso   1.000  C
  H61      1.0000 0.07790  0.04340  0.73770  Biso   1.000  H
  C86      1.0000 0.20140  0.04870  0.69700  Biso   1.000  C
  C87      1.0000 0.24900  0.03520  0.67110  Biso   1.000  C
  H62      1.0000 0.24670  0.00070  0.65460  Biso   1.000  H
  C88      1.0000 0.30140  0.07750  0.67160  Biso   1.000  C
  H63      1.0000 0.33720  0.06800  0.65700  Biso   1.000  H
  C89      1.0000 0.30170  0.13300  0.69320  Biso   1.000  C
  H64      1.0000 0.33270  0.16450  0.68990  Biso   1.000  H
  C90      1.0000 0.25470  0.13850  0.71890  Biso   1.000  C
  H65      1.0000 0.25830  0.17020  0.73720  Biso   1.000  H
  C91      1.0000 0.20510  0.10240  0.71980  Biso   1.000  C
  C92      1.0000 0.21200  0.63010  0.50160  Biso   1.000  C
  H66      1.0000 0.23110  0.66800  0.50940  Biso   1.000  H
  C93      1.0000 0.14140  0.55970  0.49280  Biso   1.000  C
  C94      1.0000 0.09120  0.52180  0.49440  Biso   1.000  C
  H67      1.0000 0.05870  0.52790  0.51210  Biso   1.000  H
  C95      1.0000 0.08900  0.47270  0.46850  Biso   1.000  C
  H68      1.0000 0.05290  0.44670  0.46720  Biso   1.000  H
  C96      1.0000 0.13900  0.46220  0.44530  Biso   1.000  C
  H69      1.0000 0.13690  0.42860  0.42810  Biso   1.000  H
  C97      1.0000 0.19210  0.49870  0.44600  Biso   1.000  C
  H70      1.0000 0.22660  0.49000  0.43000  Biso   1.000  H
  C98      1.0000 0.19380  0.54780  0.47020  Biso   1.000  C
  In71     1.0000 0.40422  0.06031  0.17682  Biso   1.000  In
  In72     1.0000 0.39403  0.19366  0.11108  Biso   1.000  In
  In73     1.0000 0.54847  0.07951  0.11646  Biso   1.000  In
  In74     1.0000 0.50585  0.19424  0.20465  Biso   1.000  In
  In75     1.0000 0.40435  0.33311  0.05015  Biso   1.000  In
  In76     1.0000 0.54725  0.23183  0.04702  Biso   1.000  In
  In77     1.0000 0.50502  0.34566  0.13435  Biso   1.000  In
  In78     1.0000 0.68308  0.12343  0.05852  Biso   1.000  In
  In79     1.0000 0.65837  0.22997  0.14025  Biso   1.000  In
  In80     1.0000 0.61051  0.33407  0.21728  Biso   1.000  In
  S113     1.0000 0.32760  0.11440  0.13945  Biso   1.000  S
  S114     1.0000 0.48220  0.99980  0.14337  Biso   1.000  S
  S115     1.0000 0.44150  0.11370  0.23227  Biso   1.000  S
  S116     1.0000 0.33040  0.25330  0.06890  Biso   1.000  S
  S117     1.0000 0.48220  0.14570  0.07454  Biso   1.000  S
  S118     1.0000 0.43990  0.25910  0.16194  Biso   1.000  S
  S119     1.0000 0.63260  0.03090  0.08245  Biso   1.000  S
  S120     1.0000 0.59240  0.14510  0.16819  Biso   1.000  S
  S121     1.0000 0.54790  0.26030  0.25318  Biso   1.000  S
  S122     1.0000 0.48580  0.29900  0.00760  Biso   1.000  S
  S123     1.0000 0.43720  0.40810  0.09577  Biso   1.000  S
  S124     1.0000 0.62890  0.18290  0.01118  Biso   1.000  S
  S125     1.0000 0.59270  0.29640  0.09805  Biso   1.000  S
  S126     1.0000 0.55160  0.40960  0.18170  Biso   1.000  S
  S127     1.0000 0.74080  0.18310  0.10409  Biso   1.000  S
  S128     1.0000 0.70390  0.29170  0.18912  Biso   1.000  S
  N29      1.0000 0.35400  0.98240  0.20320  Biso   1.000  N
  N30      1.0000 0.35260  0.89700  0.23930  Biso   1.000  N
  N31      1.0000 0.34360  0.38910  0.01470  Biso   1.000  N
  N32      1.0000 0.26160  0.40750  0.97700  Biso   1.000  N
  C99      1.0000 0.38180  0.94640  0.22820  Biso   1.000  C
  H71      1.0000 0.42210  0.95660  0.23770  Biso   1.000  H
  C100     1.0000 0.29860  0.95130  0.19700  Biso   1.000  C
  C101     1.0000 0.25100  0.96480  0.17110  Biso   1.000  C
  H72      1.0000 0.25330  0.99930  0.15460  Biso   1.000  H
  C102     1.0000 0.19860  0.92250  0.17160  Biso   1.000  C
  H73      1.0000 0.16280  0.93200  0.15700  Biso   1.000  H
  C103     1.0000 0.19830  0.86700  0.19320  Biso   1.000  C
  H74      1.0000 0.16730  0.83550  0.18990  Biso   1.000  H
  C104     1.0000 0.24530  0.86150  0.21890  Biso   1.000  C
  H75      1.0000 0.24170  0.82980  0.23720  Biso   1.000  H
  C105     1.0000 0.29490  0.89760  0.21980  Biso   1.000  C
  C106     1.0000 0.28800  0.36990  0.00160  Biso   1.000  C
  H76      1.0000 0.26890  0.33200  0.00940  Biso   1.000  H
  C107     1.0000 0.35860  0.44030  0.99280  Biso   1.000  C
  C108     1.0000 0.40880  0.47820  0.99440  Biso   1.000  C
  H77      1.0000 0.44130  0.47210  0.01210  Biso   1.000  H
  C109     1.0000 0.41100  0.52730  0.96850  Biso   1.000  C
  H78      1.0000 0.44710  0.55330  0.96720  Biso   1.000  H
  C110     1.0000 0.36100  0.53780  0.94530  Biso   1.000  C
  H79      1.0000 0.36310  0.57140  0.92810  Biso   1.000  H
  C111     1.0000 0.30790  0.50130  0.94600  Biso   1.000  C
  H80      1.0000 0.27340  0.51000  0.93000  Biso   1.000  H
  C112     1.0000 0.30620  0.45220  0.97020  Biso   1.000  C
