data_EMIHEO_charged
_audit_creation_date              2014-07-02
_audit_creation_method            'Materials Studio'
_symmetry_space_group_name_H-M    'P1'
_symmetry_Int_Tables_number       1
_symmetry_cell_setting            triclinic
loop_
_symmetry_equiv_pos_as_xyz
  x,y,z
_cell_length_a                    16.6160
_cell_length_b                    23.3163
_cell_length_c                    23.3163
_cell_angle_alpha                 82.7059
_cell_angle_beta                  69.1258
_cell_angle_gamma                 69.1259
loop_
_atom_site_label
_atom_site_type_symbol
_atom_site_fract_x
_atom_site_fract_y
_atom_site_fract_z
_atom_site_U_iso_or_equiv
_atom_site_adp_type
_atom_site_occupancy
Cd1    Cd    0.84977   0.08312   0.04440   0.01267  Uiso   1.00
Cd2    Cd    0.97729   0.91688   0.95560   0.01267  Uiso   1.00
Cd3    Cd    0.10583   0.04440   0.91688   0.01267  Uiso   1.00
Cd4    Cd    0.06711   0.95560   0.08312   0.01267  Uiso   1.00
Cd5    Cd    0.27271   0.54440   0.58312   0.01267  Uiso   1.00
Cd6    Cd    0.40023   0.45560   0.41688   0.01267  Uiso   1.00
Cd7    Cd    0.18289   0.41688   0.54440   0.01267  Uiso   1.00
Cd8    Cd    0.14417   0.58312   0.45560   0.01267  Uiso   1.00
In1    In    0.72502   0.95911   0.08029   0.01267  Uiso   1.00
In2    In    0.97803   0.20658   0.00382   0.01267  Uiso   1.00
In3    In    0.94151   0.11842   0.16856   0.01267  Uiso   1.00
In4    In    0.70242   0.87877   0.23159   0.01267  Uiso   1.00
In5    In    0.76442   0.04089   0.91971   0.01267  Uiso   1.00
In6    In    0.18843   0.79342   0.99618   0.01267  Uiso   1.00
In7    In    0.22849   0.88158   0.83144   0.01267  Uiso   1.00
In8    In    0.81278   0.12123   0.76841   0.01267  Uiso   1.00
In9    In    0.19469   0.08029   0.04089   0.01267  Uiso   1.00
In10   In    0.01815   0.00382   0.79342   0.01267  Uiso   1.00
In11   In    0.88993   0.16856   0.88158   0.01267  Uiso   1.00
In12   In    0.06599   0.23159   0.12123   0.01267  Uiso   1.00
In13   In    0.31587   0.91971   0.95911   0.01267  Uiso   1.00
In14   In    0.81539   0.99618   0.20658   0.01267  Uiso   1.00
In15   In    0.94007   0.83144   0.11842   0.01267  Uiso   1.00
In16   In    0.41881   0.76841   0.87877   0.01267  Uiso   1.00
In17   In    0.48558   0.58029   0.45911   0.01267  Uiso   1.00
In18   In    0.06157   0.50382   0.70658   0.01267  Uiso   1.00
In19   In    0.02151   0.66856   0.61842   0.01267  Uiso   1.00
In20   In    0.43722   0.73159   0.37877   0.01267  Uiso   1.00
In21   In    0.52498   0.41971   0.54089   0.01267  Uiso   1.00
In22   In    0.27197   0.49618   0.29342   0.01267  Uiso   1.00
In23   In    0.30849   0.33144   0.38158   0.01267  Uiso   1.00
In24   In    0.54758   0.26841   0.62123   0.01267  Uiso   1.00
In25   In    0.93413   0.54089   0.58029   0.01267  Uiso   1.00
In26   In    0.43461   0.29342   0.50382   0.01267  Uiso   1.00
In27   In    0.30993   0.38158   0.66856   0.01267  Uiso   1.00
In28   In    0.83119   0.62123   0.73159   0.01267  Uiso   1.00
In29   In    0.05531   0.45911   0.41971   0.01267  Uiso   1.00
In30   In    0.23185   0.70658   0.49618   0.01267  Uiso   1.00
In31   In    0.36007   0.61842   0.33144   0.01267  Uiso   1.00
In32   In    0.18401   0.37877   0.26841   0.01267  Uiso   1.00
H1     H     0.52940   0.92500   0.35740   0.01267  Uiso   1.00
H2     H     0.81180   0.07500   0.64260   0.01267  Uiso   1.00
H3     H     0.11320   0.35740   0.07500   0.01267  Uiso   1.00
H4     H     0.54560   0.64260   0.92500   0.01267  Uiso   1.00
H5     H     0.43820   0.85740   0.42500   0.01267  Uiso   1.00
H6     H     0.72060   0.14260   0.57500   0.01267  Uiso   1.00
H7     H     0.70440   0.57500   0.85740   0.01267  Uiso   1.00
H8     H     0.13680   0.42500   0.14260   0.01267  Uiso   1.00
C1     C     0.53700   0.88550   0.34850   0.01267  Uiso   1.00
C2     C     0.77100   0.11450   0.65150   0.01267  Uiso   1.00
C3     C     0.11450   0.34850   0.11450   0.01267  Uiso   1.00
C4     C     0.57750   0.65150   0.88550   0.01267  Uiso   1.00
C5     C     0.47900   0.84850   0.38550   0.01267  Uiso   1.00
C6     C     0.71300   0.15150   0.61450   0.01267  Uiso   1.00
C7     C     0.67250   0.61450   0.84850   0.01267  Uiso   1.00
C8     C     0.13550   0.38550   0.15150   0.01267  Uiso   1.00
C9     C     0.56800   0.80700   0.30700   0.01267  Uiso   1.00
C10    C     0.68200   0.19300   0.69300   0.01267  Uiso   1.00
C11    C     0.12500   0.30700   0.19300   0.01267  Uiso   1.00
C12    C     0.62500   0.69300   0.80700   0.01267  Uiso   1.00
S1     S     0.87120   0.16580   0.08780   0.01267  Uiso   1.00
S2     S     0.74330   0.04170   0.12770   0.01267  Uiso   1.00
S3     S     0.78010   0.12740   0.96320   0.01267  Uiso   1.00
S4     S     0.62160   0.91820   0.15980   0.01267  Uiso   1.00
S5     S     0.96350   0.19880   0.21140   0.01267  Uiso   1.00
S6     S     0.91090   0.24940   0.92480   0.01267  Uiso   1.00
S7     S     0.99800   0.28810   0.04570   0.01267  Uiso   1.00
S8     S     0.12480   0.83420   0.91220   0.01267  Uiso   1.00
S9     S     0.91270   0.95830   0.87230   0.01267  Uiso   1.00
S10    S     0.87070   0.87260   0.03680   0.01267  Uiso   1.00
S11    S     0.69960   0.08180   0.84020   0.01267  Uiso   1.00
S12    S     0.37370   0.80120   0.78860   0.01267  Uiso   1.00
S13    S     0.08510   0.75060   0.07520   0.01267  Uiso   1.00
S14    S     0.33180   0.71190   0.95430   0.01267  Uiso   1.00
S15    S     0.04100   0.08780   0.83420   0.01267  Uiso   1.00
S16    S     0.12900   0.12770   0.95830   0.01267  Uiso   1.00
S17    S     0.25670   0.96320   0.87260   0.01267  Uiso   1.00
S18    S     0.21860   0.15980   0.08180   0.01267  Uiso   1.00
S19    S     0.82510   0.21140   0.80120   0.01267  Uiso   1.00
S20    S     0.16430   0.92480   0.75060   0.01267  Uiso   1.00
S21    S     0.95630   0.04570   0.71190   0.01267  Uiso   1.00
S22    S     0.96300   0.91220   0.16580   0.01267  Uiso   1.00
S23    S     0.21500   0.87230   0.04170   0.01267  Uiso   1.00
S24    S     0.09250   0.03680   0.12740   0.01267  Uiso   1.00
S25    S     0.46020   0.84020   0.91820   0.01267  Uiso   1.00
S26    S     0.83770   0.78860   0.19880   0.01267  Uiso   1.00
S27    S     0.83970   0.07520   0.24940   0.01267  Uiso   1.00
S28    S     0.71390   0.95430   0.28810   0.01267  Uiso   1.00
S29    S     0.12520   0.58780   0.66580   0.01267  Uiso   1.00
S30    S     0.33730   0.62770   0.54170   0.01267  Uiso   1.00
S31    S     0.37930   0.46320   0.62740   0.01267  Uiso   1.00
S32    S     0.55040   0.65980   0.41820   0.01267  Uiso   1.00
S33    S     0.87630   0.71140   0.69880   0.01267  Uiso   1.00
S34    S     0.16490   0.42480   0.74940   0.01267  Uiso   1.00
S35    S     0.91820   0.54570   0.78810   0.01267  Uiso   1.00
S36    S     0.37880   0.41220   0.33420   0.01267  Uiso   1.00
S37    S     0.50670   0.37230   0.45830   0.01267  Uiso   1.00
S38    S     0.46990   0.53680   0.37260   0.01267  Uiso   1.00
S39    S     0.62840   0.34020   0.58180   0.01267  Uiso   1.00
S40    S     0.28650   0.28860   0.30120   0.01267  Uiso   1.00
S41    S     0.33910   0.57520   0.25060   0.01267  Uiso   1.00
S42    S     0.25200   0.45430   0.21190   0.01267  Uiso   1.00
S43    S     0.28700   0.33420   0.58780   0.01267  Uiso   1.00
S44    S     0.03500   0.45830   0.62770   0.01267  Uiso   1.00
S45    S     0.15750   0.37260   0.46320   0.01267  Uiso   1.00
S46    S     0.78980   0.58180   0.65980   0.01267  Uiso   1.00
S47    S     0.41230   0.30120   0.71140   0.01267  Uiso   1.00
S48    S     0.41030   0.25060   0.42480   0.01267  Uiso   1.00
S49    S     0.53610   0.21190   0.54570   0.01267  Uiso   1.00
S50    S     0.20900   0.66580   0.41220   0.01267  Uiso   1.00
S51    S     0.12100   0.54170   0.37230   0.01267  Uiso   1.00
S52    S     0.99330   0.62740   0.53680   0.01267  Uiso   1.00
S53    S     0.03140   0.41820   0.34020   0.01267  Uiso   1.00
S54    S     0.42490   0.69880   0.28860   0.01267  Uiso   1.00
S55    S     0.08570   0.74940   0.57520   0.01267  Uiso   1.00
S56    S     0.29370   0.78810   0.45430   0.01267  Uiso   1.00
S57    S     0.00000   0.00000   0.00000   0.01267  Uiso   1.00
S58    S     0.25000   0.50000   0.50000   0.01267  Uiso   1.00
S59    S     0.65920   0.00000   0.00000   0.01267  Uiso   1.00
S60    S     0.34080   1.00000   0.00000   0.01267  Uiso   1.00
S61    S     0.59080   0.50000   0.50000   0.01267  Uiso   1.00
S62    S     0.90920   0.50000   0.50000   0.01267  Uiso   1.00
N1     N     0.59930   0.85280   0.30060   0.01267  Uiso   1.00
N2     N     0.75270   0.14720   0.69940   0.01267  Uiso   1.00
N3     N     0.10010   0.30060   0.14720   0.01267  Uiso   1.00
N4     N     0.54790   0.69940   0.85280   0.01267  Uiso   1.00
N5     N     0.49730   0.80060   0.35280   0.01267  Uiso   1.00
N6     N     0.65070   0.19940   0.64720   0.01267  Uiso   1.00
N7     N     0.70210   0.64720   0.80060   0.01267  Uiso   1.00
N8     N     0.14990   0.35280   0.19940   0.01267  Uiso   1.00
