data_image0
_cell_length_a       14.2241
_cell_length_b       13.4911
_cell_length_c       13.9998
_cell_angle_alpha    90
_cell_angle_beta     90.169
_cell_angle_gamma    90

_symmetry_space_group_name_H-M    "P 1"
_symmetry_int_tables_number       1

loop_
  _symmetry_equiv_pos_as_xyz
  'x, y, z'

loop_
  _atom_site_label
  _atom_site_occupancy
  _atom_site_fract_x
  _atom_site_fract_y
  _atom_site_fract_z
  _atom_site_thermal_displace_type
  _atom_site_B_iso_or_equiv
  _atom_site_type_symbol
  Zn1      1.0000 0.97760  0.23490  0.12590  Biso   1.000  Zn
  Zn2      1.0000 0.87500  0.63260  0.22140  Biso   1.000  Zn
  P1       1.0000 0.97280  0.75310  0.39240  Biso   1.000  P
  P2       1.0000 0.85720  0.11490  0.27720  Biso   1.000  P
  O1       1.0000 0.92060  0.14160  0.36050  Biso   1.000  O
  O2       1.0000 0.86720  0.19060  0.19690  Biso   1.000  O
  O3       1.0000 0.93330  0.75780  0.49380  Biso   1.000  O
  O4       1.0000 0.00470  0.37080  0.15970  Biso   1.000  O
  O5       1.0000 0.05350  0.67720  0.38860  Biso   1.000  O
  O6       1.0000 0.08810  0.49800  0.25110  Biso   1.000  O
  O7       1.0000 0.89290  0.72330  0.32720  Biso   1.000  O
  O8       1.0000 0.75510  0.11440  0.31070  Biso   1.000  O
  O9       1.0000 0.11610  0.01070  0.25650  Biso   1.000  O
  O10      1.0000 0.00950  0.85540  0.36590  Biso   1.000  O
  Zn3      1.0000 0.47760  0.73490  0.12590  Biso   1.000  Zn
  Zn4      1.0000 0.37500  0.13260  0.22140  Biso   1.000  Zn
  P3       1.0000 0.47280  0.25310  0.39240  Biso   1.000  P
  P4       1.0000 0.35720  0.61490  0.27720  Biso   1.000  P
  O11      1.0000 0.42060  0.64160  0.36050  Biso   1.000  O
  O12      1.0000 0.36720  0.69060  0.19690  Biso   1.000  O
  O13      1.0000 0.43330  0.25780  0.49380  Biso   1.000  O
  O14      1.0000 0.50470  0.87080  0.15970  Biso   1.000  O
  O15      1.0000 0.55350  0.17720  0.38860  Biso   1.000  O
  O16      1.0000 0.58810  0.99800  0.25110  Biso   1.000  O
  O17      1.0000 0.39290  0.22330  0.32720  Biso   1.000  O
  O18      1.0000 0.25510  0.61440  0.31070  Biso   1.000  O
  O19      1.0000 0.61610  0.51070  0.25650  Biso   1.000  O
  O20      1.0000 0.50950  0.35540  0.36590  Biso   1.000  O
  Zn5      1.0000 0.02240  0.23490  0.37410  Biso   1.000  Zn
  Zn6      1.0000 0.12500  0.63260  0.27860  Biso   1.000  Zn
  P5       1.0000 0.02720  0.75310  0.10760  Biso   1.000  P
  P6       1.0000 0.14280  0.11490  0.22280  Biso   1.000  P
  O21      1.0000 0.07940  0.14160  0.13950  Biso   1.000  O
  O22      1.0000 0.13280  0.19060  0.30310  Biso   1.000  O
  O23      1.0000 0.06670  0.75780  0.00620  Biso   1.000  O
  O24      1.0000 0.99530  0.37080  0.34030  Biso   1.000  O
  O25      1.0000 0.94650  0.67720  0.11140  Biso   1.000  O
  O26      1.0000 0.91190  0.49800  0.24890  Biso   1.000  O
  O27      1.0000 0.10710  0.72330  0.17280  Biso   1.000  O
  O28      1.0000 0.24490  0.11440  0.18930  Biso   1.000  O
  O29      1.0000 0.88390  0.01070  0.24350  Biso   1.000  O
  O30      1.0000 0.99050  0.85540  0.13410  Biso   1.000  O
  Zn7      1.0000 0.52240  0.73490  0.37410  Biso   1.000  Zn
  Zn8      1.0000 0.62500  0.13260  0.27860  Biso   1.000  Zn
  P7       1.0000 0.52720  0.25310  0.10760  Biso   1.000  P
  P8       1.0000 0.64280  0.61490  0.22280  Biso   1.000  P
  O31      1.0000 0.57940  0.64160  0.13950  Biso   1.000  O
  O32      1.0000 0.63280  0.69060  0.30310  Biso   1.000  O
  O33      1.0000 0.56670  0.25780  0.00620  Biso   1.000  O
  O34      1.0000 0.49530  0.87080  0.34030  Biso   1.000  O
  O35      1.0000 0.44650  0.17720  0.11140  Biso   1.000  O
  O36      1.0000 0.41190  0.99800  0.24890  Biso   1.000  O
  O37      1.0000 0.60710  0.22330  0.17280  Biso   1.000  O
  O38      1.0000 0.74490  0.61440  0.18930  Biso   1.000  O
  O39      1.0000 0.38390  0.51070  0.24350  Biso   1.000  O
  O40      1.0000 0.49050  0.35540  0.13410  Biso   1.000  O
  Zn9      1.0000 0.02240  0.76510  0.87410  Biso   1.000  Zn
  Zn10     1.0000 0.12500  0.36740  0.77860  Biso   1.000  Zn
  P9       1.0000 0.02720  0.24690  0.60760  Biso   1.000  P
  P10      1.0000 0.14280  0.88510  0.72280  Biso   1.000  P
  O41      1.0000 0.07940  0.85840  0.63950  Biso   1.000  O
  O42      1.0000 0.13280  0.80940  0.80310  Biso   1.000  O
  O43      1.0000 0.06670  0.24220  0.50620  Biso   1.000  O
  O44      1.0000 0.99530  0.62920  0.84030  Biso   1.000  O
  O45      1.0000 0.94650  0.32280  0.61140  Biso   1.000  O
  O46      1.0000 0.91190  0.50200  0.74890  Biso   1.000  O
  O47      1.0000 0.10710  0.27670  0.67280  Biso   1.000  O
  O48      1.0000 0.24490  0.88560  0.68930  Biso   1.000  O
  O49      1.0000 0.88390  0.98930  0.74350  Biso   1.000  O
  O50      1.0000 0.99050  0.14460  0.63410  Biso   1.000  O
  Zn11     1.0000 0.52240  0.26510  0.87410  Biso   1.000  Zn
  Zn12     1.0000 0.62500  0.86740  0.77860  Biso   1.000  Zn
  P11      1.0000 0.52720  0.74690  0.60760  Biso   1.000  P
  P12      1.0000 0.64280  0.38510  0.72280  Biso   1.000  P
  O51      1.0000 0.57940  0.35840  0.63950  Biso   1.000  O
  O52      1.0000 0.63280  0.30940  0.80310  Biso   1.000  O
  O53      1.0000 0.56670  0.74220  0.50620  Biso   1.000  O
  O54      1.0000 0.49530  0.12920  0.84030  Biso   1.000  O
  O55      1.0000 0.44650  0.82280  0.61140  Biso   1.000  O
  O56      1.0000 0.41190  0.00200  0.74890  Biso   1.000  O
  O57      1.0000 0.60710  0.77670  0.67280  Biso   1.000  O
  O58      1.0000 0.74490  0.38560  0.68930  Biso   1.000  O
  O59      1.0000 0.38390  0.48930  0.74350  Biso   1.000  O
  O60      1.0000 0.49050  0.64460  0.63410  Biso   1.000  O
  Zn13     1.0000 0.97760  0.76510  0.62590  Biso   1.000  Zn
  Zn14     1.0000 0.87500  0.36740  0.72140  Biso   1.000  Zn
  P13      1.0000 0.97280  0.24690  0.89240  Biso   1.000  P
  P14      1.0000 0.85720  0.88510  0.77720  Biso   1.000  P
  O61      1.0000 0.92060  0.85840  0.86050  Biso   1.000  O
  O62      1.0000 0.86720  0.80940  0.69690  Biso   1.000  O
  O63      1.0000 0.93330  0.24220  0.99380  Biso   1.000  O
  O64      1.0000 0.00470  0.62920  0.65970  Biso   1.000  O
  O65      1.0000 0.05350  0.32280  0.88860  Biso   1.000  O
  O66      1.0000 0.08810  0.50200  0.75110  Biso   1.000  O
  O67      1.0000 0.89290  0.27670  0.82720  Biso   1.000  O
  O68      1.0000 0.75510  0.88560  0.81070  Biso   1.000  O
  O69      1.0000 0.11610  0.98930  0.75650  Biso   1.000  O
  O70      1.0000 0.00950  0.14460  0.86590  Biso   1.000  O
  Zn15     1.0000 0.47760  0.26510  0.62590  Biso   1.000  Zn
  Zn16     1.0000 0.37500  0.86740  0.72140  Biso   1.000  Zn
  P15      1.0000 0.47280  0.74690  0.89240  Biso   1.000  P
  P16      1.0000 0.35720  0.38510  0.77720  Biso   1.000  P
  O71      1.0000 0.42060  0.35840  0.86050  Biso   1.000  O
  O72      1.0000 0.36720  0.30940  0.69690  Biso   1.000  O
  O73      1.0000 0.43330  0.74220  0.99380  Biso   1.000  O
  O74      1.0000 0.50470  0.12920  0.65970  Biso   1.000  O
  O75      1.0000 0.55350  0.82280  0.88860  Biso   1.000  O
  O76      1.0000 0.58810  0.00200  0.75110  Biso   1.000  O
  O77      1.0000 0.39290  0.77670  0.82720  Biso   1.000  O
  O78      1.0000 0.25510  0.38560  0.81070  Biso   1.000  O
  O79      1.0000 0.61610  0.48930  0.75650  Biso   1.000  O
  O80      1.0000 0.50950  0.64460  0.86590  Biso   1.000  O
  Zn17     1.0000 0.00000  0.93470  0.25000  Biso   1.000  Zn
  P17      1.0000 0.00000  0.43350  0.25000  Biso   1.000  P
  Zn18     1.0000 0.50000  0.43470  0.25000  Biso   1.000  Zn
  P18      1.0000 0.50000  0.93350  0.25000  Biso   1.000  P
  Zn19     1.0000 0.00000  0.06530  0.75000  Biso   1.000  Zn
  P19      1.0000 0.00000  0.56650  0.75000  Biso   1.000  P
  Zn20     1.0000 0.50000  0.56530  0.75000  Biso   1.000  Zn
  P20      1.0000 0.50000  0.06650  0.75000  Biso   1.000  P
