data_image0
_cell_length_a       18.344
_cell_length_b       13.3034
_cell_length_c       7.4497
_cell_angle_alpha    90
_cell_angle_beta     90
_cell_angle_gamma    90

_symmetry_space_group_name_H-M    "P 1"
_symmetry_int_tables_number       1

loop_
  _symmetry_equiv_pos_as_xyz
  'x, y, z'

loop_
  _atom_site_label
  _atom_site_occupancy
  _atom_site_fract_x
  _atom_site_fract_y
  _atom_site_fract_z
  _atom_site_thermal_displace_type
  _atom_site_B_iso_or_equiv
  _atom_site_type_symbol
  Zn1      1.0000 0.05650  0.87830  0.06080  Biso   1.000  Zn
  Zn2      1.0000 0.96610  0.12840  0.49110  Biso   1.000  Zn
  P1       1.0000 0.08540  0.04810  0.75160  Biso   1.000  P
  O1       1.0000 0.08470  0.99570  0.93310  Biso   1.000  O
  O2       1.0000 0.00920  0.10010  0.72940  Biso   1.000  O
  O3       1.0000 0.14610  0.12490  0.74210  Biso   1.000  O
  O4       1.0000 0.09580  0.97680  0.59290  Biso   1.000  O
  O5       1.0000 0.03640  0.34490  0.30230  Biso   1.000  O
  O6       1.0000 0.35670  0.15460  0.70350  Biso   1.000  O
  Zn3      1.0000 0.44350  0.12170  0.56080  Biso   1.000  Zn
  Zn4      1.0000 0.53390  0.87160  0.99110  Biso   1.000  Zn
  P2       1.0000 0.41460  0.95190  0.25160  Biso   1.000  P
  O7       1.0000 0.41530  0.00430  0.43310  Biso   1.000  O
  O8       1.0000 0.49080  0.89990  0.22940  Biso   1.000  O
  O9       1.0000 0.35390  0.87510  0.24210  Biso   1.000  O
  O10      1.0000 0.40420  0.02320  0.09290  Biso   1.000  O
  O11      1.0000 0.46360  0.65510  0.80230  Biso   1.000  O
  O12      1.0000 0.14330  0.84540  0.20350  Biso   1.000  O
  Zn5      1.0000 0.94350  0.37830  0.93920  Biso   1.000  Zn
  Zn6      1.0000 0.03390  0.62840  0.50890  Biso   1.000  Zn
  P3       1.0000 0.91460  0.54810  0.24840  Biso   1.000  P
  O13      1.0000 0.91530  0.49570  0.06690  Biso   1.000  O
  O14      1.0000 0.99080  0.60010  0.27060  Biso   1.000  O
  O15      1.0000 0.85390  0.62490  0.25790  Biso   1.000  O
  O16      1.0000 0.90420  0.47680  0.40710  Biso   1.000  O
  O17      1.0000 0.96360  0.84490  0.69770  Biso   1.000  O
  O18      1.0000 0.64330  0.65460  0.29650  Biso   1.000  O
  Zn7      1.0000 0.55650  0.62170  0.43920  Biso   1.000  Zn
  Zn8      1.0000 0.46610  0.37160  0.00890  Biso   1.000  Zn
  P4       1.0000 0.58540  0.45190  0.74840  Biso   1.000  P
  O19      1.0000 0.58470  0.50430  0.56690  Biso   1.000  O
  O20      1.0000 0.50920  0.39990  0.77060  Biso   1.000  O
  O21      1.0000 0.64610  0.37510  0.75790  Biso   1.000  O
  O22      1.0000 0.59580  0.52320  0.90710  Biso   1.000  O
  O23      1.0000 0.53640  0.15510  0.19770  Biso   1.000  O
  O24      1.0000 0.85670  0.34540  0.79650  Biso   1.000  O
  Zn9      1.0000 0.94350  0.12170  0.93920  Biso   1.000  Zn
  Zn10     1.0000 0.03390  0.87160  0.50890  Biso   1.000  Zn
  P5       1.0000 0.91460  0.95190  0.24840  Biso   1.000  P
  O25      1.0000 0.91530  0.00430  0.06690  Biso   1.000  O
  O26      1.0000 0.99080  0.89990  0.27060  Biso   1.000  O
  O27      1.0000 0.85390  0.87510  0.25790  Biso   1.000  O
  O28      1.0000 0.90420  0.02320  0.40710  Biso   1.000  O
  O29      1.0000 0.96360  0.65510  0.69770  Biso   1.000  O
  O30      1.0000 0.64330  0.84540  0.29650  Biso   1.000  O
  Zn11     1.0000 0.55650  0.87830  0.43920  Biso   1.000  Zn
  Zn12     1.0000 0.46610  0.12840  0.00890  Biso   1.000  Zn
  P6       1.0000 0.58540  0.04810  0.74840  Biso   1.000  P
  O31      1.0000 0.58470  0.99570  0.56690  Biso   1.000  O
  O32      1.0000 0.50920  0.10010  0.77060  Biso   1.000  O
  O33      1.0000 0.64610  0.12490  0.75790  Biso   1.000  O
  O34      1.0000 0.59580  0.97680  0.90710  Biso   1.000  O
  O35      1.0000 0.53640  0.34490  0.19770  Biso   1.000  O
  O36      1.0000 0.85670  0.15460  0.79650  Biso   1.000  O
  Zn13     1.0000 0.05650  0.62170  0.06080  Biso   1.000  Zn
  Zn14     1.0000 0.96610  0.37160  0.49110  Biso   1.000  Zn
  P7       1.0000 0.08540  0.45190  0.75160  Biso   1.000  P
  O37      1.0000 0.08470  0.50430  0.93310  Biso   1.000  O
  O38      1.0000 0.00920  0.39990  0.72940  Biso   1.000  O
  O39      1.0000 0.14610  0.37510  0.74210  Biso   1.000  O
  O40      1.0000 0.09580  0.52320  0.59290  Biso   1.000  O
  O41      1.0000 0.03640  0.15510  0.30230  Biso   1.000  O
  O42      1.0000 0.35670  0.34540  0.70350  Biso   1.000  O
  Zn15     1.0000 0.44350  0.37830  0.56080  Biso   1.000  Zn
  Zn16     1.0000 0.53390  0.62840  0.99110  Biso   1.000  Zn
  P8       1.0000 0.41460  0.54810  0.25160  Biso   1.000  P
  O43      1.0000 0.41530  0.49570  0.43310  Biso   1.000  O
  O44      1.0000 0.49080  0.60010  0.22940  Biso   1.000  O
  O45      1.0000 0.35390  0.62490  0.24210  Biso   1.000  O
  O46      1.0000 0.40420  0.47680  0.09290  Biso   1.000  O
  O47      1.0000 0.46360  0.84490  0.80230  Biso   1.000  O
  O48      1.0000 0.14330  0.65460  0.20350  Biso   1.000  O
  Zn17     1.0000 0.16690  0.25000  0.85990  Biso   1.000  Zn
  P9       1.0000 0.04260  0.25000  0.18800  Biso   1.000  P
  P10      1.0000 0.34540  0.25000  0.81520  Biso   1.000  P
  O49      1.0000 0.97680  0.25000  0.05210  Biso   1.000  O
  O50      1.0000 0.11390  0.25000  0.08830  Biso   1.000  O
  O51      1.0000 0.40660  0.25000  0.96530  Biso   1.000  O
  O52      1.0000 0.27120  0.25000  0.90400  Biso   1.000  O
  Zn18     1.0000 0.33310  0.75000  0.35990  Biso   1.000  Zn
  P11      1.0000 0.45740  0.75000  0.68800  Biso   1.000  P
  P12      1.0000 0.15460  0.75000  0.31520  Biso   1.000  P
  O53      1.0000 0.52320  0.75000  0.55210  Biso   1.000  O
  O54      1.0000 0.38610  0.75000  0.58830  Biso   1.000  O
  O55      1.0000 0.09340  0.75000  0.46530  Biso   1.000  O
  O56      1.0000 0.22880  0.75000  0.40400  Biso   1.000  O
  Zn19     1.0000 0.83310  0.75000  0.14010  Biso   1.000  Zn
  P13      1.0000 0.95740  0.75000  0.81200  Biso   1.000  P
  P14      1.0000 0.65460  0.75000  0.18480  Biso   1.000  P
  O57      1.0000 0.02320  0.75000  0.94790  Biso   1.000  O
  O58      1.0000 0.88610  0.75000  0.91170  Biso   1.000  O
  O59      1.0000 0.59340  0.75000  0.03470  Biso   1.000  O
  O60      1.0000 0.72880  0.75000  0.09600  Biso   1.000  O
  Zn20     1.0000 0.66690  0.25000  0.64010  Biso   1.000  Zn
  P15      1.0000 0.54260  0.25000  0.31200  Biso   1.000  P
  P16      1.0000 0.84540  0.25000  0.68480  Biso   1.000  P
  O61      1.0000 0.47680  0.25000  0.44790  Biso   1.000  O
  O62      1.0000 0.61390  0.25000  0.41170  Biso   1.000  O
  O63      1.0000 0.90660  0.25000  0.53470  Biso   1.000  O
  O64      1.0000 0.77120  0.25000  0.59600  Biso   1.000  O
