data_image0
_cell_length_a       9.9524
_cell_length_b       12.67
_cell_length_c       16.2137
_cell_angle_alpha    90
_cell_angle_beta     96.18
_cell_angle_gamma    90

_symmetry_space_group_name_H-M    "P 1"
_symmetry_int_tables_number       1

loop_
  _symmetry_equiv_pos_as_xyz
  'x, y, z'

loop_
  _atom_site_label
  _atom_site_occupancy
  _atom_site_fract_x
  _atom_site_fract_y
  _atom_site_fract_z
  _atom_site_thermal_displace_type
  _atom_site_B_iso_or_equiv
  _atom_site_type_symbol
  Sm1      1.0000 0.30634  0.04382  0.99503  Biso   1.000  Sm
  O1       1.0000 0.41300  0.04450  0.13300  Biso   1.000  O
  O2       1.0000 0.63600  0.02210  0.13420  Biso   1.000  O
  O3       1.0000 0.73550  0.35820  0.47750  Biso   1.000  O
  O4       1.0000 0.51630  0.37690  0.47320  Biso   1.000  O
  O5       1.0000 0.09530  0.99990  0.91580  Biso   1.000  O
  O6       1.0000 0.87700  0.96220  0.92100  Biso   1.000  O
  C1       1.0000 0.55470  0.10640  0.25000  Biso   1.000  C
  C2       1.0000 0.45840  0.17690  0.26580  Biso   1.000  C
  H1       1.0000 0.37810  0.17990  0.23080  Biso   1.000  H
  C3       1.0000 0.47780  0.24640  0.33500  Biso   1.000  C
  H2       1.0000 0.41050  0.29400  0.34530  Biso   1.000  H
  C4       1.0000 0.59650  0.24260  0.38630  Biso   1.000  C
  C5       1.0000 0.69700  0.16580  0.37450  Biso   1.000  C
  C6       1.0000 0.82030  0.15520  0.42890  Biso   1.000  C
  H3       1.0000 0.83800  0.20220  0.47280  Biso   1.000  H
  C7       1.0000 0.91060  0.07880  0.41770  Biso   1.000  C
  H4       1.0000 0.99120  0.07510  0.45240  Biso   1.000  H
  C8       1.0000 0.88290  0.00420  0.35320  Biso   1.000  C
  H5       1.0000 0.94280  0.94890  0.34760  Biso   1.000  H
  C9       1.0000 0.76900  0.01300  0.29930  Biso   1.000  C
  H6       1.0000 0.75320  0.96440  0.25640  Biso   1.000  H
  C10      1.0000 0.67460  0.09410  0.30690  Biso   1.000  C
  C11      1.0000 0.53380  0.05140  0.16670  Biso   1.000  C
  C12      1.0000 0.61750  0.32870  0.45200  Biso   1.000  C
  C13      1.0000 0.99290  0.98960  0.95260  Biso   1.000  C
  Br1      1.0000 0.22060  0.25669  0.98420  Biso   1.000  Br
  Sm2      1.0000 0.69366  0.54382  0.50497  Biso   1.000  Sm
  O7       1.0000 0.58700  0.54450  0.36700  Biso   1.000  O
  O8       1.0000 0.36400  0.52210  0.36580  Biso   1.000  O
  O9       1.0000 0.26450  0.85820  0.02250  Biso   1.000  O
  O10      1.0000 0.48370  0.87690  0.02680  Biso   1.000  O
  O11      1.0000 0.90470  0.49990  0.58420  Biso   1.000  O
  O12      1.0000 0.12300  0.46220  0.57900  Biso   1.000  O
  C14      1.0000 0.44530  0.60640  0.25000  Biso   1.000  C
  C15      1.0000 0.54160  0.67690  0.23420  Biso   1.000  C
  H7       1.0000 0.62190  0.67990  0.26920  Biso   1.000  H
  C16      1.0000 0.52220  0.74640  0.16500  Biso   1.000  C
  H8       1.0000 0.58950  0.79400  0.15470  Biso   1.000  H
  C17      1.0000 0.40350  0.74260  0.11370  Biso   1.000  C
  C18      1.0000 0.30300  0.66580  0.12550  Biso   1.000  C
  C19      1.0000 0.17970  0.65520  0.07110  Biso   1.000  C
  H9       1.0000 0.16200  0.70220  0.02720  Biso   1.000  H
  C20      1.0000 0.08940  0.57880  0.08230  Biso   1.000  C
  H10      1.0000 0.00880  0.57510  0.04760  Biso   1.000  H
  C21      1.0000 0.11710  0.50420  0.14680  Biso   1.000  C
  H11      1.0000 0.05720  0.44890  0.15240  Biso   1.000  H
  C22      1.0000 0.23100  0.51300  0.20070  Biso   1.000  C
  H12      1.0000 0.24680  0.46440  0.24360  Biso   1.000  H
  C23      1.0000 0.32540  0.59410  0.19310  Biso   1.000  C
  C24      1.0000 0.46620  0.55140  0.33330  Biso   1.000  C
  C25      1.0000 0.38250  0.82870  0.04800  Biso   1.000  C
  C26      1.0000 0.00710  0.48960  0.54740  Biso   1.000  C
  Br2      1.0000 0.77940  0.75669  0.51580  Biso   1.000  Br
  Sm3      1.0000 0.69366  0.95618  0.00497  Biso   1.000  Sm
  O13      1.0000 0.58700  0.95550  0.86700  Biso   1.000  O
  O14      1.0000 0.36400  0.97790  0.86580  Biso   1.000  O
  O15      1.0000 0.26450  0.64180  0.52250  Biso   1.000  O
  O16      1.0000 0.48370  0.62310  0.52680  Biso   1.000  O
  O17      1.0000 0.90470  0.00010  0.08420  Biso   1.000  O
  O18      1.0000 0.12300  0.03780  0.07900  Biso   1.000  O
  C27      1.0000 0.44530  0.89360  0.75000  Biso   1.000  C
  C28      1.0000 0.54160  0.82310  0.73420  Biso   1.000  C
  H13      1.0000 0.62190  0.82010  0.76920  Biso   1.000  H
  C29      1.0000 0.52220  0.75360  0.66500  Biso   1.000  C
  H14      1.0000 0.58950  0.70600  0.65470  Biso   1.000  H
  C30      1.0000 0.40350  0.75740  0.61370  Biso   1.000  C
  C31      1.0000 0.30300  0.83420  0.62550  Biso   1.000  C
  C32      1.0000 0.17970  0.84480  0.57110  Biso   1.000  C
  H15      1.0000 0.16200  0.79780  0.52720  Biso   1.000  H
  C33      1.0000 0.08940  0.92120  0.58230  Biso   1.000  C
  H16      1.0000 0.00880  0.92490  0.54760  Biso   1.000  H
  C34      1.0000 0.11710  0.99580  0.64680  Biso   1.000  C
  H17      1.0000 0.05720  0.05110  0.65240  Biso   1.000  H
  C35      1.0000 0.23100  0.98700  0.70070  Biso   1.000  C
  H18      1.0000 0.24680  0.03560  0.74360  Biso   1.000  H
  C36      1.0000 0.32540  0.90590  0.69310  Biso   1.000  C
  C37      1.0000 0.46620  0.94860  0.83330  Biso   1.000  C
  C38      1.0000 0.38250  0.67130  0.54800  Biso   1.000  C
  C39      1.0000 0.00710  0.01040  0.04740  Biso   1.000  C
  Br3      1.0000 0.77940  0.74331  0.01580  Biso   1.000  Br
  Sm4      1.0000 0.30634  0.45618  0.49503  Biso   1.000  Sm
  O19      1.0000 0.41300  0.45550  0.63300  Biso   1.000  O
  O20      1.0000 0.63600  0.47790  0.63420  Biso   1.000  O
  O21      1.0000 0.73550  0.14180  0.97750  Biso   1.000  O
  O22      1.0000 0.51630  0.12310  0.97320  Biso   1.000  O
  O23      1.0000 0.09530  0.50010  0.41580  Biso   1.000  O
  O24      1.0000 0.87700  0.53780  0.42100  Biso   1.000  O
  C40      1.0000 0.55470  0.39360  0.75000  Biso   1.000  C
  C41      1.0000 0.45840  0.32310  0.76580  Biso   1.000  C
  H19      1.0000 0.37810  0.32010  0.73080  Biso   1.000  H
  C42      1.0000 0.47780  0.25360  0.83500  Biso   1.000  C
  H20      1.0000 0.41050  0.20600  0.84530  Biso   1.000  H
  C43      1.0000 0.59650  0.25740  0.88630  Biso   1.000  C
  C44      1.0000 0.69700  0.33420  0.87450  Biso   1.000  C
  C45      1.0000 0.82030  0.34480  0.92890  Biso   1.000  C
  H21      1.0000 0.83800  0.29780  0.97280  Biso   1.000  H
  C46      1.0000 0.91060  0.42120  0.91770  Biso   1.000  C
  H22      1.0000 0.99120  0.42490  0.95240  Biso   1.000  H
  C47      1.0000 0.88290  0.49580  0.85320  Biso   1.000  C
  H23      1.0000 0.94280  0.55110  0.84760  Biso   1.000  H
  C48      1.0000 0.76900  0.48700  0.79930  Biso   1.000  C
  H24      1.0000 0.75320  0.53560  0.75640  Biso   1.000  H
  C49      1.0000 0.67460  0.40590  0.80690  Biso   1.000  C
  C50      1.0000 0.53380  0.44860  0.66670  Biso   1.000  C
  C51      1.0000 0.61750  0.17130  0.95200  Biso   1.000  C
  C52      1.0000 0.99290  0.51040  0.45260  Biso   1.000  C
  Br4      1.0000 0.22060  0.24331  0.48420  Biso   1.000  Br
