data_image0
_cell_length_a       12.8423
_cell_length_b       12.9467
_cell_length_c       23.9678
_cell_angle_alpha    81.481
_cell_angle_beta     86.357
_cell_angle_gamma    70.63

_symmetry_space_group_name_H-M    "P 1"
_symmetry_int_tables_number       1

loop_
  _symmetry_equiv_pos_as_xyz
  'x, y, z'

loop_
  _atom_site_label
  _atom_site_occupancy
  _atom_site_fract_x
  _atom_site_fract_y
  _atom_site_fract_z
  _atom_site_thermal_displace_type
  _atom_site_B_iso_or_equiv
  _atom_site_type_symbol
  Cu1      1.0000 0.47522  0.23555  0.73107  Biso   1.000  Cu
  Cu2      1.0000 0.52839  0.23397  0.22880  Biso   1.000  Cu
  O1       1.0000 0.38050  0.35660  0.76890  Biso   1.000  O
  O2       1.0000 0.58000  0.11750  0.69440  Biso   1.000  O
  O3       1.0000 0.33420  0.79980  0.81610  Biso   1.000  O
  O4       1.0000 0.46770  0.36390  0.17390  Biso   1.000  O
  O5       1.0000 0.57050  0.18440  0.79590  Biso   1.000  O
  O6       1.0000 0.59410  0.10890  0.28590  Biso   1.000  O
  O7       1.0000 0.39690  0.30190  0.66080  Biso   1.000  O
  O8       1.0000 0.46730  0.11280  0.18560  Biso   1.000  O
  C1       1.0000 0.20260  0.37020  0.79730  Biso   1.000  C
  H1       1.0000 0.23040  0.31070  0.82660  Biso   1.000  H
  C2       1.0000 0.08980  0.42450  0.79320  Biso   1.000  C
  H2       1.0000 0.04120  0.40470  0.82100  Biso   1.000  H
  C3       1.0000 0.04740  0.50750  0.74890  Biso   1.000  C
  C4       1.0000 0.12260  0.53500  0.71120  Biso   1.000  C
  H3       1.0000 0.09670  0.59290  0.68090  Biso   1.000  H
  C5       1.0000 0.23420  0.48070  0.71630  Biso   1.000  C
  H4       1.0000 0.28450  0.49900  0.68900  Biso   1.000  H
  C6       1.0000 0.73890  0.57350  0.76360  Biso   1.000  C
  H5       1.0000 0.68770  0.54150  0.78290  Biso   1.000  H
  C7       1.0000 0.84960  0.52110  0.77040  Biso   1.000  C
  H6       1.0000 0.87400  0.45340  0.79500  Biso   1.000  H
  C8       1.0000 0.92710  0.56300  0.74270  Biso   1.000  C
  C9       1.0000 0.88570  0.66580  0.70830  Biso   1.000  C
  H7       1.0000 0.93530  0.70140  0.69050  Biso   1.000  H
  C10      1.0000 0.77490  0.71420  0.70050  Biso   1.000  C
  H8       1.0000 0.74880  0.77940  0.67430  Biso   1.000  H
  C11      1.0000 0.71450  0.97970  0.74300  Biso   1.000  C
  H9       1.0000 0.66240  0.94270  0.75450  Biso   1.000  H
  C12      1.0000 0.82560  0.93080  0.75910  Biso   1.000  C
  H10      1.0000 0.84830  0.86230  0.78320  Biso   1.000  H
  C13      1.0000 0.90210  0.98390  0.73920  Biso   1.000  C
  C14      1.0000 0.86370  0.08400  0.70590  Biso   1.000  C
  H11      1.0000 0.91340  0.12200  0.69110  Biso   1.000  H
  C15      1.0000 0.75460  0.12870  0.69390  Biso   1.000  C
  H12      1.0000 0.72910  0.19930  0.67180  Biso   1.000  H
  C16      1.0000 0.19160  0.95100  0.77800  Biso   1.000  C
  H13      1.0000 0.23510  0.99670  0.78040  Biso   1.000  H
  C17      1.0000 0.08690  0.99600  0.75970  Biso   1.000  C
  H14      1.0000 0.05840  0.07360  0.74870  Biso   1.000  H
  C18      1.0000 0.02030  0.93350  0.75660  Biso   1.000  C
  C19      1.0000 0.06840  0.82080  0.77060  Biso   1.000  C
  H15      1.0000 0.02630  0.77360  0.76820  Biso   1.000  H
  C20      1.0000 0.17610  0.77560  0.78810  Biso   1.000  C
  H16      1.0000 0.20870  0.69780  0.79670  Biso   1.000  H
  C21      1.0000 0.55940  0.36500  0.08730  Biso   1.000  C
  H17      1.0000 0.61410  0.38570  0.10340  Biso   1.000  H
  C22      1.0000 0.56710  0.35100  0.03180  Biso   1.000  C
  H18      1.0000 0.62680  0.36280  0.00930  Biso   1.000  H
  C23      1.0000 0.49060  0.32040  0.00830  Biso   1.000  C
  C24      1.0000 0.40030  0.31180  0.04140  Biso   1.000  C
  H19      1.0000 0.34200  0.29670  0.02530  Biso   1.000  H
  C25      1.0000 0.39530  0.32500  0.09660  Biso   1.000  C
  H20      1.0000 0.33450  0.31670  0.11930  Biso   1.000  H
  C26      1.0000 0.45990  0.21130  0.87550  Biso   1.000  C
  H21      1.0000 0.41610  0.17360  0.86240  Biso   1.000  H
  C27      1.0000 0.43730  0.24680  0.92730  Biso   1.000  C
  H22      1.0000 0.37520  0.23750  0.94850  Biso   1.000  H
  C28      1.0000 0.50190  0.29530  0.94930  Biso   1.000  C
  C29      1.0000 0.58080  0.32200  0.91190  Biso   1.000  C
  H23      1.0000 0.62290  0.36350  0.92330  Biso   1.000  H
  C30      1.0000 0.59700  0.29100  0.86040  Biso   1.000  C
  H24      1.0000 0.64850  0.31260  0.83530  Biso   1.000  H
  C31      1.0000 0.50420  0.08190  0.37030  Biso   1.000  C
  H25      1.0000 0.47350  0.03580  0.35430  Biso   1.000  H
  C32      1.0000 0.48070  0.10200  0.42610  Biso   1.000  C
  H26      1.0000 0.43190  0.07070  0.44820  Biso   1.000  H
  C33      1.0000 0.52850  0.16780  0.44970  Biso   1.000  C
  C34      1.0000 0.59800  0.21240  0.41560  Biso   1.000  C
  H27      1.0000 0.63220  0.25710  0.43040  Biso   1.000  H
  C35      1.0000 0.61840  0.19270  0.36040  Biso   1.000  C
  H28      1.0000 0.66580  0.22410  0.33710  Biso   1.000  H
  C36      1.0000 0.52740  0.27510  0.58660  Biso   1.000  C
  H29      1.0000 0.57040  0.30720  0.60480  Biso   1.000  H
  C37      1.0000 0.55910  0.24230  0.53410  Biso   1.000  C
  H30      1.0000 0.62450  0.25150  0.51660  Biso   1.000  H
  C38      1.0000 0.49850  0.19710  0.50730  Biso   1.000  C
  C39      1.0000 0.40410  0.18240  0.53480  Biso   1.000  C
  H31      1.0000 0.36040  0.15020  0.51730  Biso   1.000  H
  C40      1.0000 0.37510  0.21490  0.58700  Biso   1.000  C
  H32      1.0000 0.31130  0.20400  0.60580  Biso   1.000  H
  C41      1.0000 0.57300  0.06550  0.10700  Biso   1.000  C
  H33      1.0000 0.63380  0.07590  0.12370  Biso   1.000  H
  C42      1.0000 0.58450  0.03510  0.05530  Biso   1.000  C
  H34      1.0000 0.65350  0.02310  0.03600  Biso   1.000  H
  C43      1.0000 0.49420  0.01990  0.02820  Biso   1.000  C
  C44      1.0000 0.39600  0.03510  0.06050  Biso   1.000  C
  H35      1.0000 0.33410  0.02590  0.04470  Biso   1.000  H
  C45      1.0000 0.38800  0.06200  0.11220  Biso   1.000  C
  H36      1.0000 0.32140  0.06790  0.13360  Biso   1.000  H
  N1       1.0000 0.27160  0.40110  0.76030  Biso   1.000  N
  N2       1.0000 0.70180  0.67140  0.72930  Biso   1.000  N
  N3       1.0000 0.68320  0.07770  0.71180  Biso   1.000  N
  N4       1.0000 0.23390  0.84200  0.79270  Biso   1.000  N
  N5       1.0000 0.47440  0.34950  0.11950  Biso   1.000  N
  N6       1.0000 0.54150  0.22870  0.84350  Biso   1.000  N
  N7       1.0000 0.57110  0.12960  0.33990  Biso   1.000  N
  N8       1.0000 0.43490  0.26150  0.61220  Biso   1.000  N
  N9       1.0000 0.47450  0.08160  0.13570  Biso   1.000  N
  O9       1.0000 0.36580  0.11990  0.75930  Biso   1.000  O
  H37      1.0000 0.29900  0.15480  0.75050  Biso   1.000  H
  H38      1.0000 0.38980  0.06250  0.74280  Biso   1.000  H
  O10      1.0000 0.59780  0.71880  0.71880  Biso   1.000  O
  Cu3      1.0000 0.52478  0.76445  0.26893  Biso   1.000  Cu
  Cu4      1.0000 0.47161  0.76603  0.77120  Biso   1.000  Cu
  O11      1.0000 0.61950  0.64340  0.23110  Biso   1.000  O
  O12      1.0000 0.42000  0.88250  0.30560  Biso   1.000  O
  O13      1.0000 0.66580  0.20020  0.18390  Biso   1.000  O
  O14      1.0000 0.53230  0.63610  0.82610  Biso   1.000  O
  O15      1.0000 0.42950  0.81560  0.20410  Biso   1.000  O
  O16      1.0000 0.40590  0.89110  0.71410  Biso   1.000  O
  O17      1.0000 0.60310  0.69810  0.33920  Biso   1.000  O
  O18      1.0000 0.53270  0.88720  0.81440  Biso   1.000  O
  C46      1.0000 0.79740  0.62980  0.20270  Biso   1.000  C
  H39      1.0000 0.76960  0.68930  0.17340  Biso   1.000  H
  C47      1.0000 0.91020  0.57550  0.20680  Biso   1.000  C
  H40      1.0000 0.95880  0.59530  0.17900  Biso   1.000  H
  C48      1.0000 0.95260  0.49250  0.25110  Biso   1.000  C
  C49      1.0000 0.87740  0.46500  0.28880  Biso   1.000  C
  H41      1.0000 0.90330  0.40710  0.31910  Biso   1.000  H
  C50      1.0000 0.76580  0.51930  0.28370  Biso   1.000  C
  H42      1.0000 0.71550  0.50100  0.31100  Biso   1.000  H
  C51      1.0000 0.26110  0.42650  0.23640  Biso   1.000  C
  H43      1.0000 0.31230  0.45850  0.21710  Biso   1.000  H
  C52      1.0000 0.15040  0.47890  0.22960  Biso   1.000  C
  H44      1.0000 0.12600  0.54660  0.20500  Biso   1.000  H
  C53      1.0000 0.07290  0.43700  0.25730  Biso   1.000  C
  C54      1.0000 0.11430  0.33420  0.29170  Biso   1.000  C
  H45      1.0000 0.06470  0.29860  0.30950  Biso   1.000  H
  C55      1.0000 0.22510  0.28580  0.29950  Biso   1.000  C
  H46      1.0000 0.25120  0.22060  0.32570  Biso   1.000  H
  C56      1.0000 0.28550  0.02030  0.25700  Biso   1.000  C
  H47      1.0000 0.33760  0.05730  0.24550  Biso   1.000  H
  C57      1.0000 0.17440  0.06920  0.24090  Biso   1.000  C
  H48      1.0000 0.15170  0.13770  0.21680  Biso   1.000  H
  C58      1.0000 0.09790  0.01610  0.26080  Biso   1.000  C
  C59      1.0000 0.13630  0.91600  0.29410  Biso   1.000  C
  H49      1.0000 0.08660  0.87800  0.30890  Biso   1.000  H
  C60      1.0000 0.24540  0.87130  0.30610  Biso   1.000  C
  H50      1.0000 0.27090  0.80070  0.32820  Biso   1.000  H
  C61      1.0000 0.80840  0.04900  0.22200  Biso   1.000  C
  H51      1.0000 0.76490  0.00330  0.21960  Biso   1.000  H
  C62      1.0000 0.91310  0.00400  0.24030  Biso   1.000  C
  H52      1.0000 0.94160  0.92640  0.25130  Biso   1.000  H
  C63      1.0000 0.97970  0.06650  0.24340  Biso   1.000  C
  C64      1.0000 0.93160  0.17920  0.22940  Biso   1.000  C
  H53      1.0000 0.97370  0.22640  0.23180  Biso   1.000  H
  C65      1.0000 0.82390  0.22440  0.21190  Biso   1.000  C
  H54      1.0000 0.79130  0.30220  0.20330  Biso   1.000  H
  C66      1.0000 0.44060  0.63500  0.91270  Biso   1.000  C
  H55      1.0000 0.38590  0.61430  0.89660  Biso   1.000  H
  C67      1.0000 0.43290  0.64900  0.96820  Biso   1.000  C
  H56      1.0000 0.37320  0.63720  0.99070  Biso   1.000  H
  C68      1.0000 0.50940  0.67960  0.99170  Biso   1.000  C
  C69      1.0000 0.59970  0.68820  0.95860  Biso   1.000  C
  H57      1.0000 0.65800  0.70330  0.97470  Biso   1.000  H
  C70      1.0000 0.60470  0.67500  0.90340  Biso   1.000  C
  H58      1.0000 0.66550  0.68330  0.88070  Biso   1.000  H
  C71      1.0000 0.54010  0.78870  0.12450  Biso   1.000  C
  H59      1.0000 0.58390  0.82640  0.13760  Biso   1.000  H
  C72      1.0000 0.56270  0.75320  0.07270  Biso   1.000  C
  H60      1.0000 0.62480  0.76250  0.05150  Biso   1.000  H
  C73      1.0000 0.49810  0.70470  0.05070  Biso   1.000  C
  C74      1.0000 0.41920  0.67800  0.08810  Biso   1.000  C
  H61      1.0000 0.37710  0.63650  0.07670  Biso   1.000  H
  C75      1.0000 0.40300  0.70900  0.13960  Biso   1.000  C
  H62      1.0000 0.35150  0.68740  0.16470  Biso   1.000  H
  C76      1.0000 0.49580  0.91810  0.62970  Biso   1.000  C
  H63      1.0000 0.52650  0.96420  0.64570  Biso   1.000  H
  C77      1.0000 0.51930  0.89800  0.57390  Biso   1.000  C
  H64      1.0000 0.56810  0.92930  0.55180  Biso   1.000  H
  C78      1.0000 0.47150  0.83220  0.55030  Biso   1.000  C
  C79      1.0000 0.40200  0.78760  0.58440  Biso   1.000  C
  H65      1.0000 0.36780  0.74290  0.56960  Biso   1.000  H
  C80      1.0000 0.38160  0.80730  0.63960  Biso   1.000  C
  H66      1.0000 0.33420  0.77590  0.66290  Biso   1.000  H
  C81      1.0000 0.47260  0.72490  0.41340  Biso   1.000  C
  H67      1.0000 0.42960  0.69280  0.39520  Biso   1.000  H
  C82      1.0000 0.44090  0.75770  0.46590  Biso   1.000  C
  H68      1.0000 0.37550  0.74850  0.48340  Biso   1.000  H
  C83      1.0000 0.50150  0.80290  0.49270  Biso   1.000  C
  C84      1.0000 0.59590  0.81760  0.46520  Biso   1.000  C
  H69      1.0000 0.63960  0.84980  0.48270  Biso   1.000  H
  C85      1.0000 0.62490  0.78510  0.41300  Biso   1.000  C
  H70      1.0000 0.68870  0.79600  0.39420  Biso   1.000  H
  C86      1.0000 0.42700  0.93450  0.89300  Biso   1.000  C
  H71      1.0000 0.36620  0.92410  0.87630  Biso   1.000  H
  C87      1.0000 0.41550  0.96490  0.94470  Biso   1.000  C
  H72      1.0000 0.34650  0.97690  0.96400  Biso   1.000  H
  C88      1.0000 0.50580  0.98010  0.97180  Biso   1.000  C
  C89      1.0000 0.60400  0.96490  0.93950  Biso   1.000  C
  H73      1.0000 0.66590  0.97410  0.95530  Biso   1.000  H
  C90      1.0000 0.61200  0.93800  0.88780  Biso   1.000  C
  H74      1.0000 0.67860  0.93210  0.86640  Biso   1.000  H
  N10      1.0000 0.72840  0.59890  0.23970  Biso   1.000  N
  N11      1.0000 0.29820  0.32860  0.27070  Biso   1.000  N
  N12      1.0000 0.31680  0.92230  0.28820  Biso   1.000  N
  N13      1.0000 0.76610  0.15800  0.20730  Biso   1.000  N
  N14      1.0000 0.52560  0.65050  0.88050  Biso   1.000  N
  N15      1.0000 0.45850  0.77130  0.15650  Biso   1.000  N
  N16      1.0000 0.42890  0.87040  0.66010  Biso   1.000  N
  N17      1.0000 0.56510  0.73850  0.38780  Biso   1.000  N
  N18      1.0000 0.52550  0.91840  0.86430  Biso   1.000  N
  O19      1.0000 0.63420  0.88010  0.24070  Biso   1.000  O
  H75      1.0000 0.70100  0.84520  0.24950  Biso   1.000  H
  H76      1.0000 0.61020  0.93750  0.25720  Biso   1.000  H
  O20      1.0000 0.40220  0.28120  0.28120  Biso   1.000  O
