data_image0
_cell_length_a       15.6206
_cell_length_b       15.9054
_cell_length_c       22.8496
_cell_angle_alpha    90
_cell_angle_beta     90
_cell_angle_gamma    119.41

_symmetry_space_group_name_H-M    P 1
_symmetry_int_tables_number       1

loop_
  _symmetry_equiv_pos_as_xyz
  'x, y, z'

loop_
  _atom_site_label
  _atom_site_occupancy
  _atom_site_fract_x
  _atom_site_fract_y
  _atom_site_fract_z
  _atom_site_thermal_displace_type
  _atom_site_B_iso_or_equiv
  _atom_site_type_symbol
  Cd1      1.0000 0.32081  0.17124  0.37003  Biso   1.000  Cd
  Cd2      1.0000 0.67919  0.82876  0.87003  Biso   1.000  Cd
  Cd3      1.0000 0.85043  0.17124  0.12996  Biso   1.000  Cd
  Cd4      1.0000 0.14957  0.82876  0.62997  Biso   1.000  Cd
  Cd5      1.0000 0.23505  0.00000  0.50000  Biso   1.000  Cd
  Cd6      1.0000 0.76495  0.00000  0.00000  Biso   1.000  Cd
  Si1      1.0000 0.83291  0.19528  0.55103  Biso   1.000  Si
  Si2      1.0000 0.16709  0.80472  0.05103  Biso   1.000  Si
  Si3      1.0000 0.36237  0.19528  0.94897  Biso   1.000  Si
  Si4      1.0000 0.63763  0.80472  0.44897  Biso   1.000  Si
  H1       1.0000 0.99360  0.16340  0.58240  Biso   1.000  H
  H2       1.0000 0.12000  0.15400  0.53530  Biso   1.000  H
  H3       1.0000 0.99610  0.14900  0.37890  Biso   1.000  H
  H4       1.0000 0.86910  0.15820  0.42620  Biso   1.000  H
  H5       1.0000 0.80510  0.32120  0.63400  Biso   1.000  H
  H6       1.0000 0.88290  0.48680  0.65380  Biso   1.000  H
  H7       1.0000 0.07930  0.53560  0.52440  Biso   1.000  H
  H8       1.0000 0.00160  0.37000  0.50460  Biso   1.000  H
  H9       1.0000 0.68720  0.00280  0.58600  Biso   1.000  H
  H10      1.0000 0.65510  0.90360  0.66770  Biso   1.000  H
  H11      1.0000 0.86110  0.13200  0.75920  Biso   1.000  H
  H12      1.0000 0.89950  0.22880  0.67390  Biso   1.000  H
  H13      1.0000 0.62430  0.10920  0.58060  Biso   1.000  H
  H14      1.0000 0.48290  0.09080  0.53380  Biso   1.000  H
  H15      1.0000 0.63910  0.20120  0.38470  Biso   1.000  H
  H16      1.0000 0.78050  0.21960  0.43160  Biso   1.000  H
  H17      1.0000 0.00640  0.83660  0.08240  Biso   1.000  H
  H18      1.0000 0.88000  0.84600  0.03530  Biso   1.000  H
  H19      1.0000 0.00390  0.85100  0.87890  Biso   1.000  H
  H20      1.0000 0.13090  0.84180  0.92620  Biso   1.000  H
  H21      1.0000 0.19490  0.67880  0.13400  Biso   1.000  H
  H22      1.0000 0.11710  0.51320  0.15380  Biso   1.000  H
  H23      1.0000 0.92070  0.46440  0.02440  Biso   1.000  H
  H24      1.0000 0.99840  0.63000  0.00460  Biso   1.000  H
  H25      1.0000 0.31280  0.99720  0.08600  Biso   1.000  H
  H26      1.0000 0.34490  0.09640  0.16770  Biso   1.000  H
  H27      1.0000 0.13890  0.86800  0.25920  Biso   1.000  H
  H28      1.0000 0.10050  0.77120  0.17390  Biso   1.000  H
  H29      1.0000 0.37570  0.89080  0.08060  Biso   1.000  H
  H30      1.0000 0.51710  0.90920  0.03380  Biso   1.000  H
  H31      1.0000 0.36090  0.79880  0.88470  Biso   1.000  H
  H32      1.0000 0.21950  0.78040  0.93160  Biso   1.000  H
  H33      1.0000 0.16980  0.16340  0.91760  Biso   1.000  H
  H34      1.0000 0.03400  0.15400  0.96470  Biso   1.000  H
  H35      1.0000 0.15290  0.14900  0.12110  Biso   1.000  H
  H36      1.0000 0.28910  0.15820  0.07380  Biso   1.000  H
  H37      1.0000 0.51610  0.32120  0.86600  Biso   1.000  H
  H38      1.0000 0.60390  0.48680  0.84620  Biso   1.000  H
  H39      1.0000 0.45630  0.53560  0.97560  Biso   1.000  H
  H40      1.0000 0.36840  0.37000  0.99540  Biso   1.000  H
  H41      1.0000 0.31560  0.00280  0.91400  Biso   1.000  H
  H42      1.0000 0.24850  0.90360  0.83230  Biso   1.000  H
  H43      1.0000 0.27090  0.13200  0.74080  Biso   1.000  H
  H44      1.0000 0.32930  0.22880  0.82610  Biso   1.000  H
  H45      1.0000 0.48490  0.10920  0.91940  Biso   1.000  H
  H46      1.0000 0.60790  0.09080  0.96620  Biso   1.000  H
  H47      1.0000 0.56210  0.20120  0.11530  Biso   1.000  H
  H48      1.0000 0.43910  0.21960  0.06840  Biso   1.000  H
  H49      1.0000 0.83020  0.83660  0.41760  Biso   1.000  H
  H50      1.0000 0.96600  0.84600  0.46470  Biso   1.000  H
  H51      1.0000 0.84710  0.85100  0.62110  Biso   1.000  H
  H52      1.0000 0.71090  0.84180  0.57380  Biso   1.000  H
  H53      1.0000 0.48390  0.67880  0.36600  Biso   1.000  H
  H54      1.0000 0.39610  0.51320  0.34620  Biso   1.000  H
  H55      1.0000 0.54370  0.46440  0.47560  Biso   1.000  H
  H56      1.0000 0.63160  0.63000  0.49540  Biso   1.000  H
  H57      1.0000 0.68440  0.99720  0.41400  Biso   1.000  H
  H58      1.0000 0.75150  0.09640  0.33230  Biso   1.000  H
  H59      1.0000 0.72910  0.86800  0.24080  Biso   1.000  H
  H60      1.0000 0.67070  0.77120  0.32610  Biso   1.000  H
  H61      1.0000 0.51510  0.89080  0.41940  Biso   1.000  H
  H62      1.0000 0.39210  0.90920  0.46620  Biso   1.000  H
  H63      1.0000 0.43790  0.79880  0.61530  Biso   1.000  H
  H64      1.0000 0.56090  0.78040  0.56840  Biso   1.000  H
  C1       1.0000 0.91819  0.16718  0.50907  Biso   1.000  C
  C2       1.0000 0.99410  0.16120  0.54080  Biso   1.000  C
  C3       1.0000 0.06720  0.15200  0.51360  Biso   1.000  C
  C4       1.0000 0.06171  0.13982  0.45256  Biso   1.000  C
  C5       1.0000 0.99350  0.14900  0.42040  Biso   1.000  C
  C6       1.0000 0.92010  0.15820  0.44880  Biso   1.000  C
  C7       1.0000 0.14499  0.13398  0.42320  Biso   1.000  C
  C8       1.0000 0.89600  0.33000  0.56745  Biso   1.000  C
  C9       1.0000 0.86076  0.36472  0.61177  Biso   1.000  C
  C10      1.0000 0.90695  0.46310  0.62353  Biso   1.000  C
  C11      1.0000 0.98837  0.52674  0.59096  Biso   1.000  C
  C12      1.0000 0.02361  0.49202  0.54664  Biso   1.000  C
  C13      1.0000 0.97742  0.39364  0.53489  Biso   1.000  C
  C14      1.0000 0.04603  0.63466  0.60400  Biso   1.000  C
  C15      1.0000 0.80216  0.12432  0.62070  Biso   1.000  C
  C16      1.0000 0.72532  0.02824  0.62050  Biso   1.000  C
  C17      1.0000 0.70411  0.96982  0.66950  Biso   1.000  C
  C18      1.0000 0.75529  0.00918  0.72165  Biso   1.000  C
  C19      1.0000 0.82709  0.10478  0.72370  Biso   1.000  C
  C20      1.0000 0.85016  0.16272  0.67240  Biso   1.000  C
  C21      1.0000 0.73133  0.94686  0.77545  Biso   1.000  C
  C22      1.0000 0.71569  0.16614  0.51051  Biso   1.000  C
  C23      1.0000 0.62731  0.12786  0.54086  Biso   1.000  C
  C24      1.0000 0.54330  0.11688  0.51303  Biso   1.000  C
  C25      1.0000 0.54767  0.14420  0.45484  Biso   1.000  C
  C26      1.0000 0.63605  0.18248  0.42448  Biso   1.000  C
  C27      1.0000 0.72005  0.19344  0.45232  Biso   1.000  C
  C28      1.0000 0.45667  0.13534  0.42620  Biso   1.000  C
  C29      1.0000 0.08181  0.83282  0.00907  Biso   1.000  C
  C30      1.0000 0.00590  0.83880  0.04080  Biso   1.000  C
  C31      1.0000 0.93280  0.84800  0.01360  Biso   1.000  C
  C32      1.0000 0.93829  0.86018  0.95256  Biso   1.000  C
  C33      1.0000 0.00650  0.85100  0.92040  Biso   1.000  C
  C34      1.0000 0.07990  0.84180  0.94880  Biso   1.000  C
  C35      1.0000 0.85501  0.86602  0.92320  Biso   1.000  C
  C36      1.0000 0.10400  0.67000  0.06745  Biso   1.000  C
  C37      1.0000 0.13924  0.63528  0.11177  Biso   1.000  C
  C38      1.0000 0.09305  0.53690  0.12353  Biso   1.000  C
  C39      1.0000 0.01163  0.47326  0.09096  Biso   1.000  C
  C40      1.0000 0.97639  0.50798  0.04664  Biso   1.000  C
  C41      1.0000 0.02258  0.60636  0.03489  Biso   1.000  C
  C42      1.0000 0.95397  0.36534  0.10400  Biso   1.000  C
  C43      1.0000 0.19784  0.87568  0.12070  Biso   1.000  C
  C44      1.0000 0.27468  0.97176  0.12050  Biso   1.000  C
  C45      1.0000 0.29589  0.03018  0.16950  Biso   1.000  C
  C46      1.0000 0.24471  0.99082  0.22165  Biso   1.000  C
  C47      1.0000 0.17291  0.89522  0.22370  Biso   1.000  C
  C48      1.0000 0.14984  0.83728  0.17240  Biso   1.000  C
  C49      1.0000 0.26867  0.05314  0.27545  Biso   1.000  C
  C50      1.0000 0.28431  0.83386  0.01051  Biso   1.000  C
  C51      1.0000 0.37269  0.87214  0.04086  Biso   1.000  C
  C52      1.0000 0.45670  0.88312  0.01303  Biso   1.000  C
  C53      1.0000 0.45233  0.85580  0.95484  Biso   1.000  C
  C54      1.0000 0.36395  0.81752  0.92448  Biso   1.000  C
  C55      1.0000 0.27995  0.80656  0.95232  Biso   1.000  C
  C56      1.0000 0.54333  0.86466  0.92620  Biso   1.000  C
  C57      1.0000 0.24899  0.16718  0.99093  Biso   1.000  C
  C58      1.0000 0.16710  0.16120  0.95920  Biso   1.000  C
  C59      1.0000 0.08480  0.15200  0.98640  Biso   1.000  C
  C60      1.0000 0.07811  0.13982  0.04744  Biso   1.000  C
  C61      1.0000 0.15550  0.14900  0.07960  Biso   1.000  C
  C62      1.0000 0.23810  0.15820  0.05120  Biso   1.000  C
  C63      1.0000 0.98899  0.13398  0.07680  Biso   1.000  C
  C64      1.0000 0.43400  0.33000  0.93255  Biso   1.000  C
  C65      1.0000 0.50396  0.36472  0.88823  Biso   1.000  C
  C66      1.0000 0.55615  0.46310  0.87647  Biso   1.000  C
  C67      1.0000 0.53837  0.52674  0.90904  Biso   1.000  C
  C68      1.0000 0.46841  0.49202  0.95336  Biso   1.000  C
  C69      1.0000 0.41622  0.39364  0.96511  Biso   1.000  C
  C70      1.0000 0.58863  0.63466  0.89600  Biso   1.000  C
  C71      1.0000 0.32216  0.12432  0.87930  Biso   1.000  C
  C72      1.0000 0.30292  0.02824  0.87950  Biso   1.000  C
  C73      1.0000 0.26571  0.96982  0.83050  Biso   1.000  C
  C74      1.0000 0.25389  0.00918  0.77835  Biso   1.000  C
  C75      1.0000 0.27769  0.10478  0.77630  Biso   1.000  C
  C76      1.0000 0.31256  0.16272  0.82760  Biso   1.000  C
  C77      1.0000 0.21553  0.94686  0.72455  Biso   1.000  C
  C78      1.0000 0.45045  0.16614  0.98949  Biso   1.000  C
  C79      1.0000 0.50055  0.12786  0.95914  Biso   1.000  C
  C80      1.0000 0.57358  0.11688  0.98697  Biso   1.000  C
  C81      1.0000 0.59653  0.14420  0.04516  Biso   1.000  C
  C82      1.0000 0.54643  0.18248  0.07552  Biso   1.000  C
  C83      1.0000 0.47339  0.19344  0.04768  Biso   1.000  C
  C84      1.0000 0.67867  0.13534  0.07380  Biso   1.000  C
  C85      1.0000 0.75101  0.83282  0.49093  Biso   1.000  C
  C86      1.0000 0.83290  0.83880  0.45920  Biso   1.000  C
  C87      1.0000 0.91520  0.84800  0.48640  Biso   1.000  C
  C88      1.0000 0.92189  0.86018  0.54744  Biso   1.000  C
  C89      1.0000 0.84450  0.85100  0.57960  Biso   1.000  C
  C90      1.0000 0.76190  0.84180  0.55120  Biso   1.000  C
  C91      1.0000 0.01101  0.86602  0.57680  Biso   1.000  C
  C92      1.0000 0.56600  0.67000  0.43255  Biso   1.000  C
  C93      1.0000 0.49604  0.63528  0.38823  Biso   1.000  C
  C94      1.0000 0.44385  0.53690  0.37647  Biso   1.000  C
  C95      1.0000 0.46163  0.47326  0.40904  Biso   1.000  C
  C96      1.0000 0.53159  0.50798  0.45336  Biso   1.000  C
  C97      1.0000 0.58378  0.60636  0.46511  Biso   1.000  C
  C98      1.0000 0.41137  0.36534  0.39600  Biso   1.000  C
  C99      1.0000 0.67784  0.87568  0.37930  Biso   1.000  C
  C100     1.0000 0.69708  0.97176  0.37950  Biso   1.000  C
  C101     1.0000 0.73429  0.03018  0.33050  Biso   1.000  C
  C102     1.0000 0.74611  0.99082  0.27835  Biso   1.000  C
  C103     1.0000 0.72231  0.89522  0.27630  Biso   1.000  C
  C104     1.0000 0.68744  0.83728  0.32760  Biso   1.000  C
  C105     1.0000 0.78447  0.05314  0.22455  Biso   1.000  C
  C106     1.0000 0.54955  0.83386  0.48949  Biso   1.000  C
  C107     1.0000 0.49945  0.87214  0.45914  Biso   1.000  C
  C108     1.0000 0.42642  0.88312  0.48697  Biso   1.000  C
  C109     1.0000 0.40347  0.85580  0.54516  Biso   1.000  C
  C110     1.0000 0.45357  0.81752  0.57552  Biso   1.000  C
  C111     1.0000 0.52661  0.80656  0.54768  Biso   1.000  C
  C112     1.0000 0.32133  0.86466  0.57380  Biso   1.000  C
  O1       1.0000 0.18772  0.09644  0.45010  Biso   1.000  O
  O2       1.0000 0.17398  0.17154  0.37364  Biso   1.000  O
  O3       1.0000 0.08750  0.69360  0.56180  Biso   1.000  O
  O4       1.0000 0.04473  0.66106  0.65600  Biso   1.000  O
  O5       1.0000 0.75570  0.98660  0.82456  Biso   1.000  O
  O6       1.0000 0.68700  0.85740  0.76980  Biso   1.000  O
  O7       1.0000 0.46729  0.17178  0.37523  Biso   1.000  O
  O8       1.0000 0.37660  0.09980  0.45011  Biso   1.000  O
  O9       1.0000 0.18249  0.90458  0.42446  Biso   1.000  O
  O10      1.0000 0.81228  0.90356  0.95010  Biso   1.000  O
  O11      1.0000 0.82602  0.82846  0.87364  Biso   1.000  O
  O12      1.0000 0.91250  0.30640  0.06180  Biso   1.000  O
  O13      1.0000 0.95527  0.33894  0.15600  Biso   1.000  O
  O14      1.0000 0.24430  0.01340  0.32456  Biso   1.000  O
  O15      1.0000 0.31300  0.14260  0.26980  Biso   1.000  O
  O16      1.0000 0.53271  0.82822  0.87523  Biso   1.000  O
  O17      1.0000 0.62340  0.90020  0.95011  Biso   1.000  O
  O18      1.0000 0.81751  0.09542  0.92446  Biso   1.000  O
  O19      1.0000 0.90872  0.09644  0.04990  Biso   1.000  O
  O20      1.0000 0.99756  0.17154  0.12636  Biso   1.000  O
  O21      1.0000 0.60610  0.69360  0.93820  Biso   1.000  O
  O22      1.0000 0.61633  0.66106  0.84400  Biso   1.000  O
  O23      1.0000 0.23090  0.98660  0.67544  Biso   1.000  O
  O24      1.0000 0.17040  0.85740  0.73020  Biso   1.000  O
  O25      1.0000 0.70449  0.17178  0.12477  Biso   1.000  O
  O26      1.0000 0.72320  0.09980  0.04989  Biso   1.000  O
  O27      1.0000 0.72209  0.90458  0.07554  Biso   1.000  O
  O28      1.0000 0.09128  0.90356  0.54990  Biso   1.000  O
  O29      1.0000 0.00244  0.82846  0.62636  Biso   1.000  O
  O30      1.0000 0.39390  0.30640  0.43820  Biso   1.000  O
  O31      1.0000 0.38367  0.33894  0.34400  Biso   1.000  O
  O32      1.0000 0.76910  0.01340  0.17544  Biso   1.000  O
  O33      1.0000 0.82960  0.14260  0.23020  Biso   1.000  O
  O34      1.0000 0.29551  0.82822  0.62477  Biso   1.000  O
  O35      1.0000 0.27680  0.90020  0.54989  Biso   1.000  O
  O36      1.0000 0.27791  0.09542  0.57554  Biso   1.000  O
