data_image0
_cell_length_a       12.371
_cell_length_b       12.371
_cell_length_c       24.0689
_cell_angle_alpha    90
_cell_angle_beta     90
_cell_angle_gamma    90

_symmetry_space_group_name_H-M    P 1
_symmetry_int_tables_number       1

loop_
  _symmetry_equiv_pos_as_xyz
  'x, y, z'

loop_
  _atom_site_label
  _atom_site_occupancy
  _atom_site_fract_x
  _atom_site_fract_y
  _atom_site_fract_z
  _atom_site_thermal_displace_type
  _atom_site_B_iso_or_equiv
  _atom_site_type_symbol
  Cu1      1.0000 0.89260  0.50000  0.00000  Biso   1.000  Cu
  Cu2      1.0000 0.10740  0.50000  0.00000  Biso   1.000  Cu
  Cu3      1.0000 0.50000  0.89260  0.50000  Biso   1.000  Cu
  Cu4      1.0000 0.50000  0.10740  0.50000  Biso   1.000  Cu
  Si1      1.0000 0.00000  0.00000  0.75000  Biso   1.000  Si
  Si2      1.0000 0.00000  0.00000  0.25000  Biso   1.000  Si
  H1       1.0000 0.83740  0.87000  0.80490  Biso   1.000  H
  H2       1.0000 0.84060  0.73350  0.87270  Biso   1.000  H
  H3       1.0000 0.16260  0.13000  0.80490  Biso   1.000  H
  H4       1.0000 0.15940  0.26650  0.87270  Biso   1.000  H
  H5       1.0000 0.13000  0.83740  0.30490  Biso   1.000  H
  H6       1.0000 0.26650  0.84060  0.37270  Biso   1.000  H
  H7       1.0000 0.87000  0.16260  0.30490  Biso   1.000  H
  H8       1.0000 0.73350  0.15940  0.37270  Biso   1.000  H
  H9       1.0000 0.16260  0.87000  0.19510  Biso   1.000  H
  H10      1.0000 0.15940  0.73350  0.12730  Biso   1.000  H
  H11      1.0000 0.83740  0.13000  0.19510  Biso   1.000  H
  H12      1.0000 0.84060  0.26650  0.12730  Biso   1.000  H
  H13      1.0000 0.87000  0.83740  0.69510  Biso   1.000  H
  H14      1.0000 0.73350  0.84060  0.62730  Biso   1.000  H
  H15      1.0000 0.13000  0.16260  0.69510  Biso   1.000  H
  H16      1.0000 0.26650  0.15940  0.62730  Biso   1.000  H
  H17      1.0000 0.16260  0.13000  0.19510  Biso   1.000  H
  H18      1.0000 0.15940  0.26650  0.12730  Biso   1.000  H
  H19      1.0000 0.83740  0.87000  0.19510  Biso   1.000  H
  H20      1.0000 0.84060  0.73350  0.12730  Biso   1.000  H
  H21      1.0000 0.87000  0.16260  0.69510  Biso   1.000  H
  H22      1.0000 0.73350  0.15940  0.62730  Biso   1.000  H
  H23      1.0000 0.13000  0.83740  0.69510  Biso   1.000  H
  H24      1.0000 0.26650  0.84060  0.62730  Biso   1.000  H
  H25      1.0000 0.83740  0.13000  0.80490  Biso   1.000  H
  H26      1.0000 0.84060  0.26650  0.87270  Biso   1.000  H
  H27      1.0000 0.16260  0.87000  0.80490  Biso   1.000  H
  H28      1.0000 0.15940  0.73350  0.87270  Biso   1.000  H
  H29      1.0000 0.13000  0.16260  0.30490  Biso   1.000  H
  H30      1.0000 0.26650  0.15940  0.37270  Biso   1.000  H
  H31      1.0000 0.87000  0.83740  0.30490  Biso   1.000  H
  H32      1.0000 0.73350  0.84060  0.37270  Biso   1.000  H
  C1       1.0000 0.90440  0.84320  0.81830  Biso   1.000  C
  C2       1.0000 0.90680  0.76290  0.85950  Biso   1.000  C
  C3       1.0000 0.09560  0.15680  0.81830  Biso   1.000  C
  C4       1.0000 0.09320  0.23710  0.85950  Biso   1.000  C
  C5       1.0000 0.15680  0.90440  0.31830  Biso   1.000  C
  C6       1.0000 0.23710  0.90680  0.35950  Biso   1.000  C
  C7       1.0000 0.84320  0.09560  0.31830  Biso   1.000  C
  C8       1.0000 0.76290  0.09320  0.35950  Biso   1.000  C
  C9       1.0000 0.09560  0.84320  0.18170  Biso   1.000  C
  C10      1.0000 0.09320  0.76290  0.14050  Biso   1.000  C
  C11      1.0000 0.90440  0.15680  0.18170  Biso   1.000  C
  C12      1.0000 0.90680  0.23710  0.14050  Biso   1.000  C
  C13      1.0000 0.84320  0.90440  0.68170  Biso   1.000  C
  C14      1.0000 0.76290  0.90680  0.64050  Biso   1.000  C
  C15      1.0000 0.15680  0.09560  0.68170  Biso   1.000  C
  C16      1.0000 0.23710  0.09320  0.64050  Biso   1.000  C
  C17      1.0000 0.09560  0.15680  0.18170  Biso   1.000  C
  C18      1.0000 0.09320  0.23710  0.14050  Biso   1.000  C
  C19      1.0000 0.90440  0.84320  0.18170  Biso   1.000  C
  C20      1.0000 0.90680  0.76290  0.14050  Biso   1.000  C
  C21      1.0000 0.84320  0.09560  0.68170  Biso   1.000  C
  C22      1.0000 0.76290  0.09320  0.64050  Biso   1.000  C
  C23      1.0000 0.15680  0.90440  0.68170  Biso   1.000  C
  C24      1.0000 0.23710  0.90680  0.64050  Biso   1.000  C
  C25      1.0000 0.90440  0.15680  0.81830  Biso   1.000  C
  C26      1.0000 0.90680  0.23710  0.85950  Biso   1.000  C
  C27      1.0000 0.09560  0.84320  0.81830  Biso   1.000  C
  C28      1.0000 0.09320  0.76290  0.85950  Biso   1.000  C
  C29      1.0000 0.15680  0.09560  0.31830  Biso   1.000  C
  C30      1.0000 0.23710  0.09320  0.35950  Biso   1.000  C
  C31      1.0000 0.84320  0.90440  0.31830  Biso   1.000  C
  C32      1.0000 0.76290  0.90680  0.35950  Biso   1.000  C
  C33      1.0000 0.00000  0.88260  0.79770  Biso   1.000  C
  C34      1.0000 0.00000  0.72680  0.88060  Biso   1.000  C
  C35      1.0000 0.00000  0.64190  0.92680  Biso   1.000  C
  C36      1.0000 0.00000  0.11740  0.79770  Biso   1.000  C
  C37      1.0000 0.00000  0.27320  0.88060  Biso   1.000  C
  C38      1.0000 0.00000  0.35810  0.92680  Biso   1.000  C
  C39      1.0000 0.11740  0.00000  0.29770  Biso   1.000  C
  C40      1.0000 0.27320  0.00000  0.38060  Biso   1.000  C
  C41      1.0000 0.35810  0.00000  0.42680  Biso   1.000  C
  C42      1.0000 0.88260  0.00000  0.29770  Biso   1.000  C
  C43      1.0000 0.72680  0.00000  0.38060  Biso   1.000  C
  C44      1.0000 0.64190  0.00000  0.42680  Biso   1.000  C
  C45      1.0000 0.00000  0.88260  0.20230  Biso   1.000  C
  C46      1.0000 0.00000  0.72680  0.11940  Biso   1.000  C
  C47      1.0000 0.00000  0.64190  0.07320  Biso   1.000  C
  C48      1.0000 0.00000  0.11740  0.20230  Biso   1.000  C
  C49      1.0000 0.00000  0.27320  0.11940  Biso   1.000  C
  C50      1.0000 0.00000  0.35810  0.07320  Biso   1.000  C
  C51      1.0000 0.88260  0.00000  0.70230  Biso   1.000  C
  C52      1.0000 0.72680  0.00000  0.61940  Biso   1.000  C
  C53      1.0000 0.64190  0.00000  0.57320  Biso   1.000  C
  C54      1.0000 0.11740  0.00000  0.70230  Biso   1.000  C
  C55      1.0000 0.27320  0.00000  0.61940  Biso   1.000  C
  C56      1.0000 0.35810  0.00000  0.57320  Biso   1.000  C
  O1       1.0000 0.90920  0.61220  0.94317  Biso   1.000  O
  O2       1.0000 0.09080  0.38780  0.94317  Biso   1.000  O
  O3       1.0000 0.38780  0.90920  0.44317  Biso   1.000  O
  O4       1.0000 0.61220  0.09080  0.44317  Biso   1.000  O
  O5       1.0000 0.09080  0.61220  0.05683  Biso   1.000  O
  O6       1.0000 0.90920  0.38780  0.05683  Biso   1.000  O
  O7       1.0000 0.61220  0.90920  0.55683  Biso   1.000  O
  O8       1.0000 0.38780  0.09080  0.55683  Biso   1.000  O
  O9       1.0000 0.09080  0.38780  0.05683  Biso   1.000  O
  O10      1.0000 0.90920  0.61220  0.05683  Biso   1.000  O
  O11      1.0000 0.61220  0.09080  0.55683  Biso   1.000  O
  O12      1.0000 0.38780  0.90920  0.55683  Biso   1.000  O
  O13      1.0000 0.90920  0.38780  0.94317  Biso   1.000  O
  O14      1.0000 0.09080  0.61220  0.94317  Biso   1.000  O
  O15      1.0000 0.38780  0.09080  0.44317  Biso   1.000  O
  O16      1.0000 0.61220  0.90920  0.44317  Biso   1.000  O
