data_image0
_cell_length_a       13.701
_cell_length_b       14.3441
_cell_length_c       24.5347
_cell_angle_alpha    78.3686
_cell_angle_beta     73.7865
_cell_angle_gamma    61.4722

_symmetry_space_group_name_H-M    P 1
_symmetry_int_tables_number       1

loop_
  _symmetry_equiv_pos_as_xyz
  'x, y, z'

loop_
  _atom_site_label
  _atom_site_occupancy
  _atom_site_fract_x
  _atom_site_fract_y
  _atom_site_fract_z
  _atom_site_thermal_displace_type
  _atom_site_B_iso_or_equiv
  _atom_site_type_symbol
  Zn1      1.0000 0.69125  0.08307  0.95633  Biso   1.000  Zn
  Zn2      1.0000 0.73065  0.41693  0.54367  Biso   1.000  Zn
  Zn3      1.0000 0.30875  0.91693  0.04367  Biso   1.000  Zn
  Zn4      1.0000 0.26935  0.58307  0.45633  Biso   1.000  Zn
  Zn5      1.0000 0.50000  0.00000  0.00000  Biso   1.000  Zn
  Zn6      1.0000 0.50000  0.50000  0.50000  Biso   1.000  Zn
  Si1      1.0000 0.07080  0.44863  0.82721  Biso   1.000  Si
  Si2      1.0000 0.34664  0.05137  0.67279  Biso   1.000  Si
  Si3      1.0000 0.92920  0.55137  0.17279  Biso   1.000  Si
  Si4      1.0000 0.65336  0.94863  0.32721  Biso   1.000  Si
  H1       1.0000 0.05320  0.66350  0.81010  Biso   1.000  H
  H2       1.0000 0.93120  0.82420  0.85200  Biso   1.000  H
  H3       1.0000 0.73360  0.69010  0.95230  Biso   1.000  H
  H4       1.0000 0.85550  0.52950  0.91030  Biso   1.000  H
  H5       1.0000 0.86850  0.47730  0.79510  Biso   1.000  H
  H6       1.0000 0.75700  0.38680  0.81540  Biso   1.000  H
  H7       1.0000 0.97990  0.15000  0.90420  Biso   1.000  H
  H8       1.0000 0.09130  0.24050  0.88390  Biso   1.000  H
  H9       1.0000 0.27070  0.23940  0.82980  Biso   1.000  H
  H10      1.0000 0.41980  0.15620  0.87700  Biso   1.000  H
  H11      1.0000 0.30540  0.42750  0.95190  Biso   1.000  H
  H12      1.0000 0.14980  0.50550  0.90890  Biso   1.000  H
  H13      1.0000 0.25790  0.49180  0.76280  Biso   1.000  H
  H14      1.0000 0.33200  0.52570  0.66830  Biso   1.000  H
  H15      1.0000 0.08420  0.50160  0.62200  Biso   1.000  H
  H16      1.0000 0.01660  0.45940  0.71680  Biso   1.000  H
  H17      1.0000 0.52680  0.83650  0.68990  Biso   1.000  H
  H18      1.0000 0.60740  0.67580  0.64800  Biso   1.000  H
  H19      1.0000 0.37600  0.80990  0.54770  Biso   1.000  H
  H20      1.0000 0.29530  0.97050  0.58970  Biso   1.000  H
  H21      1.0000 0.14090  0.02270  0.70490  Biso   1.000  H
  H22      1.0000 0.95920  0.11320  0.68460  Biso   1.000  H
  H23      1.0000 0.03410  0.35000  0.59580  Biso   1.000  H
  H24      1.0000 0.21570  0.25950  0.61610  Biso   1.000  H
  H25      1.0000 0.33990  0.26060  0.67020  Biso   1.000  H
  H26      1.0000 0.45300  0.34380  0.62300  Biso   1.000  H
  H27      1.0000 0.68480  0.07250  0.54810  Biso   1.000  H
  H28      1.0000 0.56420  0.99450  0.59110  Biso   1.000  H
  H29      1.0000 0.51250  0.00820  0.73720  Biso   1.000  H
  H30      1.0000 0.52600  0.97430  0.83170  Biso   1.000  H
  H31      1.0000 0.20780  0.99840  0.87800  Biso   1.000  H
  H32      1.0000 0.19280  0.04060  0.78320  Biso   1.000  H
  H33      1.0000 0.94680  0.33650  0.18990  Biso   1.000  H
  H34      1.0000 0.06880  0.17580  0.14800  Biso   1.000  H
  H35      1.0000 0.26640  0.30990  0.04770  Biso   1.000  H
  H36      1.0000 0.14450  0.47050  0.08970  Biso   1.000  H
  H37      1.0000 0.13150  0.52270  0.20490  Biso   1.000  H
  H38      1.0000 0.24300  0.61320  0.18460  Biso   1.000  H
  H39      1.0000 0.02010  0.85000  0.09580  Biso   1.000  H
  H40      1.0000 0.90870  0.75950  0.11610  Biso   1.000  H
  H41      1.0000 0.72930  0.76060  0.17020  Biso   1.000  H
  H42      1.0000 0.58020  0.84380  0.12300  Biso   1.000  H
  H43      1.0000 0.69460  0.57250  0.04810  Biso   1.000  H
  H44      1.0000 0.85020  0.49450  0.09110  Biso   1.000  H
  H45      1.0000 0.74210  0.50820  0.23720  Biso   1.000  H
  H46      1.0000 0.66800  0.47430  0.33170  Biso   1.000  H
  H47      1.0000 0.91580  0.49840  0.37800  Biso   1.000  H
  H48      1.0000 0.98340  0.54060  0.28320  Biso   1.000  H
  H49      1.0000 0.47320  0.16350  0.31010  Biso   1.000  H
  H50      1.0000 0.39260  0.32420  0.35200  Biso   1.000  H
  H51      1.0000 0.62400  0.19010  0.45230  Biso   1.000  H
  H52      1.0000 0.70470  0.02950  0.41030  Biso   1.000  H
  H53      1.0000 0.85910  0.97730  0.29510  Biso   1.000  H
  H54      1.0000 0.04080  0.88680  0.31540  Biso   1.000  H
  H55      1.0000 0.96590  0.65000  0.40420  Biso   1.000  H
  H56      1.0000 0.78430  0.74050  0.38390  Biso   1.000  H
  H57      1.0000 0.66010  0.73940  0.32980  Biso   1.000  H
  H58      1.0000 0.54700  0.65620  0.37700  Biso   1.000  H
  H59      1.0000 0.31520  0.92750  0.45190  Biso   1.000  H
  H60      1.0000 0.43580  0.00550  0.40890  Biso   1.000  H
  H61      1.0000 0.48750  0.99180  0.26280  Biso   1.000  H
  H62      1.0000 0.47400  0.02570  0.16830  Biso   1.000  H
  H63      1.0000 0.79220  0.00160  0.12200  Biso   1.000  H
  H64      1.0000 0.80720  0.95940  0.21680  Biso   1.000  H
  C1       1.0000 0.96576  0.58144  0.85624  Biso   1.000  C
  C2       1.0000 0.98827  0.66896  0.83890  Biso   1.000  C
  C3       1.0000 0.91592  0.76436  0.86380  Biso   1.000  C
  C4       1.0000 0.82096  0.77218  0.90610  Biso   1.000  C
  C5       1.0000 0.79844  0.68472  0.92340  Biso   1.000  C
  C6       1.0000 0.87089  0.58932  0.89850  Biso   1.000  C
  C7       1.0000 0.74685  0.87753  0.93477  Biso   1.000  C
  C8       1.0000 0.99037  0.36749  0.83757  Biso   1.000  C
  C9       1.0000 0.89100  0.41098  0.81722  Biso   1.000  C
  C10      1.0000 0.82490  0.35710  0.82930  Biso   1.000  C
  C11      1.0000 0.85801  0.25991  0.86167  Biso   1.000  C
  C12      1.0000 0.95730  0.21640  0.88200  Biso   1.000  C
  C13      1.0000 0.02350  0.27020  0.87000  Biso   1.000  C
  C14      1.0000 0.78430  0.20400  0.87760  Biso   1.000  C
  C15      1.0000 0.19304  0.38167  0.86505  Biso   1.000  C
  C16      1.0000 0.27600  0.27720  0.85560  Biso   1.000  C
  C17      1.0000 0.36586  0.22798  0.88330  Biso   1.000  C
  C18      1.0000 0.37868  0.28126  0.91998  Biso   1.000  C
  C19      1.0000 0.29740  0.38780  0.92820  Biso   1.000  C
  C20      1.0000 0.20570  0.43450  0.90170  Biso   1.000  C
  C21      1.0000 0.47651  0.22931  0.94867  Biso   1.000  C
  C22      1.0000 0.12861  0.47360  0.75018  Biso   1.000  C
  C23      1.0000 0.22250  0.49292  0.73428  Biso   1.000  C
  C24      1.0000 0.26640  0.51386  0.67794  Biso   1.000  C
  C25      1.0000 0.21632  0.51781  0.63555  Biso   1.000  C
  C26      1.0000 0.12070  0.49850  0.65050  Biso   1.000  C
  C27      1.0000 0.07970  0.47510  0.70710  Biso   1.000  C
  C28      1.0000 0.26766  0.53477  0.57431  Biso   1.000  C
  C29      1.0000 0.40344  0.91856  0.64376  Biso   1.000  C
  C30      1.0000 0.49613  0.83104  0.66110  Biso   1.000  C
  C31      1.0000 0.54408  0.73564  0.63620  Biso   1.000  C
  C32      1.0000 0.49924  0.72782  0.59390  Biso   1.000  C
  C33      1.0000 0.40656  0.81528  0.57660  Biso   1.000  C
  C34      1.0000 0.35871  0.91068  0.60150  Biso   1.000  C
  C35      1.0000 0.55915  0.62247  0.56523  Biso   1.000  C
  C36      1.0000 0.19543  0.13251  0.66243  Biso   1.000  C
  C37      1.0000 0.11920  0.08902  0.68278  Biso   1.000  C
  C38      1.0000 0.01130  0.14290  0.67070  Biso   1.000  C
  C39      1.0000 0.97959  0.24009  0.63833  Biso   1.000  C
  C40      1.0000 0.05570  0.28360  0.61800  Biso   1.000  C
  C41      1.0000 0.16370  0.22980  0.63000  Biso   1.000  C
  C42      1.0000 0.86590  0.29600  0.62240  Biso   1.000  C
  C43      1.0000 0.43976  0.11833  0.63495  Biso   1.000  C
  C44      1.0000 0.40880  0.22280  0.64440  Biso   1.000  C
  C45      1.0000 0.47714  0.27202  0.61670  Biso   1.000  C
  C46      1.0000 0.57992  0.21874  0.58002  Biso   1.000  C
  C47      1.0000 0.61340  0.11220  0.57180  Biso   1.000  C
  C48      1.0000 0.54190  0.06550  0.59830  Biso   1.000  C
  C49      1.0000 0.65449  0.27069  0.55133  Biso   1.000  C
  C50      1.0000 0.35239  0.02640  0.74982  Biso   1.000  C
  C51      1.0000 0.44970  0.00708  0.76572  Biso   1.000  C
  C52      1.0000 0.45820  0.98614  0.82206  Biso   1.000  C
  C53      1.0000 0.36968  0.98219  0.86445  Biso   1.000  C
  C54      1.0000 0.26970  0.00150  0.84950  Biso   1.000  C
  C55      1.0000 0.26190  0.02490  0.79290  Biso   1.000  C
  C56      1.0000 0.37674  0.96523  0.92569  Biso   1.000  C
  C57      1.0000 0.03424  0.41856  0.14376  Biso   1.000  C
  C58      1.0000 0.01173  0.33104  0.16110  Biso   1.000  C
  C59      1.0000 0.08408  0.23564  0.13620  Biso   1.000  C
  C60      1.0000 0.17904  0.22782  0.09390  Biso   1.000  C
  C61      1.0000 0.20156  0.31528  0.07660  Biso   1.000  C
  C62      1.0000 0.12911  0.41068  0.10150  Biso   1.000  C
  C63      1.0000 0.25315  0.12247  0.06523  Biso   1.000  C
  C64      1.0000 0.00963  0.63251  0.16243  Biso   1.000  C
  C65      1.0000 0.10900  0.58902  0.18278  Biso   1.000  C
  C66      1.0000 0.17510  0.64290  0.17070  Biso   1.000  C
  C67      1.0000 0.14199  0.74009  0.13833  Biso   1.000  C
  C68      1.0000 0.04270  0.78360  0.11800  Biso   1.000  C
  C69      1.0000 0.97650  0.72980  0.13000  Biso   1.000  C
  C70      1.0000 0.21570  0.79600  0.12240  Biso   1.000  C
  C71      1.0000 0.80696  0.61833  0.13495  Biso   1.000  C
  C72      1.0000 0.72400  0.72280  0.14440  Biso   1.000  C
  C73      1.0000 0.63414  0.77202  0.11670  Biso   1.000  C
  C74      1.0000 0.62132  0.71874  0.08002  Biso   1.000  C
  C75      1.0000 0.70260  0.61220  0.07180  Biso   1.000  C
  C76      1.0000 0.79430  0.56550  0.09830  Biso   1.000  C
  C77      1.0000 0.52349  0.77069  0.05133  Biso   1.000  C
  C78      1.0000 0.87139  0.52640  0.24982  Biso   1.000  C
  C79      1.0000 0.77750  0.50708  0.26572  Biso   1.000  C
  C80      1.0000 0.73360  0.48614  0.32206  Biso   1.000  C
  C81      1.0000 0.78368  0.48219  0.36445  Biso   1.000  C
  C82      1.0000 0.87930  0.50150  0.34950  Biso   1.000  C
  C83      1.0000 0.92030  0.52490  0.29290  Biso   1.000  C
  C84      1.0000 0.73234  0.46523  0.42569  Biso   1.000  C
  C85      1.0000 0.59656  0.08144  0.35624  Biso   1.000  C
  C86      1.0000 0.50387  0.16896  0.33890  Biso   1.000  C
  C87      1.0000 0.45592  0.26436  0.36380  Biso   1.000  C
  C88      1.0000 0.50076  0.27218  0.40610  Biso   1.000  C
  C89      1.0000 0.59344  0.18472  0.42340  Biso   1.000  C
  C90      1.0000 0.64129  0.08932  0.39850  Biso   1.000  C
  C91      1.0000 0.44085  0.37753  0.43477  Biso   1.000  C
  C92      1.0000 0.80457  0.86749  0.33757  Biso   1.000  C
  C93      1.0000 0.88080  0.91098  0.31722  Biso   1.000  C
  C94      1.0000 0.98870  0.85710  0.32930  Biso   1.000  C
  C95      1.0000 0.02041  0.75991  0.36167  Biso   1.000  C
  C96      1.0000 0.94430  0.71640  0.38200  Biso   1.000  C
  C97      1.0000 0.83630  0.77020  0.37000  Biso   1.000  C
  C98      1.0000 0.13410  0.70400  0.37760  Biso   1.000  C
  C99      1.0000 0.56024  0.88167  0.36505  Biso   1.000  C
  C100     1.0000 0.59120  0.77720  0.35560  Biso   1.000  C
  C101     1.0000 0.52286  0.72798  0.38330  Biso   1.000  C
  C102     1.0000 0.42008  0.78126  0.41998  Biso   1.000  C
  C103     1.0000 0.38660  0.88780  0.42820  Biso   1.000  C
  C104     1.0000 0.45810  0.93450  0.40170  Biso   1.000  C
  C105     1.0000 0.34551  0.72931  0.44867  Biso   1.000  C
  C106     1.0000 0.64761  0.97360  0.25018  Biso   1.000  C
  C107     1.0000 0.55030  0.99292  0.23428  Biso   1.000  C
  C108     1.0000 0.54180  0.01386  0.17794  Biso   1.000  C
  C109     1.0000 0.63032  0.01781  0.13555  Biso   1.000  C
  C110     1.0000 0.73030  0.99850  0.15050  Biso   1.000  C
  C111     1.0000 0.73810  0.97510  0.20710  Biso   1.000  C
  C112     1.0000 0.62326  0.03477  0.07431  Biso   1.000  C
  O1       1.0000 0.77669  0.94942  0.91820  Biso   1.000  O
  O2       1.0000 0.66130  0.88260  0.97220  Biso   1.000  O
  O3       1.0000 0.70720  0.22520  0.85340  Biso   1.000  O
  O4       1.0000 0.78980  0.15100  0.92700  Biso   1.000  O
  O5       1.0000 0.53926  0.12706  0.94422  Biso   1.000  O
  O6       1.0000 0.49789  0.28136  0.97366  Biso   1.000  O
  O7       1.0000 0.36475  0.53153  0.56517  Biso   1.000  O
  O8       1.0000 0.21261  0.55021  0.53737  Biso   1.000  O
  O9       1.0000 0.64431  0.55058  0.58180  Biso   1.000  O
  O10      1.0000 0.51610  0.61740  0.52780  Biso   1.000  O
  O11      1.0000 0.78580  0.27480  0.64660  Biso   1.000  O
  O12      1.0000 0.86780  0.34900  0.57300  Biso   1.000  O
  O13      1.0000 0.61054  0.37294  0.55578  Biso   1.000  O
  O14      1.0000 0.75291  0.21864  0.52634  Biso   1.000  O
  O15      1.0000 0.46145  0.96847  0.93483  Biso   1.000  O
  O16      1.0000 0.30019  0.94979  0.96263  Biso   1.000  O
  O17      1.0000 0.22331  0.05058  0.08180  Biso   1.000  O
  O18      1.0000 0.33870  0.11740  0.02780  Biso   1.000  O
  O19      1.0000 0.29280  0.77480  0.14660  Biso   1.000  O
  O20      1.0000 0.21020  0.84900  0.07300  Biso   1.000  O
  O21      1.0000 0.46074  0.87294  0.05578  Biso   1.000  O
  O22      1.0000 0.50211  0.71864  0.02634  Biso   1.000  O
  O23      1.0000 0.63525  0.46847  0.43483  Biso   1.000  O
  O24      1.0000 0.78739  0.44979  0.46263  Biso   1.000  O
  O25      1.0000 0.35569  0.44942  0.41820  Biso   1.000  O
  O26      1.0000 0.48390  0.38260  0.47220  Biso   1.000  O
  O27      1.0000 0.21420  0.72520  0.35340  Biso   1.000  O
  O28      1.0000 0.13220  0.65100  0.42700  Biso   1.000  O
  O29      1.0000 0.38946  0.62706  0.44422  Biso   1.000  O
  O30      1.0000 0.24709  0.78136  0.47366  Biso   1.000  O
  O31      1.0000 0.53855  0.03153  0.06517  Biso   1.000  O
  O32      1.0000 0.69981  0.05021  0.03737  Biso   1.000  O
