data_image0
_cell_length_a       14.1529
_cell_length_b       23.406
_cell_length_c       23.8325
_cell_angle_alpha    90
_cell_angle_beta     90
_cell_angle_gamma    90

_symmetry_space_group_name_H-M    P 1
_symmetry_int_tables_number       1

loop_
  _symmetry_equiv_pos_as_xyz
  'x, y, z'

loop_
  _atom_site_label
  _atom_site_occupancy
  _atom_site_fract_x
  _atom_site_fract_y
  _atom_site_fract_z
  _atom_site_thermal_displace_type
  _atom_site_B_iso_or_equiv
  _atom_site_type_symbol
  Zn1      1.0000 0.43963  0.13842  0.98599  Biso   1.000  Zn
  Zn2      1.0000 0.06037  0.36158  0.98599  Biso   1.000  Zn
  Zn3      1.0000 0.06037  0.13842  0.51401  Biso   1.000  Zn
  Zn4      1.0000 0.43963  0.36158  0.51401  Biso   1.000  Zn
  Zn5      1.0000 0.56037  0.86158  0.01401  Biso   1.000  Zn
  Zn6      1.0000 0.93963  0.63842  0.01401  Biso   1.000  Zn
  Zn7      1.0000 0.93963  0.86158  0.48599  Biso   1.000  Zn
  Zn8      1.0000 0.56037  0.63842  0.48599  Biso   1.000  Zn
  Zn9      1.0000 0.00000  0.50000  0.00000  Biso   1.000  Zn
  Zn10     1.0000 0.50000  0.00000  0.00000  Biso   1.000  Zn
  Zn11     1.0000 0.50000  0.50000  0.50000  Biso   1.000  Zn
  Zn12     1.0000 0.00000  0.00000  0.50000  Biso   1.000  Zn
  Si1      1.0000 0.43780  0.48583  0.86033  Biso   1.000  Si
  Si2      1.0000 0.06220  0.01417  0.86033  Biso   1.000  Si
  Si3      1.0000 0.06220  0.48583  0.63967  Biso   1.000  Si
  Si4      1.0000 0.43780  0.01417  0.63967  Biso   1.000  Si
  Si5      1.0000 0.56220  0.51417  0.13967  Biso   1.000  Si
  Si6      1.0000 0.93780  0.98583  0.13967  Biso   1.000  Si
  Si7      1.0000 0.93780  0.51417  0.36033  Biso   1.000  Si
  Si8      1.0000 0.56220  0.98583  0.36033  Biso   1.000  Si
  H1       1.0000 0.28910  0.40850  0.89560  Biso   1.000  H
  H2       1.0000 0.28120  0.31610  0.93290  Biso   1.000  H
  H3       1.0000 0.56720  0.30990  0.93930  Biso   1.000  H
  H4       1.0000 0.57510  0.40230  0.90210  Biso   1.000  H
  H5       1.0000 0.63620  0.47160  0.82540  Biso   1.000  H
  H6       1.0000 0.78180  0.49800  0.86230  Biso   1.000  H
  H7       1.0000 0.65080  0.60580  0.96850  Biso   1.000  H
  H8       1.0000 0.50590  0.57630  0.93560  Biso   1.000  H
  H9       1.0000 0.29200  0.56250  0.81150  Biso   1.000  H
  H10      1.0000 0.16190  0.61290  0.84610  Biso   1.000  H
  H11      1.0000 0.22050  0.55770  0.00170  Biso   1.000  H
  H12      1.0000 0.35380  0.51050  0.96890  Biso   1.000  H
  H13      1.0000 0.36020  0.39690  0.78700  Biso   1.000  H
  H14      1.0000 0.35900  0.37940  0.69050  Biso   1.000  H
  H15      1.0000 0.49430  0.52790  0.66260  Biso   1.000  H
  H16      1.0000 0.49730  0.54630  0.75860  Biso   1.000  H
  H17      1.0000 0.21090  0.09150  0.89560  Biso   1.000  H
  H18      1.0000 0.21880  0.18390  0.93290  Biso   1.000  H
  H19      1.0000 0.93280  0.19010  0.93930  Biso   1.000  H
  H20      1.0000 0.92490  0.09770  0.90210  Biso   1.000  H
  H21      1.0000 0.86380  0.02840  0.82540  Biso   1.000  H
  H22      1.0000 0.71820  0.00200  0.86230  Biso   1.000  H
  H23      1.0000 0.84920  0.89420  0.96850  Biso   1.000  H
  H24      1.0000 0.99410  0.92370  0.93560  Biso   1.000  H
  H25      1.0000 0.20800  0.93750  0.81150  Biso   1.000  H
  H26      1.0000 0.33810  0.88710  0.84610  Biso   1.000  H
  H27      1.0000 0.27950  0.94230  0.00170  Biso   1.000  H
  H28      1.0000 0.14620  0.98950  0.96890  Biso   1.000  H
  H29      1.0000 0.13980  0.10310  0.78700  Biso   1.000  H
  H30      1.0000 0.14100  0.12060  0.69050  Biso   1.000  H
  H31      1.0000 0.00570  0.97210  0.66260  Biso   1.000  H
  H32      1.0000 0.00270  0.95370  0.75860  Biso   1.000  H
  H33      1.0000 0.21090  0.40850  0.60440  Biso   1.000  H
  H34      1.0000 0.21880  0.31610  0.56710  Biso   1.000  H
  H35      1.0000 0.93280  0.30990  0.56070  Biso   1.000  H
  H36      1.0000 0.92490  0.40230  0.59790  Biso   1.000  H
  H37      1.0000 0.86380  0.47160  0.67460  Biso   1.000  H
  H38      1.0000 0.71820  0.49800  0.63770  Biso   1.000  H
  H39      1.0000 0.84920  0.60580  0.53150  Biso   1.000  H
  H40      1.0000 0.99410  0.57630  0.56440  Biso   1.000  H
  H41      1.0000 0.20800  0.56250  0.68850  Biso   1.000  H
  H42      1.0000 0.33810  0.61290  0.65390  Biso   1.000  H
  H43      1.0000 0.27950  0.55770  0.49830  Biso   1.000  H
  H44      1.0000 0.14620  0.51050  0.53110  Biso   1.000  H
  H45      1.0000 0.13980  0.39690  0.71300  Biso   1.000  H
  H46      1.0000 0.14100  0.37940  0.80950  Biso   1.000  H
  H47      1.0000 0.00570  0.52790  0.83740  Biso   1.000  H
  H48      1.0000 0.00270  0.54630  0.74140  Biso   1.000  H
  H49      1.0000 0.28910  0.09150  0.60440  Biso   1.000  H
  H50      1.0000 0.28120  0.18390  0.56710  Biso   1.000  H
  H51      1.0000 0.56720  0.19010  0.56070  Biso   1.000  H
  H52      1.0000 0.57510  0.09770  0.59790  Biso   1.000  H
  H53      1.0000 0.63620  0.02840  0.67460  Biso   1.000  H
  H54      1.0000 0.78180  0.00200  0.63770  Biso   1.000  H
  H55      1.0000 0.65080  0.89420  0.53150  Biso   1.000  H
  H56      1.0000 0.50590  0.92370  0.56440  Biso   1.000  H
  H57      1.0000 0.29200  0.93750  0.68850  Biso   1.000  H
  H58      1.0000 0.16190  0.88710  0.65390  Biso   1.000  H
  H59      1.0000 0.22050  0.94230  0.49830  Biso   1.000  H
  H60      1.0000 0.35380  0.98950  0.53110  Biso   1.000  H
  H61      1.0000 0.36020  0.10310  0.71300  Biso   1.000  H
  H62      1.0000 0.35900  0.12060  0.80950  Biso   1.000  H
  H63      1.0000 0.49430  0.97210  0.83740  Biso   1.000  H
  H64      1.0000 0.49730  0.95370  0.74140  Biso   1.000  H
  H65      1.0000 0.71090  0.59150  0.10440  Biso   1.000  H
  H66      1.0000 0.71880  0.68390  0.06710  Biso   1.000  H
  H67      1.0000 0.43280  0.69010  0.06070  Biso   1.000  H
  H68      1.0000 0.42490  0.59770  0.09790  Biso   1.000  H
  H69      1.0000 0.36380  0.52840  0.17460  Biso   1.000  H
  H70      1.0000 0.21820  0.50200  0.13770  Biso   1.000  H
  H71      1.0000 0.34920  0.39420  0.03150  Biso   1.000  H
  H72      1.0000 0.49410  0.42370  0.06440  Biso   1.000  H
  H73      1.0000 0.70800  0.43750  0.18850  Biso   1.000  H
  H74      1.0000 0.83810  0.38710  0.15390  Biso   1.000  H
  H75      1.0000 0.77950  0.44230  0.99830  Biso   1.000  H
  H76      1.0000 0.64620  0.48950  0.03110  Biso   1.000  H
  H77      1.0000 0.63980  0.60310  0.21300  Biso   1.000  H
  H78      1.0000 0.64100  0.62060  0.30950  Biso   1.000  H
  H79      1.0000 0.50570  0.47210  0.33740  Biso   1.000  H
  H80      1.0000 0.50270  0.45370  0.24140  Biso   1.000  H
  H81      1.0000 0.78910  0.90850  0.10440  Biso   1.000  H
  H82      1.0000 0.78120  0.81610  0.06710  Biso   1.000  H
  H83      1.0000 0.06720  0.80990  0.06070  Biso   1.000  H
  H84      1.0000 0.07510  0.90230  0.09790  Biso   1.000  H
  H85      1.0000 0.13620  0.97160  0.17460  Biso   1.000  H
  H86      1.0000 0.28180  0.99800  0.13770  Biso   1.000  H
  H87      1.0000 0.15080  0.10580  0.03150  Biso   1.000  H
  H88      1.0000 0.00590  0.07630  0.06440  Biso   1.000  H
  H89      1.0000 0.79200  0.06250  0.18850  Biso   1.000  H
  H90      1.0000 0.66190  0.11290  0.15390  Biso   1.000  H
  H91      1.0000 0.72050  0.05770  0.99830  Biso   1.000  H
  H92      1.0000 0.85380  0.01050  0.03110  Biso   1.000  H
  H93      1.0000 0.86020  0.89690  0.21300  Biso   1.000  H
  H94      1.0000 0.85900  0.87940  0.30950  Biso   1.000  H
  H95      1.0000 0.99430  0.02790  0.33740  Biso   1.000  H
  H96      1.0000 0.99730  0.04630  0.24140  Biso   1.000  H
  H97      1.0000 0.78910  0.59150  0.39560  Biso   1.000  H
  H98      1.0000 0.78120  0.68390  0.43290  Biso   1.000  H
  H99      1.0000 0.06720  0.69010  0.43930  Biso   1.000  H
  H100     1.0000 0.07510  0.59770  0.40210  Biso   1.000  H
  H101     1.0000 0.13620  0.52840  0.32540  Biso   1.000  H
  H102     1.0000 0.28180  0.50200  0.36230  Biso   1.000  H
  H103     1.0000 0.15080  0.39420  0.46850  Biso   1.000  H
  H104     1.0000 0.00590  0.42370  0.43560  Biso   1.000  H
  H105     1.0000 0.79200  0.43750  0.31150  Biso   1.000  H
  H106     1.0000 0.66190  0.38710  0.34610  Biso   1.000  H
  H107     1.0000 0.72050  0.44230  0.50170  Biso   1.000  H
  H108     1.0000 0.85380  0.48950  0.46890  Biso   1.000  H
  H109     1.0000 0.86020  0.60310  0.28700  Biso   1.000  H
  H110     1.0000 0.85900  0.62060  0.19050  Biso   1.000  H
  H111     1.0000 0.99430  0.47210  0.16260  Biso   1.000  H
  H112     1.0000 0.99730  0.45370  0.25860  Biso   1.000  H
  H113     1.0000 0.71090  0.90850  0.39560  Biso   1.000  H
  H114     1.0000 0.71880  0.81610  0.43290  Biso   1.000  H
  H115     1.0000 0.43280  0.80990  0.43930  Biso   1.000  H
  H116     1.0000 0.42490  0.90230  0.40210  Biso   1.000  H
  H117     1.0000 0.36380  0.97160  0.32540  Biso   1.000  H
  H118     1.0000 0.21820  0.99800  0.36230  Biso   1.000  H
  H119     1.0000 0.34920  0.10580  0.46850  Biso   1.000  H
  H120     1.0000 0.49410  0.07630  0.43560  Biso   1.000  H
  H121     1.0000 0.70800  0.06250  0.31150  Biso   1.000  H
  H122     1.0000 0.83810  0.11290  0.34610  Biso   1.000  H
  H123     1.0000 0.77950  0.05770  0.50170  Biso   1.000  H
  H124     1.0000 0.64620  0.01050  0.46890  Biso   1.000  H
  H125     1.0000 0.63980  0.89690  0.28700  Biso   1.000  H
  H126     1.0000 0.64100  0.87940  0.19050  Biso   1.000  H
  H127     1.0000 0.50570  0.02790  0.16260  Biso   1.000  H
  H128     1.0000 0.50270  0.04630  0.25860  Biso   1.000  H
  C1       1.0000 0.43280  0.41410  0.89540  Biso   1.000  C
  C2       1.0000 0.34550  0.38850  0.90450  Biso   1.000  C
  C3       1.0000 0.34080  0.33360  0.92660  Biso   1.000  C
  C4       1.0000 0.42340  0.30430  0.93960  Biso   1.000  C
  C5       1.0000 0.51070  0.32990  0.93050  Biso   1.000  C
  C6       1.0000 0.51540  0.38480  0.90830  Biso   1.000  C
  C7       1.0000 0.41900  0.24350  0.96190  Biso   1.000  C
  C8       1.0000 0.55390  0.51994  0.87805  Biso   1.000  C
  C9       1.0000 0.63870  0.49780  0.85583  Biso   1.000  C
  C10      1.0000 0.72560  0.51370  0.87759  Biso   1.000  C
  C11      1.0000 0.73110  0.55166  0.92068  Biso   1.000  C
  C12      1.0000 0.64760  0.57684  0.94064  Biso   1.000  C
  C13      1.0000 0.56170  0.56000  0.92028  Biso   1.000  C
  C14      1.0000 0.82250  0.56490  0.94911  Biso   1.000  C
  C15      1.0000 0.33660  0.52975  0.88612  Biso   1.000  C
  C16      1.0000 0.27790  0.56110  0.85048  Biso   1.000  C
  C17      1.0000 0.19950  0.59038  0.87066  Biso   1.000  C
  C18      1.0000 0.17700  0.58628  0.92661  Biso   1.000  C
  C19      1.0000 0.23470  0.55809  0.96270  Biso   1.000  C
  C20      1.0000 0.31400  0.52998  0.94311  Biso   1.000  C
  C21      1.0000 0.08650  0.61164  0.94726  Biso   1.000  C
  C22      1.0000 0.43070  0.47285  0.78343  Biso   1.000  C
  C23      1.0000 0.38840  0.42360  0.76207  Biso   1.000  C
  C24      1.0000 0.38720  0.41340  0.70443  Biso   1.000  C
  C25      1.0000 0.42640  0.45204  0.66717  Biso   1.000  C
  C26      1.0000 0.46720  0.50115  0.68783  Biso   1.000  C
  C27      1.0000 0.46940  0.51200  0.74516  Biso   1.000  C
  C28      1.0000 0.42750  0.43910  0.60540  Biso   1.000  C
  C29      1.0000 0.06720  0.08590  0.89540  Biso   1.000  C
  C30      1.0000 0.15450  0.11150  0.90450  Biso   1.000  C
  C31      1.0000 0.15920  0.16640  0.92660  Biso   1.000  C
  C32      1.0000 0.07660  0.19570  0.93960  Biso   1.000  C
  C33      1.0000 0.98930  0.17010  0.93050  Biso   1.000  C
  C34      1.0000 0.98460  0.11520  0.90830  Biso   1.000  C
  C35      1.0000 0.08100  0.25650  0.96190  Biso   1.000  C
  C36      1.0000 0.94610  0.98006  0.87805  Biso   1.000  C
  C37      1.0000 0.86130  0.00220  0.85583  Biso   1.000  C
  C38      1.0000 0.77440  0.98630  0.87759  Biso   1.000  C
  C39      1.0000 0.76890  0.94834  0.92068  Biso   1.000  C
  C40      1.0000 0.85240  0.92316  0.94064  Biso   1.000  C
  C41      1.0000 0.93830  0.94000  0.92028  Biso   1.000  C
  C42      1.0000 0.67750  0.93510  0.94911  Biso   1.000  C
  C43      1.0000 0.16340  0.97025  0.88612  Biso   1.000  C
  C44      1.0000 0.22210  0.93890  0.85048  Biso   1.000  C
  C45      1.0000 0.30050  0.90962  0.87066  Biso   1.000  C
  C46      1.0000 0.32300  0.91372  0.92661  Biso   1.000  C
  C47      1.0000 0.26530  0.94191  0.96270  Biso   1.000  C
  C48      1.0000 0.18600  0.97002  0.94311  Biso   1.000  C
  C49      1.0000 0.41350  0.88836  0.94726  Biso   1.000  C
  C50      1.0000 0.06930  0.02715  0.78343  Biso   1.000  C
  C51      1.0000 0.11160  0.07640  0.76207  Biso   1.000  C
  C52      1.0000 0.11280  0.08660  0.70443  Biso   1.000  C
  C53      1.0000 0.07360  0.04796  0.66717  Biso   1.000  C
  C54      1.0000 0.03280  0.99885  0.68783  Biso   1.000  C
  C55      1.0000 0.03060  0.98800  0.74516  Biso   1.000  C
  C56      1.0000 0.07250  0.06090  0.60540  Biso   1.000  C
  C57      1.0000 0.06720  0.41410  0.60460  Biso   1.000  C
  C58      1.0000 0.15450  0.38850  0.59550  Biso   1.000  C
  C59      1.0000 0.15920  0.33360  0.57340  Biso   1.000  C
  C60      1.0000 0.07660  0.30430  0.56040  Biso   1.000  C
  C61      1.0000 0.98930  0.32990  0.56950  Biso   1.000  C
  C62      1.0000 0.98460  0.38480  0.59170  Biso   1.000  C
  C63      1.0000 0.08100  0.24350  0.53810  Biso   1.000  C
  C64      1.0000 0.94610  0.51994  0.62195  Biso   1.000  C
  C65      1.0000 0.86130  0.49780  0.64417  Biso   1.000  C
  C66      1.0000 0.77440  0.51370  0.62241  Biso   1.000  C
  C67      1.0000 0.76890  0.55166  0.57932  Biso   1.000  C
  C68      1.0000 0.85240  0.57684  0.55936  Biso   1.000  C
  C69      1.0000 0.93830  0.56000  0.57972  Biso   1.000  C
  C70      1.0000 0.67750  0.56490  0.55089  Biso   1.000  C
  C71      1.0000 0.16340  0.52975  0.61388  Biso   1.000  C
  C72      1.0000 0.22210  0.56110  0.64952  Biso   1.000  C
  C73      1.0000 0.30050  0.59038  0.62934  Biso   1.000  C
  C74      1.0000 0.32300  0.58628  0.57339  Biso   1.000  C
  C75      1.0000 0.26530  0.55809  0.53730  Biso   1.000  C
  C76      1.0000 0.18600  0.52998  0.55689  Biso   1.000  C
  C77      1.0000 0.41350  0.61164  0.55274  Biso   1.000  C
  C78      1.0000 0.06930  0.47285  0.71657  Biso   1.000  C
  C79      1.0000 0.11160  0.42360  0.73793  Biso   1.000  C
  C80      1.0000 0.11280  0.41340  0.79557  Biso   1.000  C
  C81      1.0000 0.07360  0.45204  0.83283  Biso   1.000  C
  C82      1.0000 0.03280  0.50115  0.81217  Biso   1.000  C
  C83      1.0000 0.03060  0.51200  0.75484  Biso   1.000  C
  C84      1.0000 0.07250  0.43910  0.89460  Biso   1.000  C
  C85      1.0000 0.43280  0.08590  0.60460  Biso   1.000  C
  C86      1.0000 0.34550  0.11150  0.59550  Biso   1.000  C
  C87      1.0000 0.34080  0.16640  0.57340  Biso   1.000  C
  C88      1.0000 0.42340  0.19570  0.56040  Biso   1.000  C
  C89      1.0000 0.51070  0.17010  0.56950  Biso   1.000  C
  C90      1.0000 0.51540  0.11520  0.59170  Biso   1.000  C
  C91      1.0000 0.41900  0.25650  0.53810  Biso   1.000  C
  C92      1.0000 0.55390  0.98006  0.62195  Biso   1.000  C
  C93      1.0000 0.63870  0.00220  0.64417  Biso   1.000  C
  C94      1.0000 0.72560  0.98630  0.62241  Biso   1.000  C
  C95      1.0000 0.73110  0.94834  0.57932  Biso   1.000  C
  C96      1.0000 0.64760  0.92316  0.55936  Biso   1.000  C
  C97      1.0000 0.56170  0.94000  0.57972  Biso   1.000  C
  C98      1.0000 0.82250  0.93510  0.55089  Biso   1.000  C
  C99      1.0000 0.33660  0.97025  0.61388  Biso   1.000  C
  C100     1.0000 0.27790  0.93890  0.64952  Biso   1.000  C
  C101     1.0000 0.19950  0.90962  0.62934  Biso   1.000  C
  C102     1.0000 0.17700  0.91372  0.57339  Biso   1.000  C
  C103     1.0000 0.23470  0.94191  0.53730  Biso   1.000  C
  C104     1.0000 0.31400  0.97002  0.55689  Biso   1.000  C
  C105     1.0000 0.08650  0.88836  0.55274  Biso   1.000  C
  C106     1.0000 0.43070  0.02715  0.71657  Biso   1.000  C
  C107     1.0000 0.38840  0.07640  0.73793  Biso   1.000  C
  C108     1.0000 0.38720  0.08660  0.79557  Biso   1.000  C
  C109     1.0000 0.42640  0.04796  0.83283  Biso   1.000  C
  C110     1.0000 0.46720  0.99885  0.81217  Biso   1.000  C
  C111     1.0000 0.46940  0.98800  0.75484  Biso   1.000  C
  C112     1.0000 0.42750  0.06090  0.89460  Biso   1.000  C
  C113     1.0000 0.56720  0.58590  0.10460  Biso   1.000  C
  C114     1.0000 0.65450  0.61150  0.09550  Biso   1.000  C
  C115     1.0000 0.65920  0.66640  0.07340  Biso   1.000  C
  C116     1.0000 0.57660  0.69570  0.06040  Biso   1.000  C
  C117     1.0000 0.48930  0.67010  0.06950  Biso   1.000  C
  C118     1.0000 0.48460  0.61520  0.09170  Biso   1.000  C
  C119     1.0000 0.58100  0.75650  0.03810  Biso   1.000  C
  C120     1.0000 0.44610  0.48006  0.12195  Biso   1.000  C
  C121     1.0000 0.36130  0.50220  0.14417  Biso   1.000  C
  C122     1.0000 0.27440  0.48630  0.12241  Biso   1.000  C
  C123     1.0000 0.26890  0.44834  0.07932  Biso   1.000  C
  C124     1.0000 0.35240  0.42316  0.05936  Biso   1.000  C
  C125     1.0000 0.43830  0.44000  0.07972  Biso   1.000  C
  C126     1.0000 0.17750  0.43510  0.05089  Biso   1.000  C
  C127     1.0000 0.66340  0.47025  0.11388  Biso   1.000  C
  C128     1.0000 0.72210  0.43890  0.14952  Biso   1.000  C
  C129     1.0000 0.80050  0.40962  0.12934  Biso   1.000  C
  C130     1.0000 0.82300  0.41372  0.07339  Biso   1.000  C
  C131     1.0000 0.76530  0.44191  0.03730  Biso   1.000  C
  C132     1.0000 0.68600  0.47002  0.05689  Biso   1.000  C
  C133     1.0000 0.91350  0.38836  0.05274  Biso   1.000  C
  C134     1.0000 0.56930  0.52715  0.21657  Biso   1.000  C
  C135     1.0000 0.61160  0.57640  0.23793  Biso   1.000  C
  C136     1.0000 0.61280  0.58660  0.29557  Biso   1.000  C
  C137     1.0000 0.57360  0.54796  0.33283  Biso   1.000  C
  C138     1.0000 0.53280  0.49885  0.31217  Biso   1.000  C
  C139     1.0000 0.53060  0.48800  0.25484  Biso   1.000  C
  C140     1.0000 0.57250  0.56090  0.39460  Biso   1.000  C
  C141     1.0000 0.93280  0.91410  0.10460  Biso   1.000  C
  C142     1.0000 0.84550  0.88850  0.09550  Biso   1.000  C
  C143     1.0000 0.84080  0.83360  0.07340  Biso   1.000  C
  C144     1.0000 0.92340  0.80430  0.06040  Biso   1.000  C
  C145     1.0000 0.01070  0.82990  0.06950  Biso   1.000  C
  C146     1.0000 0.01540  0.88480  0.09170  Biso   1.000  C
  C147     1.0000 0.91900  0.74350  0.03810  Biso   1.000  C
  C148     1.0000 0.05390  0.01994  0.12195  Biso   1.000  C
  C149     1.0000 0.13870  0.99780  0.14417  Biso   1.000  C
  C150     1.0000 0.22560  0.01370  0.12241  Biso   1.000  C
  C151     1.0000 0.23110  0.05166  0.07932  Biso   1.000  C
  C152     1.0000 0.14760  0.07684  0.05936  Biso   1.000  C
  C153     1.0000 0.06170  0.06000  0.07972  Biso   1.000  C
  C154     1.0000 0.32250  0.06490  0.05089  Biso   1.000  C
  C155     1.0000 0.83660  0.02975  0.11388  Biso   1.000  C
  C156     1.0000 0.77790  0.06110  0.14952  Biso   1.000  C
  C157     1.0000 0.69950  0.09038  0.12934  Biso   1.000  C
  C158     1.0000 0.67700  0.08628  0.07339  Biso   1.000  C
  C159     1.0000 0.73470  0.05809  0.03730  Biso   1.000  C
  C160     1.0000 0.81400  0.02998  0.05689  Biso   1.000  C
  C161     1.0000 0.58650  0.11164  0.05274  Biso   1.000  C
  C162     1.0000 0.93070  0.97285  0.21657  Biso   1.000  C
  C163     1.0000 0.88840  0.92360  0.23793  Biso   1.000  C
  C164     1.0000 0.88720  0.91340  0.29557  Biso   1.000  C
  C165     1.0000 0.92640  0.95204  0.33283  Biso   1.000  C
  C166     1.0000 0.96720  0.00115  0.31217  Biso   1.000  C
  C167     1.0000 0.96940  0.01200  0.25484  Biso   1.000  C
  C168     1.0000 0.92750  0.93910  0.39460  Biso   1.000  C
  C169     1.0000 0.93280  0.58590  0.39540  Biso   1.000  C
  C170     1.0000 0.84550  0.61150  0.40450  Biso   1.000  C
  C171     1.0000 0.84080  0.66640  0.42660  Biso   1.000  C
  C172     1.0000 0.92340  0.69570  0.43960  Biso   1.000  C
  C173     1.0000 0.01070  0.67010  0.43050  Biso   1.000  C
  C174     1.0000 0.01540  0.61520  0.40830  Biso   1.000  C
  C175     1.0000 0.91900  0.75650  0.46190  Biso   1.000  C
  C176     1.0000 0.05390  0.48006  0.37805  Biso   1.000  C
  C177     1.0000 0.13870  0.50220  0.35583  Biso   1.000  C
  C178     1.0000 0.22560  0.48630  0.37759  Biso   1.000  C
  C179     1.0000 0.23110  0.44834  0.42068  Biso   1.000  C
  C180     1.0000 0.14760  0.42316  0.44064  Biso   1.000  C
  C181     1.0000 0.06170  0.44000  0.42028  Biso   1.000  C
  C182     1.0000 0.32250  0.43510  0.44911  Biso   1.000  C
  C183     1.0000 0.83660  0.47025  0.38612  Biso   1.000  C
  C184     1.0000 0.77790  0.43890  0.35048  Biso   1.000  C
  C185     1.0000 0.69950  0.40962  0.37066  Biso   1.000  C
  C186     1.0000 0.67700  0.41372  0.42661  Biso   1.000  C
  C187     1.0000 0.73470  0.44191  0.46270  Biso   1.000  C
  C188     1.0000 0.81400  0.47002  0.44311  Biso   1.000  C
  C189     1.0000 0.58650  0.38836  0.44726  Biso   1.000  C
  C190     1.0000 0.93070  0.52715  0.28343  Biso   1.000  C
  C191     1.0000 0.88840  0.57640  0.26207  Biso   1.000  C
  C192     1.0000 0.88720  0.58660  0.20443  Biso   1.000  C
  C193     1.0000 0.92640  0.54796  0.16717  Biso   1.000  C
  C194     1.0000 0.96720  0.49885  0.18783  Biso   1.000  C
  C195     1.0000 0.96940  0.48800  0.24516  Biso   1.000  C
  C196     1.0000 0.92750  0.56090  0.10540  Biso   1.000  C
  C197     1.0000 0.56720  0.91410  0.39540  Biso   1.000  C
  C198     1.0000 0.65450  0.88850  0.40450  Biso   1.000  C
  C199     1.0000 0.65920  0.83360  0.42660  Biso   1.000  C
  C200     1.0000 0.57660  0.80430  0.43960  Biso   1.000  C
  C201     1.0000 0.48930  0.82990  0.43050  Biso   1.000  C
  C202     1.0000 0.48460  0.88480  0.40830  Biso   1.000  C
  C203     1.0000 0.58100  0.74350  0.46190  Biso   1.000  C
  C204     1.0000 0.44610  0.01994  0.37805  Biso   1.000  C
  C205     1.0000 0.36130  0.99780  0.35583  Biso   1.000  C
  C206     1.0000 0.27440  0.01370  0.37759  Biso   1.000  C
  C207     1.0000 0.26890  0.05166  0.42068  Biso   1.000  C
  C208     1.0000 0.35240  0.07684  0.44064  Biso   1.000  C
  C209     1.0000 0.43830  0.06000  0.42028  Biso   1.000  C
  C210     1.0000 0.17750  0.06490  0.44911  Biso   1.000  C
  C211     1.0000 0.66340  0.02975  0.38612  Biso   1.000  C
  C212     1.0000 0.72210  0.06110  0.35048  Biso   1.000  C
  C213     1.0000 0.80050  0.09038  0.37066  Biso   1.000  C
  C214     1.0000 0.82300  0.08628  0.42661  Biso   1.000  C
  C215     1.0000 0.76530  0.05809  0.46270  Biso   1.000  C
  C216     1.0000 0.68600  0.02998  0.44311  Biso   1.000  C
  C217     1.0000 0.91350  0.11164  0.44726  Biso   1.000  C
  C218     1.0000 0.56930  0.97285  0.28343  Biso   1.000  C
  C219     1.0000 0.61160  0.92360  0.26207  Biso   1.000  C
  C220     1.0000 0.61280  0.91340  0.20443  Biso   1.000  C
  C221     1.0000 0.57360  0.95204  0.16717  Biso   1.000  C
  C222     1.0000 0.53280  0.00115  0.18783  Biso   1.000  C
  C223     1.0000 0.53060  0.01200  0.24516  Biso   1.000  C
  C224     1.0000 0.57250  0.93910  0.10540  Biso   1.000  C
  O1       1.0000 0.34220  0.22300  0.97600  Biso   1.000  O
  O2       1.0000 0.49130  0.21480  0.96700  Biso   1.000  O
  O3       1.0000 0.88280  0.52537  0.95109  Biso   1.000  O
  O4       1.0000 0.83279  0.61465  0.96807  Biso   1.000  O
  O5       1.0000 0.04720  0.65101  0.92239  Biso   1.000  O
  O6       1.0000 0.05160  0.59072  0.99303  Biso   1.000  O
  O7       1.0000 0.41430  0.38900  0.59050  Biso   1.000  O
  O8       1.0000 0.44280  0.48051  0.57369  Biso   1.000  O
  O9       1.0000 0.15780  0.27700  0.97600  Biso   1.000  O
  O10      1.0000 0.00870  0.28520  0.96700  Biso   1.000  O
  O11      1.0000 0.61720  0.97463  0.95109  Biso   1.000  O
  O12      1.0000 0.66721  0.88535  0.96807  Biso   1.000  O
  O13      1.0000 0.45280  0.84899  0.92239  Biso   1.000  O
  O14      1.0000 0.44840  0.90928  0.99303  Biso   1.000  O
  O15      1.0000 0.08570  0.11100  0.59050  Biso   1.000  O
  O16      1.0000 0.05720  0.01949  0.57369  Biso   1.000  O
  O17      1.0000 0.15780  0.22300  0.52400  Biso   1.000  O
  O18      1.0000 0.00870  0.21480  0.53300  Biso   1.000  O
  O19      1.0000 0.61720  0.52537  0.54891  Biso   1.000  O
  O20      1.0000 0.66721  0.61465  0.53193  Biso   1.000  O
  O21      1.0000 0.45280  0.65101  0.57761  Biso   1.000  O
  O22      1.0000 0.44840  0.59072  0.50697  Biso   1.000  O
  O23      1.0000 0.08570  0.38900  0.90950  Biso   1.000  O
  O24      1.0000 0.05720  0.48051  0.92631  Biso   1.000  O
  O25      1.0000 0.34220  0.27700  0.52400  Biso   1.000  O
  O26      1.0000 0.49130  0.28520  0.53300  Biso   1.000  O
  O27      1.0000 0.88280  0.97463  0.54891  Biso   1.000  O
  O28      1.0000 0.83279  0.88535  0.53193  Biso   1.000  O
  O29      1.0000 0.04720  0.84899  0.57761  Biso   1.000  O
  O30      1.0000 0.05160  0.90928  0.50697  Biso   1.000  O
  O31      1.0000 0.41430  0.11100  0.90950  Biso   1.000  O
  O32      1.0000 0.44280  0.01949  0.92631  Biso   1.000  O
  O33      1.0000 0.65780  0.77700  0.02400  Biso   1.000  O
  O34      1.0000 0.50870  0.78520  0.03300  Biso   1.000  O
  O35      1.0000 0.11720  0.47463  0.04891  Biso   1.000  O
  O36      1.0000 0.16721  0.38535  0.03193  Biso   1.000  O
  O37      1.0000 0.95280  0.34899  0.07761  Biso   1.000  O
  O38      1.0000 0.94840  0.40928  0.00697  Biso   1.000  O
  O39      1.0000 0.58570  0.61100  0.40950  Biso   1.000  O
  O40      1.0000 0.55720  0.51949  0.42631  Biso   1.000  O
  O41      1.0000 0.84220  0.72300  0.02400  Biso   1.000  O
  O42      1.0000 0.99130  0.71480  0.03300  Biso   1.000  O
  O43      1.0000 0.38280  0.02537  0.04891  Biso   1.000  O
  O44      1.0000 0.33279  0.11465  0.03193  Biso   1.000  O
  O45      1.0000 0.54720  0.15101  0.07761  Biso   1.000  O
  O46      1.0000 0.55160  0.09072  0.00697  Biso   1.000  O
  O47      1.0000 0.91430  0.88900  0.40950  Biso   1.000  O
  O48      1.0000 0.94280  0.98051  0.42631  Biso   1.000  O
  O49      1.0000 0.84220  0.77700  0.47600  Biso   1.000  O
  O50      1.0000 0.99130  0.78520  0.46700  Biso   1.000  O
  O51      1.0000 0.38280  0.47463  0.45109  Biso   1.000  O
  O52      1.0000 0.33279  0.38535  0.46807  Biso   1.000  O
  O53      1.0000 0.54720  0.34899  0.42239  Biso   1.000  O
  O54      1.0000 0.55160  0.40928  0.49303  Biso   1.000  O
  O55      1.0000 0.91430  0.61100  0.09050  Biso   1.000  O
  O56      1.0000 0.94280  0.51949  0.07369  Biso   1.000  O
  O57      1.0000 0.65780  0.72300  0.47600  Biso   1.000  O
  O58      1.0000 0.50870  0.71480  0.46700  Biso   1.000  O
  O59      1.0000 0.11720  0.02537  0.45109  Biso   1.000  O
  O60      1.0000 0.16721  0.11465  0.46807  Biso   1.000  O
  O61      1.0000 0.95280  0.15101  0.42239  Biso   1.000  O
  O62      1.0000 0.94840  0.09072  0.49303  Biso   1.000  O
  O63      1.0000 0.58570  0.88900  0.09050  Biso   1.000  O
  O64      1.0000 0.55720  0.98051  0.07369  Biso   1.000  O
