data_image0
_cell_length_a       17.4421
_cell_length_b       17.4421
_cell_length_c       26.682
_cell_angle_alpha    90.0326
_cell_angle_beta     90.0326
_cell_angle_gamma    98.7212

_symmetry_space_group_name_H-M    P 1
_symmetry_int_tables_number       1

loop_
  _symmetry_equiv_pos_as_xyz
  'x, y, z'

loop_
  _atom_site_label
  _atom_site_occupancy
  _atom_site_fract_x
  _atom_site_fract_y
  _atom_site_fract_z
  _atom_site_thermal_displace_type
  _atom_site_B_iso_or_equiv
  _atom_site_type_symbol
  Mn1      1.0000 0.76840  0.73080  0.24953  Biso   1.000  Mn
  Mn2      1.0000 0.26920  0.23160  0.25047  Biso   1.000  Mn
  Mn3      1.0000 0.23160  0.26920  0.75047  Biso   1.000  Mn
  Mn4      1.0000 0.73080  0.76840  0.74953  Biso   1.000  Mn
  Mn5      1.0000 0.50000  0.50000  0.50000  Biso   1.000  Mn
  Mn6      1.0000 0.50000  0.50000  0.00000  Biso   1.000  Mn
  Mn7      1.0000 0.00000  0.00000  0.50000  Biso   1.000  Mn
  Mn8      1.0000 0.00000  0.00000  0.00000  Biso   1.000  Mn
  Mn9      1.0000 0.00000  0.50000  0.50000  Biso   1.000  Mn
  Mn10     1.0000 0.50000  0.00000  0.00000  Biso   1.000  Mn
  Mn11     1.0000 0.50000  0.00000  0.50000  Biso   1.000  Mn
  Mn12     1.0000 0.00000  0.50000  0.00000  Biso   1.000  Mn
  H1       1.0000 0.66650  0.40790  0.35980  Biso   1.000  H
  H2       1.0000 0.57130  0.29250  0.37990  Biso   1.000  H
  H3       1.0000 0.64440  0.77620  0.48140  Biso   1.000  H
  H4       1.0000 0.70310  0.70450  0.41650  Biso   1.000  H
  H5       1.0000 0.67100  0.63440  0.33160  Biso   1.000  H
  H6       1.0000 0.88910  0.62070  0.30050  Biso   1.000  H
  H7       1.0000 0.89500  0.53260  0.36410  Biso   1.000  H
  H8       1.0000 0.78690  0.49650  0.41540  Biso   1.000  H
  H9       1.0000 0.49850  0.81930  0.50440  Biso   1.000  H
  H10      1.0000 0.59410  0.97050  0.60350  Biso   1.000  H
  H11      1.0000 0.63450  0.87390  0.65140  Biso   1.000  H
  H12      1.0000 0.60520  0.74380  0.62470  Biso   1.000  H
  H13      1.0000 0.06210  0.81070  0.63620  Biso   1.000  H
  H14      1.0000 0.18900  0.88840  0.61700  Biso   1.000  H
  H15      1.0000 0.71260  0.88420  0.50920  Biso   1.000  H
  H16      1.0000 0.77360  0.81260  0.57420  Biso   1.000  H
  H17      1.0000 0.31930  0.97890  0.50290  Biso   1.000  H
  H18      1.0000 0.46530  0.04730  0.61170  Biso   1.000  H
  H19      1.0000 0.36630  0.06970  0.66370  Biso   1.000  H
  H20      1.0000 0.23700  0.04520  0.63460  Biso   1.000  H
  H21      1.0000 0.84660  0.85560  0.66360  Biso   1.000  H
  H22      1.0000 0.81110  0.63510  0.70070  Biso   1.000  H
  H23      1.0000 0.89720  0.60500  0.64090  Biso   1.000  H
  H24      1.0000 0.95560  0.70280  0.58660  Biso   1.000  H
  H25      1.0000 0.87500  0.26580  0.60440  Biso   1.000  H
  H26      1.0000 0.77540  0.35300  0.60280  Biso   1.000  H
  H27      1.0000 0.75710  0.63070  0.52480  Biso   1.000  H
  H28      1.0000 0.84370  0.72430  0.47290  Biso   1.000  H
  H29      1.0000 0.67910  0.47970  0.50510  Biso   1.000  H
  H30      1.0000 0.53960  0.49000  0.61900  Biso   1.000  H
  H31      1.0000 0.64070  0.49610  0.67520  Biso   1.000  H
  H32      1.0000 0.76750  0.49790  0.64520  Biso   1.000  H
  H33      1.0000 0.01770  0.81670  0.49040  Biso   1.000  H
  H34      1.0000 0.97380  0.95540  0.38200  Biso   1.000  H
  H35      1.0000 0.94390  0.85170  0.32740  Biso   1.000  H
  H36      1.0000 0.94840  0.72580  0.35640  Biso   1.000  H
  H37      1.0000 0.59210  0.33350  0.14020  Biso   1.000  H
  H38      1.0000 0.70750  0.42870  0.12010  Biso   1.000  H
  H39      1.0000 0.22380  0.35560  0.01860  Biso   1.000  H
  H40      1.0000 0.29550  0.29690  0.08350  Biso   1.000  H
  H41      1.0000 0.36560  0.32900  0.16840  Biso   1.000  H
  H42      1.0000 0.37930  0.11090  0.19950  Biso   1.000  H
  H43      1.0000 0.46740  0.10500  0.13590  Biso   1.000  H
  H44      1.0000 0.50350  0.21310  0.08460  Biso   1.000  H
  H45      1.0000 0.18070  0.50150  0.99560  Biso   1.000  H
  H46      1.0000 0.02950  0.40590  0.89650  Biso   1.000  H
  H47      1.0000 0.12610  0.36550  0.84860  Biso   1.000  H
  H48      1.0000 0.25620  0.39480  0.87530  Biso   1.000  H
  H49      1.0000 0.18930  0.93790  0.86380  Biso   1.000  H
  H50      1.0000 0.11160  0.81100  0.88300  Biso   1.000  H
  H51      1.0000 0.11580  0.28740  0.99080  Biso   1.000  H
  H52      1.0000 0.18740  0.22640  0.92580  Biso   1.000  H
  H53      1.0000 0.02110  0.68070  0.99710  Biso   1.000  H
  H54      1.0000 0.95270  0.53470  0.88830  Biso   1.000  H
  H55      1.0000 0.93030  0.63370  0.83630  Biso   1.000  H
  H56      1.0000 0.95480  0.76300  0.86540  Biso   1.000  H
  H57      1.0000 0.14440  0.15340  0.83640  Biso   1.000  H
  H58      1.0000 0.36490  0.18890  0.79930  Biso   1.000  H
  H59      1.0000 0.39500  0.10280  0.85910  Biso   1.000  H
  H60      1.0000 0.29720  0.04440  0.91340  Biso   1.000  H
  H61      1.0000 0.73420  0.12500  0.89560  Biso   1.000  H
  H62      1.0000 0.64700  0.22460  0.89720  Biso   1.000  H
  H63      1.0000 0.36930  0.24290  0.97520  Biso   1.000  H
  H64      1.0000 0.27570  0.15630  0.02710  Biso   1.000  H
  H65      1.0000 0.52030  0.32090  0.99490  Biso   1.000  H
  H66      1.0000 0.51000  0.46040  0.88100  Biso   1.000  H
  H67      1.0000 0.50390  0.35930  0.82480  Biso   1.000  H
  H68      1.0000 0.50210  0.23250  0.85480  Biso   1.000  H
  H69      1.0000 0.18330  0.98230  0.00960  Biso   1.000  H
  H70      1.0000 0.04460  0.02620  0.11800  Biso   1.000  H
  H71      1.0000 0.14830  0.05610  0.17260  Biso   1.000  H
  H72      1.0000 0.27420  0.05160  0.14360  Biso   1.000  H
  H73      1.0000 0.33350  0.59210  0.64020  Biso   1.000  H
  H74      1.0000 0.42870  0.70750  0.62010  Biso   1.000  H
  H75      1.0000 0.35560  0.22380  0.51860  Biso   1.000  H
  H76      1.0000 0.29690  0.29550  0.58350  Biso   1.000  H
  H77      1.0000 0.32900  0.36560  0.66840  Biso   1.000  H
  H78      1.0000 0.11090  0.37930  0.69950  Biso   1.000  H
  H79      1.0000 0.10500  0.46740  0.63590  Biso   1.000  H
  H80      1.0000 0.21310  0.50350  0.58460  Biso   1.000  H
  H81      1.0000 0.50150  0.18070  0.49560  Biso   1.000  H
  H82      1.0000 0.40590  0.02950  0.39650  Biso   1.000  H
  H83      1.0000 0.36550  0.12610  0.34860  Biso   1.000  H
  H84      1.0000 0.39480  0.25620  0.37530  Biso   1.000  H
  H85      1.0000 0.93790  0.18930  0.36380  Biso   1.000  H
  H86      1.0000 0.81100  0.11160  0.38300  Biso   1.000  H
  H87      1.0000 0.28740  0.11580  0.49080  Biso   1.000  H
  H88      1.0000 0.22640  0.18740  0.42580  Biso   1.000  H
  H89      1.0000 0.68070  0.02110  0.49710  Biso   1.000  H
  H90      1.0000 0.53470  0.95270  0.38830  Biso   1.000  H
  H91      1.0000 0.63370  0.93030  0.33630  Biso   1.000  H
  H92      1.0000 0.76300  0.95480  0.36540  Biso   1.000  H
  H93      1.0000 0.15340  0.14440  0.33640  Biso   1.000  H
  H94      1.0000 0.18890  0.36490  0.29930  Biso   1.000  H
  H95      1.0000 0.10280  0.39500  0.35910  Biso   1.000  H
  H96      1.0000 0.04440  0.29720  0.41340  Biso   1.000  H
  H97      1.0000 0.12500  0.73420  0.39560  Biso   1.000  H
  H98      1.0000 0.22460  0.64700  0.39720  Biso   1.000  H
  H99      1.0000 0.24290  0.36930  0.47520  Biso   1.000  H
  H100     1.0000 0.15630  0.27570  0.52710  Biso   1.000  H
  H101     1.0000 0.32090  0.52030  0.49490  Biso   1.000  H
  H102     1.0000 0.46040  0.51000  0.38100  Biso   1.000  H
  H103     1.0000 0.35930  0.50390  0.32480  Biso   1.000  H
  H104     1.0000 0.23250  0.50210  0.35480  Biso   1.000  H
  H105     1.0000 0.98230  0.18330  0.50960  Biso   1.000  H
  H106     1.0000 0.02620  0.04460  0.61800  Biso   1.000  H
  H107     1.0000 0.05610  0.14830  0.67260  Biso   1.000  H
  H108     1.0000 0.05160  0.27420  0.64360  Biso   1.000  H
  H109     1.0000 0.40790  0.66650  0.85980  Biso   1.000  H
  H110     1.0000 0.29250  0.57130  0.87990  Biso   1.000  H
  H111     1.0000 0.77620  0.64440  0.98140  Biso   1.000  H
  H112     1.0000 0.70450  0.70310  0.91650  Biso   1.000  H
  H113     1.0000 0.63440  0.67100  0.83160  Biso   1.000  H
  H114     1.0000 0.62070  0.88910  0.80050  Biso   1.000  H
  H115     1.0000 0.53260  0.89500  0.86410  Biso   1.000  H
  H116     1.0000 0.49650  0.78690  0.91540  Biso   1.000  H
  H117     1.0000 0.81930  0.49850  0.00440  Biso   1.000  H
  H118     1.0000 0.97050  0.59410  0.10350  Biso   1.000  H
  H119     1.0000 0.87390  0.63450  0.15140  Biso   1.000  H
  H120     1.0000 0.74380  0.60520  0.12470  Biso   1.000  H
  H121     1.0000 0.81070  0.06210  0.13620  Biso   1.000  H
  H122     1.0000 0.88840  0.18900  0.11700  Biso   1.000  H
  H123     1.0000 0.88420  0.71260  0.00920  Biso   1.000  H
  H124     1.0000 0.81260  0.77360  0.07420  Biso   1.000  H
  H125     1.0000 0.97890  0.31930  0.00290  Biso   1.000  H
  H126     1.0000 0.04730  0.46530  0.11170  Biso   1.000  H
  H127     1.0000 0.06970  0.36630  0.16370  Biso   1.000  H
  H128     1.0000 0.04520  0.23700  0.13460  Biso   1.000  H
  H129     1.0000 0.85560  0.84660  0.16360  Biso   1.000  H
  H130     1.0000 0.63510  0.81110  0.20070  Biso   1.000  H
  H131     1.0000 0.60500  0.89720  0.14090  Biso   1.000  H
  H132     1.0000 0.70280  0.95560  0.08660  Biso   1.000  H
  H133     1.0000 0.26580  0.87500  0.10440  Biso   1.000  H
  H134     1.0000 0.35300  0.77540  0.10280  Biso   1.000  H
  H135     1.0000 0.63070  0.75710  0.02480  Biso   1.000  H
  H136     1.0000 0.72430  0.84370  0.97290  Biso   1.000  H
  H137     1.0000 0.47970  0.67910  0.00510  Biso   1.000  H
  H138     1.0000 0.49000  0.53960  0.11900  Biso   1.000  H
  H139     1.0000 0.49610  0.64070  0.17520  Biso   1.000  H
  H140     1.0000 0.49790  0.76750  0.14520  Biso   1.000  H
  H141     1.0000 0.81670  0.01770  0.99040  Biso   1.000  H
  H142     1.0000 0.95540  0.97380  0.88200  Biso   1.000  H
  H143     1.0000 0.85170  0.94390  0.82740  Biso   1.000  H
  H144     1.0000 0.72580  0.94840  0.85640  Biso   1.000  H
  C1       1.0000 0.60974  0.46750  0.41534  Biso   1.000  C
  C2       1.0000 0.62638  0.40514  0.38406  Biso   1.000  C
  C3       1.0000 0.57508  0.34206  0.39526  Biso   1.000  C
  C4       1.0000 0.47271  0.63643  0.56533  Biso   1.000  C
  C5       1.0000 0.53152  0.68832  0.54090  Biso   1.000  C
  C6       1.0000 0.57284  0.66920  0.49927  Biso   1.000  C
  C7       1.0000 0.63097  0.72251  0.47410  Biso   1.000  C
  C8       1.0000 0.66281  0.68363  0.43877  Biso   1.000  C
  C9       1.0000 0.62549  0.60493  0.44026  Biso   1.000  C
  C10      1.0000 0.64739  0.54359  0.41186  Biso   1.000  C
  C11      1.0000 0.71657  0.56235  0.37892  Biso   1.000  C
  C12      1.0000 0.71719  0.61377  0.33887  Biso   1.000  C
  C13      1.0000 0.84438  0.60542  0.32044  Biso   1.000  C
  C14      1.0000 0.84854  0.55346  0.35849  Biso   1.000  C
  C15      1.0000 0.78462  0.53180  0.38853  Biso   1.000  C
  C16      1.0000 0.54964  0.76818  0.56070  Biso   1.000  C
  C17      1.0000 0.52695  0.83003  0.53464  Biso   1.000  C
  C18      1.0000 0.58233  0.91827  0.59244  Biso   1.000  C
  C19      1.0000 0.60658  0.86122  0.62119  Biso   1.000  C
  C20      1.0000 0.58958  0.78442  0.60526  Biso   1.000  C
  C21      1.0000 0.01467  0.87993  0.58195  Biso   1.000  C
  C22      1.0000 0.07146  0.85174  0.61261  Biso   1.000  C
  C23      1.0000 0.14069  0.89395  0.60205  Biso   1.000  C
  C24      1.0000 0.12814  0.94876  0.56414  Biso   1.000  C
  C25      1.0000 0.18626  0.00300  0.54291  Biso   1.000  C
  C26      1.0000 0.17374  0.05162  0.50317  Biso   1.000  C
  C27      1.0000 0.76585  0.89219  0.51831  Biso   1.000  C
  C28      1.0000 0.79922  0.85312  0.55371  Biso   1.000  C
  C29      1.0000 0.87977  0.88347  0.55501  Biso   1.000  C
  C30      1.0000 0.93486  0.85392  0.58432  Biso   1.000  C
  C31      1.0000 0.26493  0.01135  0.56444  Biso   1.000  C
  C32      1.0000 0.32846  0.99812  0.53605  Biso   1.000  C
  C33      1.0000 0.41359  0.03741  0.59949  Biso   1.000  C
  C34      1.0000 0.35520  0.05100  0.63063  Biso   1.000  C
  C35      1.0000 0.27871  0.03709  0.61335  Biso   1.000  C
  C36      1.0000 0.90536  0.78908  0.61847  Biso   1.000  C
  C37      1.0000 0.85573  0.80395  0.65825  Biso   1.000  C
  C38      1.0000 0.83658  0.67562  0.68021  Biso   1.000  C
  C39      1.0000 0.88668  0.65672  0.64399  Biso   1.000  C
  C40      1.0000 0.92137  0.71429  0.61226  Biso   1.000  C
  C41      1.0000 0.94487  0.35257  0.55987  Biso   1.000  C
  C42      1.0000 0.87928  0.31478  0.58827  Biso   1.000  C
  C43      1.0000 0.82508  0.36254  0.58745  Biso   1.000  C
  C44      1.0000 0.85607  0.43043  0.55931  Biso   1.000  C
  C45      1.0000 0.81640  0.49282  0.54921  Biso   1.000  C
  C46      1.0000 0.84588  0.55716  0.52056  Biso   1.000  C
  C47      1.0000 0.80679  0.62425  0.51249  Biso   1.000  C
  C48      1.0000 0.85412  0.67538  0.48441  Biso   1.000  C
  C49      1.0000 0.92400  0.64186  0.47511  Biso   1.000  C
  C50      1.0000 0.98811  0.67879  0.44798  Biso   1.000  C
  C51      1.0000 0.73682  0.48936  0.57130  Biso   1.000  C
  C52      1.0000 0.67185  0.48417  0.54017  Biso   1.000  C
  C53      1.0000 0.59044  0.48960  0.60638  Biso   1.000  C
  C54      1.0000 0.65040  0.49368  0.64026  Biso   1.000  C
  C55      1.0000 0.72498  0.49424  0.62263  Biso   1.000  C
  C56      1.0000 0.98263  0.75749  0.42696  Biso   1.000  C
  C57      1.0000 0.00131  0.82337  0.45695  Biso   1.000  C
  C58      1.0000 0.97645  0.90455  0.39386  Biso   1.000  C
  C59      1.0000 0.95827  0.84313  0.36110  Biso   1.000  C
  C60      1.0000 0.96115  0.76885  0.37824  Biso   1.000  C
  C61      1.0000 0.53250  0.39026  0.08466  Biso   1.000  C
  C62      1.0000 0.59486  0.37362  0.11594  Biso   1.000  C
  C63      1.0000 0.65794  0.42492  0.10474  Biso   1.000  C
  C64      1.0000 0.36357  0.52729  0.93467  Biso   1.000  C
  C65      1.0000 0.31168  0.46848  0.95910  Biso   1.000  C
  C66      1.0000 0.33080  0.42716  0.00073  Biso   1.000  C
  C67      1.0000 0.27749  0.36903  0.02590  Biso   1.000  C
  C68      1.0000 0.31637  0.33719  0.06123  Biso   1.000  C
  C69      1.0000 0.39507  0.37451  0.05974  Biso   1.000  C
  C70      1.0000 0.45641  0.35261  0.08814  Biso   1.000  C
  C71      1.0000 0.43765  0.28343  0.12108  Biso   1.000  C
  C72      1.0000 0.38623  0.28281  0.16113  Biso   1.000  C
  C73      1.0000 0.39458  0.15562  0.17956  Biso   1.000  C
  C74      1.0000 0.44654  0.15146  0.14151  Biso   1.000  C
  C75      1.0000 0.46820  0.21538  0.11147  Biso   1.000  C
  C76      1.0000 0.23182  0.45036  0.93930  Biso   1.000  C
  C77      1.0000 0.16997  0.47305  0.96536  Biso   1.000  C
  C78      1.0000 0.08173  0.41767  0.90756  Biso   1.000  C
  C79      1.0000 0.13878  0.39342  0.87881  Biso   1.000  C
  C80      1.0000 0.21558  0.41042  0.89474  Biso   1.000  C
  C81      1.0000 0.12007  0.98533  0.91805  Biso   1.000  C
  C82      1.0000 0.14826  0.92854  0.88739  Biso   1.000  C
  C83      1.0000 0.10605  0.85931  0.89795  Biso   1.000  C
  C84      1.0000 0.05124  0.87186  0.93586  Biso   1.000  C
  C85      1.0000 0.99700  0.81374  0.95709  Biso   1.000  C
  C86      1.0000 0.94838  0.82626  0.99683  Biso   1.000  C
  C87      1.0000 0.10781  0.23415  0.98169  Biso   1.000  C
  C88      1.0000 0.14688  0.20078  0.94629  Biso   1.000  C
  C89      1.0000 0.11653  0.12023  0.94499  Biso   1.000  C
  C90      1.0000 0.14608  0.06514  0.91568  Biso   1.000  C
  C91      1.0000 0.98865  0.73507  0.93556  Biso   1.000  C
  C92      1.0000 0.00188  0.67154  0.96395  Biso   1.000  C
  C93      1.0000 0.96259  0.58641  0.90051  Biso   1.000  C
  C94      1.0000 0.94900  0.64480  0.86937  Biso   1.000  C
  C95      1.0000 0.96291  0.72129  0.88665  Biso   1.000  C
  C96      1.0000 0.21092  0.09464  0.88153  Biso   1.000  C
  C97      1.0000 0.19605  0.14427  0.84175  Biso   1.000  C
  C98      1.0000 0.32438  0.16342  0.81979  Biso   1.000  C
  C99      1.0000 0.34328  0.11332  0.85601  Biso   1.000  C
  C100     1.0000 0.28571  0.07863  0.88774  Biso   1.000  C
  C101     1.0000 0.64743  0.05513  0.94013  Biso   1.000  C
  C102     1.0000 0.68522  0.12072  0.91173  Biso   1.000  C
  C103     1.0000 0.63746  0.17492  0.91255  Biso   1.000  C
  C104     1.0000 0.56957  0.14393  0.94069  Biso   1.000  C
  C105     1.0000 0.50718  0.18360  0.95079  Biso   1.000  C
  C106     1.0000 0.44284  0.15412  0.97944  Biso   1.000  C
  C107     1.0000 0.37575  0.19321  0.98751  Biso   1.000  C
  C108     1.0000 0.32462  0.14588  0.01559  Biso   1.000  C
  C109     1.0000 0.35814  0.07600  0.02489  Biso   1.000  C
  C110     1.0000 0.32121  0.01189  0.05202  Biso   1.000  C
  C111     1.0000 0.51064  0.26318  0.92870  Biso   1.000  C
  C112     1.0000 0.51583  0.32815  0.95983  Biso   1.000  C
  C113     1.0000 0.51040  0.40956  0.89362  Biso   1.000  C
  C114     1.0000 0.50632  0.34960  0.85974  Biso   1.000  C
  C115     1.0000 0.50576  0.27502  0.87737  Biso   1.000  C
  C116     1.0000 0.24251  0.01737  0.07304  Biso   1.000  C
  C117     1.0000 0.17663  0.99869  0.04305  Biso   1.000  C
  C118     1.0000 0.09545  0.02355  0.10614  Biso   1.000  C
  C119     1.0000 0.15687  0.04173  0.13890  Biso   1.000  C
  C120     1.0000 0.23115  0.03885  0.12176  Biso   1.000  C
  C121     1.0000 0.39026  0.53250  0.58466  Biso   1.000  C
  C122     1.0000 0.37362  0.59486  0.61594  Biso   1.000  C
  C123     1.0000 0.42492  0.65794  0.60474  Biso   1.000  C
  C124     1.0000 0.52729  0.36357  0.43467  Biso   1.000  C
  C125     1.0000 0.46848  0.31168  0.45910  Biso   1.000  C
  C126     1.0000 0.42716  0.33080  0.50073  Biso   1.000  C
  C127     1.0000 0.36903  0.27749  0.52590  Biso   1.000  C
  C128     1.0000 0.33719  0.31637  0.56123  Biso   1.000  C
  C129     1.0000 0.37451  0.39507  0.55974  Biso   1.000  C
  C130     1.0000 0.35261  0.45641  0.58814  Biso   1.000  C
  C131     1.0000 0.28343  0.43765  0.62108  Biso   1.000  C
  C132     1.0000 0.28281  0.38623  0.66113  Biso   1.000  C
  C133     1.0000 0.15562  0.39458  0.67956  Biso   1.000  C
  C134     1.0000 0.15146  0.44654  0.64151  Biso   1.000  C
  C135     1.0000 0.21538  0.46820  0.61147  Biso   1.000  C
  C136     1.0000 0.45036  0.23182  0.43930  Biso   1.000  C
  C137     1.0000 0.47305  0.16997  0.46536  Biso   1.000  C
  C138     1.0000 0.41767  0.08173  0.40756  Biso   1.000  C
  C139     1.0000 0.39342  0.13878  0.37881  Biso   1.000  C
  C140     1.0000 0.41042  0.21558  0.39474  Biso   1.000  C
  C141     1.0000 0.98533  0.12007  0.41805  Biso   1.000  C
  C142     1.0000 0.92854  0.14826  0.38739  Biso   1.000  C
  C143     1.0000 0.85931  0.10605  0.39795  Biso   1.000  C
  C144     1.0000 0.87186  0.05124  0.43586  Biso   1.000  C
  C145     1.0000 0.81374  0.99700  0.45709  Biso   1.000  C
  C146     1.0000 0.82626  0.94838  0.49683  Biso   1.000  C
  C147     1.0000 0.23415  0.10781  0.48169  Biso   1.000  C
  C148     1.0000 0.20078  0.14688  0.44629  Biso   1.000  C
  C149     1.0000 0.12023  0.11653  0.44499  Biso   1.000  C
  C150     1.0000 0.06514  0.14608  0.41568  Biso   1.000  C
  C151     1.0000 0.73507  0.98865  0.43556  Biso   1.000  C
  C152     1.0000 0.67154  0.00188  0.46395  Biso   1.000  C
  C153     1.0000 0.58641  0.96259  0.40051  Biso   1.000  C
  C154     1.0000 0.64480  0.94900  0.36937  Biso   1.000  C
  C155     1.0000 0.72129  0.96291  0.38665  Biso   1.000  C
  C156     1.0000 0.09464  0.21092  0.38153  Biso   1.000  C
  C157     1.0000 0.14427  0.19605  0.34175  Biso   1.000  C
  C158     1.0000 0.16342  0.32438  0.31979  Biso   1.000  C
  C159     1.0000 0.11332  0.34328  0.35601  Biso   1.000  C
  C160     1.0000 0.07863  0.28571  0.38774  Biso   1.000  C
  C161     1.0000 0.05513  0.64743  0.44013  Biso   1.000  C
  C162     1.0000 0.12072  0.68522  0.41173  Biso   1.000  C
  C163     1.0000 0.17492  0.63746  0.41255  Biso   1.000  C
  C164     1.0000 0.14393  0.56957  0.44069  Biso   1.000  C
  C165     1.0000 0.18360  0.50718  0.45079  Biso   1.000  C
  C166     1.0000 0.15412  0.44284  0.47944  Biso   1.000  C
  C167     1.0000 0.19321  0.37575  0.48751  Biso   1.000  C
  C168     1.0000 0.14588  0.32462  0.51559  Biso   1.000  C
  C169     1.0000 0.07600  0.35814  0.52489  Biso   1.000  C
  C170     1.0000 0.01189  0.32121  0.55202  Biso   1.000  C
  C171     1.0000 0.26318  0.51064  0.42870  Biso   1.000  C
  C172     1.0000 0.32815  0.51583  0.45983  Biso   1.000  C
  C173     1.0000 0.40956  0.51040  0.39362  Biso   1.000  C
  C174     1.0000 0.34960  0.50632  0.35974  Biso   1.000  C
  C175     1.0000 0.27502  0.50576  0.37737  Biso   1.000  C
  C176     1.0000 0.01737  0.24251  0.57304  Biso   1.000  C
  C177     1.0000 0.99869  0.17663  0.54305  Biso   1.000  C
  C178     1.0000 0.02355  0.09545  0.60614  Biso   1.000  C
  C179     1.0000 0.04173  0.15687  0.63890  Biso   1.000  C
  C180     1.0000 0.03885  0.23115  0.62176  Biso   1.000  C
  C181     1.0000 0.46750  0.60974  0.91534  Biso   1.000  C
  C182     1.0000 0.40514  0.62638  0.88406  Biso   1.000  C
  C183     1.0000 0.34206  0.57508  0.89526  Biso   1.000  C
  C184     1.0000 0.63643  0.47271  0.06533  Biso   1.000  C
  C185     1.0000 0.68832  0.53152  0.04090  Biso   1.000  C
  C186     1.0000 0.66920  0.57284  0.99927  Biso   1.000  C
  C187     1.0000 0.72251  0.63097  0.97410  Biso   1.000  C
  C188     1.0000 0.68363  0.66281  0.93877  Biso   1.000  C
  C189     1.0000 0.60493  0.62549  0.94026  Biso   1.000  C
  C190     1.0000 0.54359  0.64739  0.91186  Biso   1.000  C
  C191     1.0000 0.56235  0.71657  0.87892  Biso   1.000  C
  C192     1.0000 0.61377  0.71719  0.83887  Biso   1.000  C
  C193     1.0000 0.60542  0.84438  0.82044  Biso   1.000  C
  C194     1.0000 0.55346  0.84854  0.85849  Biso   1.000  C
  C195     1.0000 0.53180  0.78462  0.88853  Biso   1.000  C
  C196     1.0000 0.76818  0.54964  0.06070  Biso   1.000  C
  C197     1.0000 0.83003  0.52695  0.03464  Biso   1.000  C
  C198     1.0000 0.91827  0.58233  0.09244  Biso   1.000  C
  C199     1.0000 0.86122  0.60658  0.12119  Biso   1.000  C
  C200     1.0000 0.78442  0.58958  0.10526  Biso   1.000  C
  C201     1.0000 0.87993  0.01467  0.08195  Biso   1.000  C
  C202     1.0000 0.85174  0.07146  0.11261  Biso   1.000  C
  C203     1.0000 0.89395  0.14069  0.10205  Biso   1.000  C
  C204     1.0000 0.94876  0.12814  0.06414  Biso   1.000  C
  C205     1.0000 0.00300  0.18626  0.04291  Biso   1.000  C
  C206     1.0000 0.05162  0.17374  0.00317  Biso   1.000  C
  C207     1.0000 0.89219  0.76585  0.01831  Biso   1.000  C
  C208     1.0000 0.85312  0.79922  0.05371  Biso   1.000  C
  C209     1.0000 0.88347  0.87977  0.05501  Biso   1.000  C
  C210     1.0000 0.85392  0.93486  0.08432  Biso   1.000  C
  C211     1.0000 0.01135  0.26493  0.06444  Biso   1.000  C
  C212     1.0000 0.99812  0.32846  0.03605  Biso   1.000  C
  C213     1.0000 0.03741  0.41359  0.09949  Biso   1.000  C
  C214     1.0000 0.05100  0.35520  0.13063  Biso   1.000  C
  C215     1.0000 0.03709  0.27871  0.11335  Biso   1.000  C
  C216     1.0000 0.78908  0.90536  0.11847  Biso   1.000  C
  C217     1.0000 0.80395  0.85573  0.15825  Biso   1.000  C
  C218     1.0000 0.67562  0.83658  0.18021  Biso   1.000  C
  C219     1.0000 0.65672  0.88668  0.14399  Biso   1.000  C
  C220     1.0000 0.71429  0.92137  0.11226  Biso   1.000  C
  C221     1.0000 0.35257  0.94487  0.05987  Biso   1.000  C
  C222     1.0000 0.31478  0.87928  0.08827  Biso   1.000  C
  C223     1.0000 0.36254  0.82508  0.08745  Biso   1.000  C
  C224     1.0000 0.43043  0.85607  0.05931  Biso   1.000  C
  C225     1.0000 0.49282  0.81640  0.04921  Biso   1.000  C
  C226     1.0000 0.55716  0.84588  0.02056  Biso   1.000  C
  C227     1.0000 0.62425  0.80679  0.01249  Biso   1.000  C
  C228     1.0000 0.67538  0.85412  0.98441  Biso   1.000  C
  C229     1.0000 0.64186  0.92400  0.97511  Biso   1.000  C
  C230     1.0000 0.67879  0.98811  0.94798  Biso   1.000  C
  C231     1.0000 0.48936  0.73682  0.07130  Biso   1.000  C
  C232     1.0000 0.48417  0.67185  0.04017  Biso   1.000  C
  C233     1.0000 0.48960  0.59044  0.10638  Biso   1.000  C
  C234     1.0000 0.49368  0.65040  0.14026  Biso   1.000  C
  C235     1.0000 0.49424  0.72498  0.12263  Biso   1.000  C
  C236     1.0000 0.75749  0.98263  0.92696  Biso   1.000  C
  C237     1.0000 0.82337  0.00131  0.95695  Biso   1.000  C
  C238     1.0000 0.90455  0.97645  0.89386  Biso   1.000  C
  C239     1.0000 0.84313  0.95827  0.86110  Biso   1.000  C
  C240     1.0000 0.76885  0.96115  0.87824  Biso   1.000  C
  N1       1.0000 0.45112  0.55958  0.55316  Biso   1.000  N
  N2       1.0000 0.56802  0.59696  0.47726  Biso   1.000  N
  N3       1.0000 0.77946  0.63566  0.31008  Biso   1.000  N
  N4       1.0000 0.54296  0.90388  0.54982  Biso   1.000  N
  N5       1.0000 0.05043  0.93857  0.55148  Biso   1.000  N
  N6       1.0000 0.10450  0.05628  0.47978  Biso   1.000  N
  N7       1.0000 0.40160  0.01076  0.55244  Biso   1.000  N
  N8       1.0000 0.82146  0.74802  0.68836  Biso   1.000  N
  N9       1.0000 0.92993  0.42381  0.54242  Biso   1.000  N
  N10      1.0000 0.91711  0.56985  0.49726  Biso   1.000  N
  N11      1.0000 0.59916  0.48514  0.55734  Biso   1.000  N
  N12      1.0000 0.99724  0.89602  0.44092  Biso   1.000  N
  N13      1.0000 0.44042  0.54888  0.94684  Biso   1.000  N
  N14      1.0000 0.40304  0.43198  0.02274  Biso   1.000  N
  N15      1.0000 0.36434  0.22054  0.18992  Biso   1.000  N
  N16      1.0000 0.09612  0.45704  0.95018  Biso   1.000  N
  N17      1.0000 0.06143  0.94957  0.94852  Biso   1.000  N
  N18      1.0000 0.94372  0.89550  0.02022  Biso   1.000  N
  N19      1.0000 0.98924  0.59840  0.94756  Biso   1.000  N
  N20      1.0000 0.25198  0.17854  0.81164  Biso   1.000  N
  N21      1.0000 0.57619  0.07007  0.95758  Biso   1.000  N
  N22      1.0000 0.43015  0.08289  0.00274  Biso   1.000  N
  N23      1.0000 0.51486  0.40084  0.94266  Biso   1.000  N
  N24      1.0000 0.10398  0.00276  0.05908  Biso   1.000  N
  N25      1.0000 0.54888  0.44042  0.44684  Biso   1.000  N
  N26      1.0000 0.43198  0.40304  0.52274  Biso   1.000  N
  N27      1.0000 0.22054  0.36434  0.68992  Biso   1.000  N
  N28      1.0000 0.45704  0.09612  0.45018  Biso   1.000  N
  N29      1.0000 0.94957  0.06143  0.44852  Biso   1.000  N
  N30      1.0000 0.89550  0.94372  0.52022  Biso   1.000  N
  N31      1.0000 0.59840  0.98924  0.44756  Biso   1.000  N
  N32      1.0000 0.17854  0.25198  0.31164  Biso   1.000  N
  N33      1.0000 0.07007  0.57619  0.45758  Biso   1.000  N
  N34      1.0000 0.08289  0.43015  0.50274  Biso   1.000  N
  N35      1.0000 0.40084  0.51486  0.44266  Biso   1.000  N
  N36      1.0000 0.00276  0.10398  0.55908  Biso   1.000  N
  N37      1.0000 0.55958  0.45112  0.05316  Biso   1.000  N
  N38      1.0000 0.59696  0.56802  0.97726  Biso   1.000  N
  N39      1.0000 0.63566  0.77946  0.81008  Biso   1.000  N
  N40      1.0000 0.90388  0.54296  0.04982  Biso   1.000  N
  N41      1.0000 0.93857  0.05043  0.05148  Biso   1.000  N
  N42      1.0000 0.05628  0.10450  0.97978  Biso   1.000  N
  N43      1.0000 0.01076  0.40160  0.05244  Biso   1.000  N
  N44      1.0000 0.74802  0.82146  0.18836  Biso   1.000  N
  N45      1.0000 0.42381  0.92993  0.04242  Biso   1.000  N
  N46      1.0000 0.56985  0.91711  0.99726  Biso   1.000  N
  N47      1.0000 0.48514  0.59916  0.05734  Biso   1.000  N
  N48      1.0000 0.89602  0.99724  0.94092  Biso   1.000  N
  Cl1      1.0000 0.04924  0.57560  0.57900  Biso   1.000  Cl
  Cl2      1.0000 0.66576  0.64822  0.20805  Biso   1.000  Cl
  Cl3      1.0000 0.90411  0.73991  0.23073  Biso   1.000  Cl
  Cl4      1.0000 0.72790  0.80784  0.31475  Biso   1.000  Cl
  Cl5      1.0000 0.58701  0.10175  0.54881  Biso   1.000  Cl
  Cl6      1.0000 0.42440  0.95076  0.92100  Biso   1.000  Cl
  Cl7      1.0000 0.35178  0.33424  0.29195  Biso   1.000  Cl
  Cl8      1.0000 0.26009  0.09589  0.26927  Biso   1.000  Cl
  Cl9      1.0000 0.19216  0.27210  0.18525  Biso   1.000  Cl
  Cl10     1.0000 0.89825  0.41299  0.95119  Biso   1.000  Cl
  Cl11     1.0000 0.95076  0.42440  0.42100  Biso   1.000  Cl
  Cl12     1.0000 0.33424  0.35178  0.79195  Biso   1.000  Cl
  Cl13     1.0000 0.09589  0.26009  0.76927  Biso   1.000  Cl
  Cl14     1.0000 0.27210  0.19216  0.68525  Biso   1.000  Cl
  Cl15     1.0000 0.41299  0.89825  0.45119  Biso   1.000  Cl
  Cl16     1.0000 0.57560  0.04924  0.07900  Biso   1.000  Cl
  Cl17     1.0000 0.64822  0.66576  0.70805  Biso   1.000  Cl
  Cl18     1.0000 0.73991  0.90411  0.73073  Biso   1.000  Cl
  Cl19     1.0000 0.80784  0.72790  0.81475  Biso   1.000  Cl
  Cl20     1.0000 0.10175  0.58701  0.04881  Biso   1.000  Cl
