data_image0
_cell_length_a       11.314
_cell_length_b       11.314
_cell_length_c       25.2429
_cell_angle_alpha    90
_cell_angle_beta     90
_cell_angle_gamma    90

_symmetry_space_group_name_H-M    P 1
_symmetry_int_tables_number       1

loop_
  _symmetry_equiv_pos_as_xyz
  'x, y, z'

loop_
  _atom_site_label
  _atom_site_occupancy
  _atom_site_fract_x
  _atom_site_fract_y
  _atom_site_fract_z
  _atom_site_thermal_displace_type
  _atom_site_B_iso_or_equiv
  _atom_site_type_symbol
  Co1      1.0000 0.09629  0.90371  0.87500  Biso   1.000  Co
  Co2      1.0000 0.90371  0.09629  0.37500  Biso   1.000  Co
  Co3      1.0000 0.09629  0.09629  0.62500  Biso   1.000  Co
  Co4      1.0000 0.90371  0.90371  0.12500  Biso   1.000  Co
  Co5      1.0000 0.00000  0.79670  0.00000  Biso   1.000  Co
  Co6      1.0000 0.00000  0.20330  0.50000  Biso   1.000  Co
  Co7      1.0000 0.20330  0.00000  0.75000  Biso   1.000  Co
  Co8      1.0000 0.79670  0.00000  0.25000  Biso   1.000  Co
  H1       1.0000 0.05970  0.07600  0.03920  Biso   1.000  H
  H2       1.0000 0.74420  0.91900  0.81110  Biso   1.000  H
  H3       1.0000 0.55030  0.93370  0.78680  Biso   1.000  H
  H4       1.0000 0.44780  0.82890  0.93100  Biso   1.000  H
  H5       1.0000 0.31190  0.99990  0.94610  Biso   1.000  H
  H6       1.0000 0.64220  0.80260  0.95400  Biso   1.000  H
  H7       1.0000 0.39830  0.11330  0.01640  Biso   1.000  H
  H8       1.0000 0.32550  0.20480  0.98200  Biso   1.000  H
  H9       1.0000 0.20670  0.22300  0.05260  Biso   1.000  H
  H10      1.0000 0.25840  0.10750  0.07910  Biso   1.000  H
  H11      1.0000 0.94030  0.92400  0.53920  Biso   1.000  H
  H12      1.0000 0.25580  0.08100  0.31110  Biso   1.000  H
  H13      1.0000 0.44970  0.06630  0.28680  Biso   1.000  H
  H14      1.0000 0.55220  0.17110  0.43100  Biso   1.000  H
  H15      1.0000 0.68810  0.00010  0.44610  Biso   1.000  H
  H16      1.0000 0.35780  0.19740  0.45400  Biso   1.000  H
  H17      1.0000 0.60170  0.88670  0.51640  Biso   1.000  H
  H18      1.0000 0.67450  0.79520  0.48200  Biso   1.000  H
  H19      1.0000 0.79330  0.77700  0.55260  Biso   1.000  H
  H20      1.0000 0.74160  0.89250  0.57910  Biso   1.000  H
  H21      1.0000 0.92400  0.05970  0.78920  Biso   1.000  H
  H22      1.0000 0.08100  0.74420  0.56110  Biso   1.000  H
  H23      1.0000 0.06630  0.55030  0.53680  Biso   1.000  H
  H24      1.0000 0.17110  0.44780  0.68100  Biso   1.000  H
  H25      1.0000 0.00010  0.31190  0.69610  Biso   1.000  H
  H26      1.0000 0.19740  0.64220  0.70400  Biso   1.000  H
  H27      1.0000 0.88670  0.39830  0.76640  Biso   1.000  H
  H28      1.0000 0.79520  0.32550  0.73200  Biso   1.000  H
  H29      1.0000 0.77700  0.20670  0.80260  Biso   1.000  H
  H30      1.0000 0.89250  0.25840  0.82910  Biso   1.000  H
  H31      1.0000 0.07600  0.94030  0.28920  Biso   1.000  H
  H32      1.0000 0.91900  0.25580  0.06110  Biso   1.000  H
  H33      1.0000 0.93370  0.44970  0.03680  Biso   1.000  H
  H34      1.0000 0.82890  0.55220  0.18100  Biso   1.000  H
  H35      1.0000 0.99990  0.68810  0.19610  Biso   1.000  H
  H36      1.0000 0.80260  0.35780  0.20400  Biso   1.000  H
  H37      1.0000 0.11330  0.60170  0.26640  Biso   1.000  H
  H38      1.0000 0.20480  0.67450  0.23200  Biso   1.000  H
  H39      1.0000 0.22300  0.79330  0.30260  Biso   1.000  H
  H40      1.0000 0.10750  0.74160  0.32910  Biso   1.000  H
  H41      1.0000 0.94030  0.07600  0.96080  Biso   1.000  H
  H42      1.0000 0.25580  0.91900  0.18890  Biso   1.000  H
  H43      1.0000 0.44970  0.93370  0.21320  Biso   1.000  H
  H44      1.0000 0.55220  0.82890  0.06900  Biso   1.000  H
  H45      1.0000 0.68810  0.99990  0.05390  Biso   1.000  H
  H46      1.0000 0.35780  0.80260  0.04600  Biso   1.000  H
  H47      1.0000 0.60170  0.11330  0.98360  Biso   1.000  H
  H48      1.0000 0.67450  0.20480  0.01800  Biso   1.000  H
  H49      1.0000 0.79330  0.22300  0.94740  Biso   1.000  H
  H50      1.0000 0.74160  0.10750  0.92090  Biso   1.000  H
  H51      1.0000 0.05970  0.92400  0.46080  Biso   1.000  H
  H52      1.0000 0.74420  0.08100  0.68890  Biso   1.000  H
  H53      1.0000 0.55030  0.06630  0.71320  Biso   1.000  H
  H54      1.0000 0.44780  0.17110  0.56900  Biso   1.000  H
  H55      1.0000 0.31190  0.00010  0.55390  Biso   1.000  H
  H56      1.0000 0.64220  0.19740  0.54600  Biso   1.000  H
  H57      1.0000 0.39830  0.88670  0.48360  Biso   1.000  H
  H58      1.0000 0.32550  0.79520  0.51800  Biso   1.000  H
  H59      1.0000 0.20670  0.77700  0.44740  Biso   1.000  H
  H60      1.0000 0.25840  0.89250  0.42090  Biso   1.000  H
  H61      1.0000 0.07600  0.05970  0.21080  Biso   1.000  H
  H62      1.0000 0.91900  0.74420  0.43890  Biso   1.000  H
  H63      1.0000 0.93370  0.55030  0.46320  Biso   1.000  H
  H64      1.0000 0.82890  0.44780  0.31900  Biso   1.000  H
  H65      1.0000 0.99990  0.31190  0.30390  Biso   1.000  H
  H66      1.0000 0.80260  0.64220  0.29600  Biso   1.000  H
  H67      1.0000 0.11330  0.39830  0.23360  Biso   1.000  H
  H68      1.0000 0.20480  0.32550  0.26800  Biso   1.000  H
  H69      1.0000 0.22300  0.20670  0.19740  Biso   1.000  H
  H70      1.0000 0.10750  0.25840  0.17090  Biso   1.000  H
  H71      1.0000 0.92400  0.94030  0.71080  Biso   1.000  H
  H72      1.0000 0.08100  0.25580  0.93890  Biso   1.000  H
  H73      1.0000 0.06630  0.44970  0.96320  Biso   1.000  H
  H74      1.0000 0.17110  0.55220  0.81900  Biso   1.000  H
  H75      1.0000 0.00010  0.68810  0.80390  Biso   1.000  H
  H76      1.0000 0.19740  0.35780  0.79600  Biso   1.000  H
  H77      1.0000 0.88670  0.60170  0.73360  Biso   1.000  H
  H78      1.0000 0.79520  0.67450  0.76800  Biso   1.000  H
  H79      1.0000 0.77700  0.79330  0.69740  Biso   1.000  H
  H80      1.0000 0.89250  0.74160  0.67090  Biso   1.000  H
  C1       1.0000 0.16340  0.00810  0.98440  Biso   1.000  C
  C2       1.0000 0.47920  0.88340  0.85550  Biso   1.000  C
  C3       1.0000 0.84260  0.85590  0.90350  Biso   1.000  C
  C4       1.0000 0.35230  0.90290  0.83960  Biso   1.000  C
  C5       1.0000 0.68490  0.89970  0.83510  Biso   1.000  C
  C6       1.0000 0.71400  0.86060  0.88640  Biso   1.000  C
  C7       1.0000 0.56900  0.90910  0.82090  Biso   1.000  C
  C8       1.0000 0.50740  0.84510  0.90670  Biso   1.000  C
  C9       1.0000 0.62370  0.83180  0.92050  Biso   1.000  C
  C10      1.0000 0.32080  0.13230  0.00240  Biso   1.000  C
  C11      1.0000 0.22880  0.14130  0.04630  Biso   1.000  C
  C12      1.0000 0.83660  0.99190  0.48440  Biso   1.000  C
  C13      1.0000 0.52080  0.11660  0.35550  Biso   1.000  C
  C14      1.0000 0.15740  0.14410  0.40350  Biso   1.000  C
  C15      1.0000 0.64770  0.09710  0.33960  Biso   1.000  C
  C16      1.0000 0.31510  0.10030  0.33510  Biso   1.000  C
  C17      1.0000 0.28600  0.13940  0.38640  Biso   1.000  C
  C18      1.0000 0.43100  0.09090  0.32090  Biso   1.000  C
  C19      1.0000 0.49260  0.15490  0.40670  Biso   1.000  C
  C20      1.0000 0.37630  0.16820  0.42050  Biso   1.000  C
  C21      1.0000 0.67920  0.86770  0.50240  Biso   1.000  C
  C22      1.0000 0.77120  0.85870  0.54630  Biso   1.000  C
  C23      1.0000 0.99190  0.16340  0.73440  Biso   1.000  C
  C24      1.0000 0.11660  0.47920  0.60550  Biso   1.000  C
  C25      1.0000 0.14410  0.84260  0.65350  Biso   1.000  C
  C26      1.0000 0.09710  0.35230  0.58960  Biso   1.000  C
  C27      1.0000 0.10030  0.68490  0.58510  Biso   1.000  C
  C28      1.0000 0.13940  0.71400  0.63640  Biso   1.000  C
  C29      1.0000 0.09090  0.56900  0.57090  Biso   1.000  C
  C30      1.0000 0.15490  0.50740  0.65670  Biso   1.000  C
  C31      1.0000 0.16820  0.62370  0.67050  Biso   1.000  C
  C32      1.0000 0.86770  0.32080  0.75240  Biso   1.000  C
  C33      1.0000 0.85870  0.22880  0.79630  Biso   1.000  C
  C34      1.0000 0.00810  0.83660  0.23440  Biso   1.000  C
  C35      1.0000 0.88340  0.52080  0.10550  Biso   1.000  C
  C36      1.0000 0.85590  0.15740  0.15350  Biso   1.000  C
  C37      1.0000 0.90290  0.64770  0.08960  Biso   1.000  C
  C38      1.0000 0.89970  0.31510  0.08510  Biso   1.000  C
  C39      1.0000 0.86060  0.28600  0.13640  Biso   1.000  C
  C40      1.0000 0.90910  0.43100  0.07090  Biso   1.000  C
  C41      1.0000 0.84510  0.49260  0.15670  Biso   1.000  C
  C42      1.0000 0.83180  0.37630  0.17050  Biso   1.000  C
  C43      1.0000 0.13230  0.67920  0.25240  Biso   1.000  C
  C44      1.0000 0.14130  0.77120  0.29630  Biso   1.000  C
  C45      1.0000 0.83660  0.00810  0.01560  Biso   1.000  C
  C46      1.0000 0.52080  0.88340  0.14450  Biso   1.000  C
  C47      1.0000 0.15740  0.85590  0.09650  Biso   1.000  C
  C48      1.0000 0.64770  0.90290  0.16040  Biso   1.000  C
  C49      1.0000 0.31510  0.89970  0.16490  Biso   1.000  C
  C50      1.0000 0.28600  0.86060  0.11360  Biso   1.000  C
  C51      1.0000 0.43100  0.90910  0.17910  Biso   1.000  C
  C52      1.0000 0.49260  0.84510  0.09330  Biso   1.000  C
  C53      1.0000 0.37630  0.83180  0.07950  Biso   1.000  C
  C54      1.0000 0.67920  0.13230  0.99760  Biso   1.000  C
  C55      1.0000 0.77120  0.14130  0.95370  Biso   1.000  C
  C56      1.0000 0.16340  0.99190  0.51560  Biso   1.000  C
  C57      1.0000 0.47920  0.11660  0.64450  Biso   1.000  C
  C58      1.0000 0.84260  0.14410  0.59650  Biso   1.000  C
  C59      1.0000 0.35230  0.09710  0.66040  Biso   1.000  C
  C60      1.0000 0.68490  0.10030  0.66490  Biso   1.000  C
  C61      1.0000 0.71400  0.13940  0.61360  Biso   1.000  C
  C62      1.0000 0.56900  0.09090  0.67910  Biso   1.000  C
  C63      1.0000 0.50740  0.15490  0.59330  Biso   1.000  C
  C64      1.0000 0.62370  0.16820  0.57950  Biso   1.000  C
  C65      1.0000 0.32080  0.86770  0.49760  Biso   1.000  C
  C66      1.0000 0.22880  0.85870  0.45370  Biso   1.000  C
  C67      1.0000 0.00810  0.16340  0.26560  Biso   1.000  C
  C68      1.0000 0.88340  0.47920  0.39450  Biso   1.000  C
  C69      1.0000 0.85590  0.84260  0.34650  Biso   1.000  C
  C70      1.0000 0.90290  0.35230  0.41040  Biso   1.000  C
  C71      1.0000 0.89970  0.68490  0.41490  Biso   1.000  C
  C72      1.0000 0.86060  0.71400  0.36360  Biso   1.000  C
  C73      1.0000 0.90910  0.56900  0.42910  Biso   1.000  C
  C74      1.0000 0.84510  0.50740  0.34330  Biso   1.000  C
  C75      1.0000 0.83180  0.62370  0.32950  Biso   1.000  C
  C76      1.0000 0.13230  0.32080  0.24760  Biso   1.000  C
  C77      1.0000 0.14130  0.22880  0.20370  Biso   1.000  C
  C78      1.0000 0.99190  0.83660  0.76560  Biso   1.000  C
  C79      1.0000 0.11660  0.52080  0.89450  Biso   1.000  C
  C80      1.0000 0.14410  0.15740  0.84650  Biso   1.000  C
  C81      1.0000 0.09710  0.64770  0.91040  Biso   1.000  C
  C82      1.0000 0.10030  0.31510  0.91490  Biso   1.000  C
  C83      1.0000 0.13940  0.28600  0.86360  Biso   1.000  C
  C84      1.0000 0.09090  0.43100  0.92910  Biso   1.000  C
  C85      1.0000 0.15490  0.49260  0.84330  Biso   1.000  C
  C86      1.0000 0.16820  0.37630  0.82950  Biso   1.000  C
  C87      1.0000 0.86770  0.67920  0.74760  Biso   1.000  C
  C88      1.0000 0.85870  0.77120  0.70370  Biso   1.000  C
  N1       1.0000 0.13000  0.07420  0.02630  Biso   1.000  N
  N2       1.0000 0.27320  0.03530  0.97070  Biso   1.000  N
  N3       1.0000 0.87000  0.92580  0.52630  Biso   1.000  N
  N4       1.0000 0.72680  0.96470  0.47070  Biso   1.000  N
  N5       1.0000 0.92580  0.13000  0.77630  Biso   1.000  N
  N6       1.0000 0.96470  0.27320  0.72070  Biso   1.000  N
  N7       1.0000 0.07420  0.87000  0.27630  Biso   1.000  N
  N8       1.0000 0.03530  0.72680  0.22070  Biso   1.000  N
  N9       1.0000 0.87000  0.07420  0.97370  Biso   1.000  N
  N10      1.0000 0.72680  0.03530  0.02930  Biso   1.000  N
  N11      1.0000 0.13000  0.92580  0.47370  Biso   1.000  N
  N12      1.0000 0.27320  0.96470  0.52930  Biso   1.000  N
  N13      1.0000 0.07420  0.13000  0.22370  Biso   1.000  N
  N14      1.0000 0.03530  0.27320  0.27930  Biso   1.000  N
  N15      1.0000 0.92580  0.87000  0.72370  Biso   1.000  N
  N16      1.0000 0.96470  0.72680  0.77930  Biso   1.000  N
  O1       1.0000 0.91450  0.91070  0.87500  Biso   1.000  O
  O2       1.0000 0.27580  0.90490  0.87530  Biso   1.000  O
  O3       1.0000 0.33370  0.91140  0.79030  Biso   1.000  O
  O4       1.0000 0.86430  0.79850  0.94500  Biso   1.000  O
  O5       1.0000 0.09720  0.93390  0.96130  Biso   1.000  O
  O6       1.0000 0.08550  0.08930  0.37500  Biso   1.000  O
  O7       1.0000 0.72420  0.09510  0.37530  Biso   1.000  O
  O8       1.0000 0.66630  0.08860  0.29030  Biso   1.000  O
  O9       1.0000 0.13570  0.20150  0.44500  Biso   1.000  O
  O10      1.0000 0.90280  0.06610  0.46130  Biso   1.000  O
  O11      1.0000 0.08930  0.91450  0.62500  Biso   1.000  O
  O12      1.0000 0.09510  0.27580  0.62530  Biso   1.000  O
  O13      1.0000 0.08860  0.33370  0.54030  Biso   1.000  O
  O14      1.0000 0.20150  0.86430  0.69500  Biso   1.000  O
  O15      1.0000 0.06610  0.09720  0.71130  Biso   1.000  O
  O16      1.0000 0.91070  0.08550  0.12500  Biso   1.000  O
  O17      1.0000 0.90490  0.72420  0.12530  Biso   1.000  O
  O18      1.0000 0.91140  0.66630  0.04030  Biso   1.000  O
  O19      1.0000 0.79850  0.13570  0.19500  Biso   1.000  O
  O20      1.0000 0.93390  0.90280  0.21130  Biso   1.000  O
  O21      1.0000 0.08550  0.91070  0.12500  Biso   1.000  O
  O22      1.0000 0.72420  0.90490  0.12470  Biso   1.000  O
  O23      1.0000 0.66630  0.91140  0.20970  Biso   1.000  O
  O24      1.0000 0.13570  0.79850  0.05500  Biso   1.000  O
  O25      1.0000 0.90280  0.93390  0.03870  Biso   1.000  O
  O26      1.0000 0.91450  0.08930  0.62500  Biso   1.000  O
  O27      1.0000 0.27580  0.09510  0.62470  Biso   1.000  O
  O28      1.0000 0.33370  0.08860  0.70970  Biso   1.000  O
  O29      1.0000 0.86430  0.20150  0.55500  Biso   1.000  O
  O30      1.0000 0.09720  0.06610  0.53870  Biso   1.000  O
  O31      1.0000 0.91070  0.91450  0.37500  Biso   1.000  O
  O32      1.0000 0.90490  0.27580  0.37470  Biso   1.000  O
  O33      1.0000 0.91140  0.33370  0.45970  Biso   1.000  O
  O34      1.0000 0.79850  0.86430  0.30500  Biso   1.000  O
  O35      1.0000 0.93390  0.09720  0.28870  Biso   1.000  O
  O36      1.0000 0.08930  0.08550  0.87500  Biso   1.000  O
  O37      1.0000 0.09510  0.72420  0.87470  Biso   1.000  O
  O38      1.0000 0.08860  0.66630  0.95970  Biso   1.000  O
  O39      1.0000 0.20150  0.13570  0.80500  Biso   1.000  O
  O40      1.0000 0.06610  0.90280  0.78870  Biso   1.000  O
