data_image0
_cell_length_a       11.3108
_cell_length_b       11.3108
_cell_length_c       25.238
_cell_angle_alpha    90
_cell_angle_beta     90
_cell_angle_gamma    90

_symmetry_space_group_name_H-M    P 1
_symmetry_int_tables_number       1

loop_
  _symmetry_equiv_pos_as_xyz
  'x, y, z'

loop_
  _atom_site_label
  _atom_site_occupancy
  _atom_site_fract_x
  _atom_site_fract_y
  _atom_site_fract_z
  _atom_site_thermal_displace_type
  _atom_site_B_iso_or_equiv
  _atom_site_type_symbol
  Co1      1.0000 0.50000  0.29678  0.00000  Biso   1.000  Co
  Co2      1.0000 0.50000  0.70322  0.50000  Biso   1.000  Co
  Co3      1.0000 0.70322  0.50000  0.25000  Biso   1.000  Co
  Co4      1.0000 0.29678  0.50000  0.75000  Biso   1.000  Co
  Co5      1.0000 0.40371  0.40371  0.87500  Biso   1.000  Co
  Co6      1.0000 0.59629  0.59629  0.37500  Biso   1.000  Co
  Co7      1.0000 0.59629  0.40371  0.12500  Biso   1.000  Co
  Co8      1.0000 0.40371  0.59629  0.62500  Biso   1.000  Co
  H1       1.0000 0.44100  0.57580  0.03870  Biso   1.000  H
  H2       1.0000 0.32990  0.05210  0.81920  Biso   1.000  H
  H3       1.0000 0.41980  0.75610  0.93830  Biso   1.000  H
  H4       1.0000 0.43210  0.94870  0.96290  Biso   1.000  H
  H5       1.0000 0.30310  0.85960  0.79550  Biso   1.000  H
  H6       1.0000 0.17820  0.70570  0.98270  Biso   1.000  H
  H7       1.0000 0.10300  0.61460  0.01630  Biso   1.000  H
  H8       1.0000 0.18850  0.50080  0.94620  Biso   1.000  H
  H9       1.0000 0.23940  0.60410  0.07870  Biso   1.000  H
  H10      1.0000 0.29130  0.72130  0.05380  Biso   1.000  H
  H11      1.0000 0.55900  0.42420  0.53870  Biso   1.000  H
  H12      1.0000 0.67010  0.94790  0.31920  Biso   1.000  H
  H13      1.0000 0.58020  0.24390  0.43830  Biso   1.000  H
  H14      1.0000 0.56790  0.05130  0.46290  Biso   1.000  H
  H15      1.0000 0.69690  0.14040  0.29550  Biso   1.000  H
  H16      1.0000 0.82180  0.29430  0.48270  Biso   1.000  H
  H17      1.0000 0.89700  0.38540  0.51630  Biso   1.000  H
  H18      1.0000 0.81150  0.49920  0.44620  Biso   1.000  H
  H19      1.0000 0.76060  0.39590  0.57870  Biso   1.000  H
  H20      1.0000 0.70870  0.27870  0.55380  Biso   1.000  H
  H21      1.0000 0.42420  0.44100  0.28870  Biso   1.000  H
  H22      1.0000 0.94790  0.32990  0.06920  Biso   1.000  H
  H23      1.0000 0.24390  0.41980  0.18830  Biso   1.000  H
  H24      1.0000 0.05130  0.43210  0.21290  Biso   1.000  H
  H25      1.0000 0.14040  0.30310  0.04550  Biso   1.000  H
  H26      1.0000 0.29430  0.17820  0.23270  Biso   1.000  H
  H27      1.0000 0.38540  0.10300  0.26630  Biso   1.000  H
  H28      1.0000 0.49920  0.18850  0.19620  Biso   1.000  H
  H29      1.0000 0.39590  0.23940  0.32870  Biso   1.000  H
  H30      1.0000 0.27870  0.29130  0.30380  Biso   1.000  H
  H31      1.0000 0.57580  0.55900  0.78870  Biso   1.000  H
  H32      1.0000 0.05210  0.67010  0.56920  Biso   1.000  H
  H33      1.0000 0.75610  0.58020  0.68830  Biso   1.000  H
  H34      1.0000 0.94870  0.56790  0.71290  Biso   1.000  H
  H35      1.0000 0.85960  0.69690  0.54550  Biso   1.000  H
  H36      1.0000 0.70570  0.82180  0.73270  Biso   1.000  H
  H37      1.0000 0.61460  0.89700  0.76630  Biso   1.000  H
  H38      1.0000 0.50080  0.81150  0.69620  Biso   1.000  H
  H39      1.0000 0.60410  0.76060  0.82870  Biso   1.000  H
  H40      1.0000 0.72130  0.70870  0.80380  Biso   1.000  H
  H41      1.0000 0.55900  0.57580  0.96130  Biso   1.000  H
  H42      1.0000 0.67010  0.05210  0.18080  Biso   1.000  H
  H43      1.0000 0.58020  0.75610  0.06170  Biso   1.000  H
  H44      1.0000 0.56790  0.94870  0.03710  Biso   1.000  H
  H45      1.0000 0.69690  0.85960  0.20450  Biso   1.000  H
  H46      1.0000 0.82180  0.70570  0.01730  Biso   1.000  H
  H47      1.0000 0.89700  0.61460  0.98370  Biso   1.000  H
  H48      1.0000 0.81150  0.50080  0.05380  Biso   1.000  H
  H49      1.0000 0.76060  0.60410  0.92130  Biso   1.000  H
  H50      1.0000 0.70870  0.72130  0.94620  Biso   1.000  H
  H51      1.0000 0.44100  0.42420  0.46130  Biso   1.000  H
  H52      1.0000 0.32990  0.94790  0.68080  Biso   1.000  H
  H53      1.0000 0.41980  0.24390  0.56170  Biso   1.000  H
  H54      1.0000 0.43210  0.05130  0.53710  Biso   1.000  H
  H55      1.0000 0.30310  0.14040  0.70450  Biso   1.000  H
  H56      1.0000 0.17820  0.29430  0.51730  Biso   1.000  H
  H57      1.0000 0.10300  0.38540  0.48370  Biso   1.000  H
  H58      1.0000 0.18850  0.49920  0.55380  Biso   1.000  H
  H59      1.0000 0.23940  0.39590  0.42130  Biso   1.000  H
  H60      1.0000 0.29130  0.27870  0.44620  Biso   1.000  H
  H61      1.0000 0.57580  0.44100  0.71130  Biso   1.000  H
  H62      1.0000 0.05210  0.32990  0.93080  Biso   1.000  H
  H63      1.0000 0.75610  0.41980  0.81170  Biso   1.000  H
  H64      1.0000 0.94870  0.43210  0.78710  Biso   1.000  H
  H65      1.0000 0.85960  0.30310  0.95450  Biso   1.000  H
  H66      1.0000 0.70570  0.17820  0.76730  Biso   1.000  H
  H67      1.0000 0.61460  0.10300  0.73370  Biso   1.000  H
  H68      1.0000 0.50080  0.18850  0.80380  Biso   1.000  H
  H69      1.0000 0.60410  0.23940  0.67130  Biso   1.000  H
  H70      1.0000 0.72130  0.29130  0.69620  Biso   1.000  H
  H71      1.0000 0.42420  0.55900  0.21130  Biso   1.000  H
  H72      1.0000 0.94790  0.67010  0.43080  Biso   1.000  H
  H73      1.0000 0.24390  0.58020  0.31170  Biso   1.000  H
  H74      1.0000 0.05130  0.56790  0.28710  Biso   1.000  H
  H75      1.0000 0.14040  0.69690  0.45450  Biso   1.000  H
  H76      1.0000 0.29430  0.82180  0.26730  Biso   1.000  H
  H77      1.0000 0.38540  0.89700  0.23370  Biso   1.000  H
  H78      1.0000 0.49920  0.81150  0.30380  Biso   1.000  H
  H79      1.0000 0.39590  0.76060  0.17130  Biso   1.000  H
  H80      1.0000 0.27870  0.70870  0.19620  Biso   1.000  H
  C1       1.0000 0.33730  0.50880  0.98450  Biso   1.000  C
  C2       1.0000 0.38450  0.02030  0.89440  Biso   1.000  C
  C3       1.0000 0.36170  0.78520  0.86350  Biso   1.000  C
  C4       1.0000 0.34610  0.99210  0.84340  Biso   1.000  C
  C5       1.0000 0.40010  0.81520  0.91420  Biso   1.000  C
  C6       1.0000 0.35510  0.65970  0.84630  Biso   1.000  C
  C7       1.0000 0.40880  0.93050  0.92860  Biso   1.000  C
  C8       1.0000 0.33250  0.87730  0.82900  Biso   1.000  C
  C9       1.0000 0.18130  0.63260  0.00280  Biso   1.000  C
  C10      1.0000 0.40230  0.14710  0.91050  Biso   1.000  C
  C11      1.0000 0.26980  0.63980  0.04650  Biso   1.000  C
  C12      1.0000 0.66270  0.49120  0.48450  Biso   1.000  C
  C13      1.0000 0.61550  0.97970  0.39440  Biso   1.000  C
  C14      1.0000 0.63830  0.21480  0.36350  Biso   1.000  C
  C15      1.0000 0.65390  0.00790  0.34340  Biso   1.000  C
  C16      1.0000 0.59990  0.18480  0.41420  Biso   1.000  C
  C17      1.0000 0.64490  0.34030  0.34630  Biso   1.000  C
  C18      1.0000 0.59120  0.06950  0.42860  Biso   1.000  C
  C19      1.0000 0.66750  0.12270  0.32900  Biso   1.000  C
  C20      1.0000 0.81870  0.36740  0.50280  Biso   1.000  C
  C21      1.0000 0.59770  0.85290  0.41050  Biso   1.000  C
  C22      1.0000 0.73020  0.36020  0.54650  Biso   1.000  C
  C23      1.0000 0.49120  0.33730  0.23450  Biso   1.000  C
  C24      1.0000 0.97970  0.38450  0.14440  Biso   1.000  C
  C25      1.0000 0.21480  0.36170  0.11350  Biso   1.000  C
  C26      1.0000 0.00790  0.34610  0.09340  Biso   1.000  C
  C27      1.0000 0.18480  0.40010  0.16420  Biso   1.000  C
  C28      1.0000 0.34030  0.35510  0.09630  Biso   1.000  C
  C29      1.0000 0.06950  0.40880  0.17860  Biso   1.000  C
  C30      1.0000 0.12270  0.33250  0.07900  Biso   1.000  C
  C31      1.0000 0.36740  0.18130  0.25280  Biso   1.000  C
  C32      1.0000 0.85290  0.40230  0.16050  Biso   1.000  C
  C33      1.0000 0.36020  0.26980  0.29650  Biso   1.000  C
  C34      1.0000 0.50880  0.66270  0.73450  Biso   1.000  C
  C35      1.0000 0.02030  0.61550  0.64440  Biso   1.000  C
  C36      1.0000 0.78520  0.63830  0.61350  Biso   1.000  C
  C37      1.0000 0.99210  0.65390  0.59340  Biso   1.000  C
  C38      1.0000 0.81520  0.59990  0.66420  Biso   1.000  C
  C39      1.0000 0.65970  0.64490  0.59630  Biso   1.000  C
  C40      1.0000 0.93050  0.59120  0.67860  Biso   1.000  C
  C41      1.0000 0.87730  0.66750  0.57900  Biso   1.000  C
  C42      1.0000 0.63260  0.81870  0.75280  Biso   1.000  C
  C43      1.0000 0.14710  0.59770  0.66050  Biso   1.000  C
  C44      1.0000 0.63980  0.73020  0.79650  Biso   1.000  C
  C45      1.0000 0.66270  0.50880  0.01550  Biso   1.000  C
  C46      1.0000 0.61550  0.02030  0.10560  Biso   1.000  C
  C47      1.0000 0.63830  0.78520  0.13650  Biso   1.000  C
  C48      1.0000 0.65390  0.99210  0.15660  Biso   1.000  C
  C49      1.0000 0.59990  0.81520  0.08580  Biso   1.000  C
  C50      1.0000 0.64490  0.65970  0.15370  Biso   1.000  C
  C51      1.0000 0.59120  0.93050  0.07140  Biso   1.000  C
  C52      1.0000 0.66750  0.87730  0.17100  Biso   1.000  C
  C53      1.0000 0.81870  0.63260  0.99720  Biso   1.000  C
  C54      1.0000 0.59770  0.14710  0.08950  Biso   1.000  C
  C55      1.0000 0.73020  0.63980  0.95350  Biso   1.000  C
  C56      1.0000 0.33730  0.49120  0.51550  Biso   1.000  C
  C57      1.0000 0.38450  0.97970  0.60560  Biso   1.000  C
  C58      1.0000 0.36170  0.21480  0.63650  Biso   1.000  C
  C59      1.0000 0.34610  0.00790  0.65660  Biso   1.000  C
  C60      1.0000 0.40010  0.18480  0.58580  Biso   1.000  C
  C61      1.0000 0.35510  0.34030  0.65370  Biso   1.000  C
  C62      1.0000 0.40880  0.06950  0.57140  Biso   1.000  C
  C63      1.0000 0.33250  0.12270  0.67100  Biso   1.000  C
  C64      1.0000 0.18130  0.36740  0.49720  Biso   1.000  C
  C65      1.0000 0.40230  0.85290  0.58950  Biso   1.000  C
  C66      1.0000 0.26980  0.36020  0.45350  Biso   1.000  C
  C67      1.0000 0.50880  0.33730  0.76550  Biso   1.000  C
  C68      1.0000 0.02030  0.38450  0.85560  Biso   1.000  C
  C69      1.0000 0.78520  0.36170  0.88650  Biso   1.000  C
  C70      1.0000 0.99210  0.34610  0.90660  Biso   1.000  C
  C71      1.0000 0.81520  0.40010  0.83580  Biso   1.000  C
  C72      1.0000 0.65970  0.35510  0.90370  Biso   1.000  C
  C73      1.0000 0.93050  0.40880  0.82140  Biso   1.000  C
  C74      1.0000 0.87730  0.33250  0.92100  Biso   1.000  C
  C75      1.0000 0.63260  0.18130  0.74720  Biso   1.000  C
  C76      1.0000 0.14710  0.40230  0.83950  Biso   1.000  C
  C77      1.0000 0.63980  0.26980  0.70350  Biso   1.000  C
  C78      1.0000 0.49120  0.66270  0.26550  Biso   1.000  C
  C79      1.0000 0.97970  0.61550  0.35560  Biso   1.000  C
  C80      1.0000 0.21480  0.63830  0.38650  Biso   1.000  C
  C81      1.0000 0.00790  0.65390  0.40660  Biso   1.000  C
  C82      1.0000 0.18480  0.59990  0.33580  Biso   1.000  C
  C83      1.0000 0.34030  0.64490  0.40370  Biso   1.000  C
  C84      1.0000 0.06950  0.59120  0.32140  Biso   1.000  C
  C85      1.0000 0.12270  0.66750  0.42100  Biso   1.000  C
  C86      1.0000 0.36740  0.81870  0.24720  Biso   1.000  C
  C87      1.0000 0.85290  0.59770  0.33950  Biso   1.000  C
  C88      1.0000 0.36020  0.73020  0.20350  Biso   1.000  C
  N1       1.0000 0.37050  0.57340  0.02590  Biso   1.000  N
  N2       1.0000 0.22750  0.53590  0.97090  Biso   1.000  N
  N3       1.0000 0.62950  0.42660  0.52590  Biso   1.000  N
  N4       1.0000 0.77250  0.46410  0.47090  Biso   1.000  N
  N5       1.0000 0.42660  0.37050  0.27590  Biso   1.000  N
  N6       1.0000 0.46410  0.22750  0.22090  Biso   1.000  N
  N7       1.0000 0.57340  0.62950  0.77590  Biso   1.000  N
  N8       1.0000 0.53590  0.77250  0.72090  Biso   1.000  N
  N9       1.0000 0.62950  0.57340  0.97410  Biso   1.000  N
  N10      1.0000 0.77250  0.53590  0.02910  Biso   1.000  N
  N11      1.0000 0.37050  0.42660  0.47410  Biso   1.000  N
  N12      1.0000 0.22750  0.46410  0.52910  Biso   1.000  N
  N13      1.0000 0.57340  0.37050  0.72410  Biso   1.000  N
  N14      1.0000 0.53590  0.22750  0.77910  Biso   1.000  N
  N15      1.0000 0.42660  0.62950  0.22410  Biso   1.000  N
  N16      1.0000 0.46410  0.77250  0.27910  Biso   1.000  N
  O1       1.0000 0.40990  0.58530  0.87490  Biso   1.000  O
  O2       1.0000 0.40460  0.22400  0.87470  Biso   1.000  O
  O3       1.0000 0.41250  0.16710  0.95970  Biso   1.000  O
  O4       1.0000 0.40190  0.43420  0.96090  Biso   1.000  O
  O5       1.0000 0.29960  0.63610  0.80480  Biso   1.000  O
  O6       1.0000 0.59010  0.41470  0.37490  Biso   1.000  O
  O7       1.0000 0.59540  0.77600  0.37470  Biso   1.000  O
  O8       1.0000 0.58750  0.83290  0.45970  Biso   1.000  O
  O9       1.0000 0.59810  0.56580  0.46090  Biso   1.000  O
  O10      1.0000 0.70040  0.36390  0.30480  Biso   1.000  O
  O11      1.0000 0.41470  0.40990  0.12490  Biso   1.000  O
  O12      1.0000 0.77600  0.40460  0.12470  Biso   1.000  O
  O13      1.0000 0.83290  0.41250  0.20970  Biso   1.000  O
  O14      1.0000 0.56580  0.40190  0.21090  Biso   1.000  O
  O15      1.0000 0.36390  0.29960  0.05480  Biso   1.000  O
  O16      1.0000 0.58530  0.59010  0.62490  Biso   1.000  O
  O17      1.0000 0.22400  0.59540  0.62470  Biso   1.000  O
  O18      1.0000 0.16710  0.58750  0.70970  Biso   1.000  O
  O19      1.0000 0.43420  0.59810  0.71090  Biso   1.000  O
  O20      1.0000 0.63610  0.70040  0.55480  Biso   1.000  O
  O21      1.0000 0.59010  0.58530  0.12510  Biso   1.000  O
  O22      1.0000 0.59540  0.22400  0.12530  Biso   1.000  O
  O23      1.0000 0.58750  0.16710  0.04030  Biso   1.000  O
  O24      1.0000 0.59810  0.43420  0.03910  Biso   1.000  O
  O25      1.0000 0.70040  0.63610  0.19520  Biso   1.000  O
  O26      1.0000 0.40990  0.41470  0.62510  Biso   1.000  O
  O27      1.0000 0.40460  0.77600  0.62530  Biso   1.000  O
  O28      1.0000 0.41250  0.83290  0.54030  Biso   1.000  O
  O29      1.0000 0.40190  0.56580  0.53910  Biso   1.000  O
  O30      1.0000 0.29960  0.36390  0.69520  Biso   1.000  O
  O31      1.0000 0.58530  0.40990  0.87510  Biso   1.000  O
  O32      1.0000 0.22400  0.40460  0.87530  Biso   1.000  O
  O33      1.0000 0.16710  0.41250  0.79030  Biso   1.000  O
  O34      1.0000 0.43420  0.40190  0.78910  Biso   1.000  O
  O35      1.0000 0.63610  0.29960  0.94520  Biso   1.000  O
  O36      1.0000 0.41470  0.59010  0.37510  Biso   1.000  O
  O37      1.0000 0.77600  0.59540  0.37530  Biso   1.000  O
  O38      1.0000 0.83290  0.58750  0.29030  Biso   1.000  O
  O39      1.0000 0.56580  0.59810  0.28910  Biso   1.000  O
  O40      1.0000 0.36390  0.70040  0.44520  Biso   1.000  O
