data_image0
_cell_length_a       15.3115
_cell_length_b       13.4202
_cell_length_c       19.1497
_cell_angle_alpha    90
_cell_angle_beta     99.467
_cell_angle_gamma    90

_symmetry_space_group_name_H-M    "P 1"
_symmetry_int_tables_number       1

loop_
  _symmetry_equiv_pos_as_xyz
  'x, y, z'

loop_
  _atom_site_label
  _atom_site_occupancy
  _atom_site_fract_x
  _atom_site_fract_y
  _atom_site_fract_z
  _atom_site_thermal_displace_type
  _atom_site_B_iso_or_equiv
  _atom_site_type_symbol
  Cd1      1.0000 0.21922  0.32000  0.41147  Biso   1.000  Cd
  Cd2      1.0000 0.25151  0.19502  0.24893  Biso   1.000  Cd
  O1       1.0000 0.34060  0.28040  0.33760  Biso   1.000  O
  O2       1.0000 0.38150  0.31430  0.23550  Biso   1.000  O
  O3       1.0000 0.63960  0.55940  0.23880  Biso   1.000  O
  O4       1.0000 0.70500  0.60980  0.34300  Biso   1.000  O
  O5       1.0000 0.69160  0.52410  0.55790  Biso   1.000  O
  O6       1.0000 0.16500  0.16380  0.35120  Biso   1.000  O
  O7       1.0000 0.12410  0.09860  0.24590  Biso   1.000  O
  O8       1.0000 0.84690  0.87160  0.21380  Biso   1.000  O
  O9       1.0000 0.82850  0.80890  0.31780  Biso   1.000  O
  O10      1.0000 0.01070  0.22430  0.51980  Biso   1.000  O
  N1       1.0000 0.58430  0.40310  0.52500  Biso   1.000  N
  N2       1.0000 0.91270  0.09480  0.48580  Biso   1.000  N
  C1       1.0000 0.39240  0.32040  0.30080  Biso   1.000  C
  C2       1.0000 0.64940  0.55660  0.30460  Biso   1.000  C
  C3       1.0000 0.52290  0.43630  0.30400  Biso   1.000  C
  H1       1.0000 0.50960  0.44220  0.25500  Biso   1.000  H
  C4       1.0000 0.47100  0.37460  0.34030  Biso   1.000  C
  C5       1.0000 0.49270  0.36500  0.41290  Biso   1.000  C
  H2       1.0000 0.45910  0.32340  0.43690  Biso   1.000  H
  C6       1.0000 0.56360  0.41620  0.45060  Biso   1.000  C
  C7       1.0000 0.61450  0.47880  0.41460  Biso   1.000  C
  H3       1.0000 0.66210  0.51400  0.43930  Biso   1.000  H
  C8       1.0000 0.59260  0.48750  0.34090  Biso   1.000  C
  C9       1.0000 0.64490  0.45460  0.57200  Biso   1.000  C
  C10      1.0000 0.53850  0.32670  0.56090  Biso   1.000  C
  H4       1.0000 0.54840  0.26050  0.54340  Biso   1.000  H
  H5       1.0000 0.47540  0.33930  0.55480  Biso   1.000  H
  C11      1.0000 0.58130  0.33850  0.63710  Biso   1.000  C
  C12      1.0000 0.64320  0.41070  0.64220  Biso   1.000  C
  C13      1.0000 0.69200  0.43880  0.70690  Biso   1.000  C
  H6       1.0000 0.73450  0.48880  0.71000  Biso   1.000  H
  C14      1.0000 0.67480  0.38950  0.76640  Biso   1.000  C
  H7       1.0000 0.70690  0.40520  0.81050  Biso   1.000  H
  C15      1.0000 0.60980  0.31680  0.76070  Biso   1.000  C
  H8       1.0000 0.59740  0.28590  0.80140  Biso   1.000  H
  C16      1.0000 0.56380  0.28960  0.69650  Biso   1.000  C
  H9       1.0000 0.52160  0.23930  0.69290  Biso   1.000  H
  C17      1.0000 0.11150  0.11540  0.30720  Biso   1.000  C
  C18      1.0000 0.85830  0.87230  0.28010  Biso   1.000  C
  C19      1.0000 0.90940  0.95830  0.31870  Biso   1.000  C
  C20      1.0000 0.97910  0.00150  0.29160  Biso   1.000  C
  H10      1.0000 0.99200  0.98210  0.24780  Biso   1.000  H
  C21      1.0000 0.02880  0.07400  0.33120  Biso   1.000  C
  C22      1.0000 0.00730  0.10620  0.39460  Biso   1.000  C
  H11      1.0000 0.04080  0.15610  0.41980  Biso   1.000  H
  C23      1.0000 0.93620  0.06510  0.42130  Biso   1.000  C
  C24      1.0000 0.88860  0.98840  0.38260  Biso   1.000  C
  H12      1.0000 0.84250  0.95750  0.40040  Biso   1.000  H
  C25      1.0000 0.83910  0.04670  0.51330  Biso   1.000  C
  H13      1.0000 0.85040  0.97630  0.52190  Biso   1.000  H
  H14      1.0000 0.78380  0.05460  0.48090  Biso   1.000  H
  C26      1.0000 0.83720  0.10180  0.58110  Biso   1.000  C
  C27      1.0000 0.95100  0.16910  0.53020  Biso   1.000  C
  C28      1.0000 0.90250  0.17270  0.59070  Biso   1.000  C
  C29      1.0000 0.91630  0.23510  0.64920  Biso   1.000  C
  H15      1.0000 0.96180  0.28180  0.65610  Biso   1.000  H
  C30      1.0000 0.85740  0.22350  0.69710  Biso   1.000  C
  H16      1.0000 0.86300  0.26450  0.73670  Biso   1.000  H
  C31      1.0000 0.79290  0.15430  0.68730  Biso   1.000  C
  H17      1.0000 0.75540  0.14930  0.72080  Biso   1.000  H
  C32      1.0000 0.77970  0.09080  0.63040  Biso   1.000  C
  H18      1.0000 0.73500  0.04320  0.62480  Biso   1.000  H
  Cd3      1.0000 0.78078  0.82000  0.08853  Biso   1.000  Cd
  Cd4      1.0000 0.74849  0.69502  0.25107  Biso   1.000  Cd
  O11      1.0000 0.65940  0.78040  0.16240  Biso   1.000  O
  O12      1.0000 0.61850  0.81430  0.26450  Biso   1.000  O
  O13      1.0000 0.36040  0.05940  0.26120  Biso   1.000  O
  O14      1.0000 0.29500  0.10980  0.15700  Biso   1.000  O
  O15      1.0000 0.30840  0.02410  0.94210  Biso   1.000  O
  O16      1.0000 0.83500  0.66380  0.14880  Biso   1.000  O
  O17      1.0000 0.87590  0.59860  0.25410  Biso   1.000  O
  O18      1.0000 0.15310  0.37160  0.28620  Biso   1.000  O
  O19      1.0000 0.17150  0.30890  0.18220  Biso   1.000  O
  O20      1.0000 0.98930  0.72430  0.98020  Biso   1.000  O
  N3       1.0000 0.41570  0.90310  0.97500  Biso   1.000  N
  N4       1.0000 0.08730  0.59480  0.01420  Biso   1.000  N
  C33      1.0000 0.60760  0.82040  0.19920  Biso   1.000  C
  C34      1.0000 0.35060  0.05660  0.19540  Biso   1.000  C
  C35      1.0000 0.47710  0.93630  0.19600  Biso   1.000  C
  H19      1.0000 0.49040  0.94220  0.24500  Biso   1.000  H
  C36      1.0000 0.52900  0.87460  0.15970  Biso   1.000  C
  C37      1.0000 0.50730  0.86500  0.08710  Biso   1.000  C
  H20      1.0000 0.54090  0.82340  0.06310  Biso   1.000  H
  C38      1.0000 0.43640  0.91620  0.04940  Biso   1.000  C
  C39      1.0000 0.38550  0.97880  0.08540  Biso   1.000  C
  H21      1.0000 0.33790  0.01400  0.06070  Biso   1.000  H
  C40      1.0000 0.40740  0.98750  0.15910  Biso   1.000  C
  C41      1.0000 0.35510  0.95460  0.92800  Biso   1.000  C
  C42      1.0000 0.46150  0.82670  0.93910  Biso   1.000  C
  H22      1.0000 0.45160  0.76050  0.95660  Biso   1.000  H
  H23      1.0000 0.52460  0.83930  0.94520  Biso   1.000  H
  C43      1.0000 0.41870  0.83850  0.86290  Biso   1.000  C
  C44      1.0000 0.35680  0.91070  0.85780  Biso   1.000  C
  C45      1.0000 0.30800  0.93880  0.79310  Biso   1.000  C
  H24      1.0000 0.26550  0.98880  0.79000  Biso   1.000  H
  C46      1.0000 0.32520  0.88950  0.73360  Biso   1.000  C
  H25      1.0000 0.29310  0.90520  0.68950  Biso   1.000  H
  C47      1.0000 0.39020  0.81680  0.73930  Biso   1.000  C
  H26      1.0000 0.40260  0.78590  0.69860  Biso   1.000  H
  C48      1.0000 0.43620  0.78960  0.80350  Biso   1.000  C
  H27      1.0000 0.47840  0.73930  0.80710  Biso   1.000  H
  C49      1.0000 0.88850  0.61540  0.19280  Biso   1.000  C
  C50      1.0000 0.14170  0.37230  0.21990  Biso   1.000  C
  C51      1.0000 0.09060  0.45830  0.18130  Biso   1.000  C
  C52      1.0000 0.02090  0.50150  0.20840  Biso   1.000  C
  H28      1.0000 0.00800  0.48210  0.25220  Biso   1.000  H
  C53      1.0000 0.97120  0.57400  0.16880  Biso   1.000  C
  C54      1.0000 0.99270  0.60620  0.10540  Biso   1.000  C
  H29      1.0000 0.95920  0.65610  0.08020  Biso   1.000  H
  C55      1.0000 0.06380  0.56510  0.07870  Biso   1.000  C
  C56      1.0000 0.11140  0.48840  0.11740  Biso   1.000  C
  H30      1.0000 0.15750  0.45750  0.09960  Biso   1.000  H
  C57      1.0000 0.16090  0.54670  0.98670  Biso   1.000  C
  H31      1.0000 0.14960  0.47630  0.97810  Biso   1.000  H
  H32      1.0000 0.21620  0.55460  0.01910  Biso   1.000  H
  C58      1.0000 0.16280  0.60180  0.91890  Biso   1.000  C
  C59      1.0000 0.04900  0.66910  0.96980  Biso   1.000  C
  C60      1.0000 0.09750  0.67270  0.90930  Biso   1.000  C
  C61      1.0000 0.08370  0.73510  0.85080  Biso   1.000  C
  H33      1.0000 0.03820  0.78180  0.84390  Biso   1.000  H
  C62      1.0000 0.14260  0.72350  0.80290  Biso   1.000  C
  H34      1.0000 0.13700  0.76450  0.76330  Biso   1.000  H
  C63      1.0000 0.20710  0.65430  0.81270  Biso   1.000  C
  H35      1.0000 0.24460  0.64930  0.77920  Biso   1.000  H
  C64      1.0000 0.22030  0.59080  0.86960  Biso   1.000  C
  H36      1.0000 0.26500  0.54320  0.87520  Biso   1.000  H
  Cd5      1.0000 0.78078  0.68000  0.58853  Biso   1.000  Cd
  Cd6      1.0000 0.74849  0.80498  0.75107  Biso   1.000  Cd
  O21      1.0000 0.65940  0.71960  0.66240  Biso   1.000  O
  O22      1.0000 0.61850  0.68570  0.76450  Biso   1.000  O
  O23      1.0000 0.36040  0.44060  0.76120  Biso   1.000  O
  O24      1.0000 0.29500  0.39020  0.65700  Biso   1.000  O
  O25      1.0000 0.30840  0.47590  0.44210  Biso   1.000  O
  O26      1.0000 0.83500  0.83620  0.64880  Biso   1.000  O
  O27      1.0000 0.87590  0.90140  0.75410  Biso   1.000  O
  O28      1.0000 0.15310  0.12840  0.78620  Biso   1.000  O
  O29      1.0000 0.17150  0.19110  0.68220  Biso   1.000  O
  O30      1.0000 0.98930  0.77570  0.48020  Biso   1.000  O
  N5       1.0000 0.41570  0.59690  0.47500  Biso   1.000  N
  N6       1.0000 0.08730  0.90520  0.51420  Biso   1.000  N
  C65      1.0000 0.60760  0.67960  0.69920  Biso   1.000  C
  C66      1.0000 0.35060  0.44340  0.69540  Biso   1.000  C
  C67      1.0000 0.47710  0.56370  0.69600  Biso   1.000  C
  H37      1.0000 0.49040  0.55780  0.74500  Biso   1.000  H
  C68      1.0000 0.52900  0.62540  0.65970  Biso   1.000  C
  C69      1.0000 0.50730  0.63500  0.58710  Biso   1.000  C
  H38      1.0000 0.54090  0.67660  0.56310  Biso   1.000  H
  C70      1.0000 0.43640  0.58380  0.54940  Biso   1.000  C
  C71      1.0000 0.38550  0.52120  0.58540  Biso   1.000  C
  H39      1.0000 0.33790  0.48600  0.56070  Biso   1.000  H
  C72      1.0000 0.40740  0.51250  0.65910  Biso   1.000  C
  C73      1.0000 0.35510  0.54540  0.42800  Biso   1.000  C
  C74      1.0000 0.46150  0.67330  0.43910  Biso   1.000  C
  H40      1.0000 0.45160  0.73950  0.45660  Biso   1.000  H
  H41      1.0000 0.52460  0.66070  0.44520  Biso   1.000  H
  C75      1.0000 0.41870  0.66150  0.36290  Biso   1.000  C
  C76      1.0000 0.35680  0.58930  0.35780  Biso   1.000  C
  C77      1.0000 0.30800  0.56120  0.29310  Biso   1.000  C
  H42      1.0000 0.26550  0.51120  0.29000  Biso   1.000  H
  C78      1.0000 0.32520  0.61050  0.23360  Biso   1.000  C
  H43      1.0000 0.29310  0.59480  0.18950  Biso   1.000  H
  C79      1.0000 0.39020  0.68320  0.23930  Biso   1.000  C
  H44      1.0000 0.40260  0.71410  0.19860  Biso   1.000  H
  C80      1.0000 0.43620  0.71040  0.30350  Biso   1.000  C
  H45      1.0000 0.47840  0.76070  0.30710  Biso   1.000  H
  C81      1.0000 0.88850  0.88460  0.69280  Biso   1.000  C
  C82      1.0000 0.14170  0.12770  0.71990  Biso   1.000  C
  C83      1.0000 0.09060  0.04170  0.68130  Biso   1.000  C
  C84      1.0000 0.02090  0.99850  0.70840  Biso   1.000  C
  H46      1.0000 0.00800  0.01790  0.75220  Biso   1.000  H
  C85      1.0000 0.97120  0.92600  0.66880  Biso   1.000  C
  C86      1.0000 0.99270  0.89380  0.60540  Biso   1.000  C
  H47      1.0000 0.95920  0.84390  0.58020  Biso   1.000  H
  C87      1.0000 0.06380  0.93490  0.57870  Biso   1.000  C
  C88      1.0000 0.11140  0.01160  0.61740  Biso   1.000  C
  H48      1.0000 0.15750  0.04250  0.59960  Biso   1.000  H
  C89      1.0000 0.16090  0.95330  0.48670  Biso   1.000  C
  H49      1.0000 0.14960  0.02370  0.47810  Biso   1.000  H
  H50      1.0000 0.21620  0.94540  0.51910  Biso   1.000  H
  C90      1.0000 0.16280  0.89820  0.41890  Biso   1.000  C
  C91      1.0000 0.04900  0.83090  0.46980  Biso   1.000  C
  C92      1.0000 0.09750  0.82730  0.40930  Biso   1.000  C
  C93      1.0000 0.08370  0.76490  0.35080  Biso   1.000  C
  H51      1.0000 0.03820  0.71820  0.34390  Biso   1.000  H
  C94      1.0000 0.14260  0.77650  0.30290  Biso   1.000  C
  H52      1.0000 0.13700  0.73550  0.26330  Biso   1.000  H
  C95      1.0000 0.20710  0.84570  0.31270  Biso   1.000  C
  H53      1.0000 0.24460  0.85070  0.27920  Biso   1.000  H
  C96      1.0000 0.22030  0.90920  0.36960  Biso   1.000  C
  H54      1.0000 0.26500  0.95680  0.37520  Biso   1.000  H
  Cd7      1.0000 0.21922  0.18000  0.91147  Biso   1.000  Cd
  Cd8      1.0000 0.25151  0.30498  0.74893  Biso   1.000  Cd
  O31      1.0000 0.34060  0.21960  0.83760  Biso   1.000  O
  O32      1.0000 0.38150  0.18570  0.73550  Biso   1.000  O
  O33      1.0000 0.63960  0.94060  0.73880  Biso   1.000  O
  O34      1.0000 0.70500  0.89020  0.84300  Biso   1.000  O
  O35      1.0000 0.69160  0.97590  0.05790  Biso   1.000  O
  O36      1.0000 0.16500  0.33620  0.85120  Biso   1.000  O
  O37      1.0000 0.12410  0.40140  0.74590  Biso   1.000  O
  O38      1.0000 0.84690  0.62840  0.71380  Biso   1.000  O
  O39      1.0000 0.82850  0.69110  0.81780  Biso   1.000  O
  O40      1.0000 0.01070  0.27570  0.01980  Biso   1.000  O
  N7       1.0000 0.58430  0.09690  0.02500  Biso   1.000  N
  N8       1.0000 0.91270  0.40520  0.98580  Biso   1.000  N
  C97      1.0000 0.39240  0.17960  0.80080  Biso   1.000  C
  C98      1.0000 0.64940  0.94340  0.80460  Biso   1.000  C
  C99      1.0000 0.52290  0.06370  0.80400  Biso   1.000  C
  H55      1.0000 0.50960  0.05780  0.75500  Biso   1.000  H
  C100     1.0000 0.47100  0.12540  0.84030  Biso   1.000  C
  C101     1.0000 0.49270  0.13500  0.91290  Biso   1.000  C
  H56      1.0000 0.45910  0.17660  0.93690  Biso   1.000  H
  C102     1.0000 0.56360  0.08380  0.95060  Biso   1.000  C
  C103     1.0000 0.61450  0.02120  0.91460  Biso   1.000  C
  H57      1.0000 0.66210  0.98600  0.93930  Biso   1.000  H
  C104     1.0000 0.59260  0.01250  0.84090  Biso   1.000  C
  C105     1.0000 0.64490  0.04540  0.07200  Biso   1.000  C
  C106     1.0000 0.53850  0.17330  0.06090  Biso   1.000  C
  H58      1.0000 0.54840  0.23950  0.04340  Biso   1.000  H
  H59      1.0000 0.47540  0.16070  0.05480  Biso   1.000  H
  C107     1.0000 0.58130  0.16150  0.13710  Biso   1.000  C
  C108     1.0000 0.64320  0.08930  0.14220  Biso   1.000  C
  C109     1.0000 0.69200  0.06120  0.20690  Biso   1.000  C
  H60      1.0000 0.73450  0.01120  0.21000  Biso   1.000  H
  C110     1.0000 0.67480  0.11050  0.26640  Biso   1.000  C
  H61      1.0000 0.70690  0.09480  0.31050  Biso   1.000  H
  C111     1.0000 0.60980  0.18320  0.26070  Biso   1.000  C
  H62      1.0000 0.59740  0.21410  0.30140  Biso   1.000  H
  C112     1.0000 0.56380  0.21040  0.19650  Biso   1.000  C
  H63      1.0000 0.52160  0.26070  0.19290  Biso   1.000  H
  C113     1.0000 0.11150  0.38460  0.80720  Biso   1.000  C
  C114     1.0000 0.85830  0.62770  0.78010  Biso   1.000  C
  C115     1.0000 0.90940  0.54170  0.81870  Biso   1.000  C
  C116     1.0000 0.97910  0.49850  0.79160  Biso   1.000  C
  H64      1.0000 0.99200  0.51790  0.74780  Biso   1.000  H
  C117     1.0000 0.02880  0.42600  0.83120  Biso   1.000  C
  C118     1.0000 0.00730  0.39380  0.89460  Biso   1.000  C
  H65      1.0000 0.04080  0.34390  0.91980  Biso   1.000  H
  C119     1.0000 0.93620  0.43490  0.92130  Biso   1.000  C
  C120     1.0000 0.88860  0.51160  0.88260  Biso   1.000  C
  H66      1.0000 0.84250  0.54250  0.90040  Biso   1.000  H
  C121     1.0000 0.83910  0.45330  0.01330  Biso   1.000  C
  H67      1.0000 0.85040  0.52370  0.02190  Biso   1.000  H
  H68      1.0000 0.78380  0.44540  0.98090  Biso   1.000  H
  C122     1.0000 0.83720  0.39820  0.08110  Biso   1.000  C
  C123     1.0000 0.95100  0.33090  0.03020  Biso   1.000  C
  C124     1.0000 0.90250  0.32730  0.09070  Biso   1.000  C
  C125     1.0000 0.91630  0.26490  0.14920  Biso   1.000  C
  H69      1.0000 0.96180  0.21820  0.15610  Biso   1.000  H
  C126     1.0000 0.85740  0.27650  0.19710  Biso   1.000  C
  H70      1.0000 0.86300  0.23550  0.23670  Biso   1.000  H
  C127     1.0000 0.79290  0.34570  0.18730  Biso   1.000  C
  H71      1.0000 0.75540  0.35070  0.22080  Biso   1.000  H
  C128     1.0000 0.77970  0.40920  0.13040  Biso   1.000  C
  H72      1.0000 0.73500  0.45680  0.12480  Biso   1.000  H
