data_image0
_cell_length_a       21.234
_cell_length_b       12.98
_cell_length_c       13.002
_cell_angle_alpha    90
_cell_angle_beta     113.79
_cell_angle_gamma    90

_symmetry_space_group_name_H-M    "P 1"
_symmetry_int_tables_number       1

loop_
  _symmetry_equiv_pos_as_xyz
  'x, y, z'

loop_
  _atom_site_label
  _atom_site_occupancy
  _atom_site_fract_x
  _atom_site_fract_y
  _atom_site_fract_z
  _atom_site_thermal_displace_type
  _atom_site_B_iso_or_equiv
  _atom_site_type_symbol
  C1       1.0000 0.24150  0.04760  0.10970  Biso   1.000  C
  H1       1.0000 0.20020  0.06370  0.11490  Biso   1.000  H
  C2       1.0000 0.33590  0.96900  0.12650  Biso   1.000  C
  H2       1.0000 0.37110  0.92060  0.14640  Biso   1.000  H
  C3       1.0000 0.41200  0.27010  0.18260  Biso   1.000  C
  H3       1.0000 0.40640  0.22430  0.23320  Biso   1.000  H
  C4       1.0000 0.45550  0.38390  0.10880  Biso   1.000  C
  H4       1.0000 0.48540  0.43080  0.09820  Biso   1.000  H
  C5       1.0000 0.22380  0.79770  0.16570  Biso   1.000  C
  H5       1.0000 0.20350  0.78120  0.08970  Biso   1.000  H
  C6       1.0000 0.28290  0.87720  0.32210  Biso   1.000  C
  H6       1.0000 0.31040  0.92470  0.37460  Biso   1.000  H
  N1       1.0000 0.27960  0.96140  0.14990  Biso   1.000  N
  N2       1.0000 0.27330  0.10400  0.06230  Biso   1.000  N
  N3       1.0000 0.33370  0.05380  0.07230  Biso   1.000  N
  N4       1.0000 0.36580  0.29060  0.08190  Biso   1.000  N
  N5       1.0000 0.39370  0.36390  0.03690  Biso   1.000  N
  N6       1.0000 0.46960  0.32620  0.20160  Biso   1.000  N
  N7       1.0000 0.25750  0.79360  0.34440  Biso   1.000  N
  N8       1.0000 0.21930  0.74320  0.24380  Biso   1.000  N
  N9       1.0000 0.26240  0.88350  0.20860  Biso   1.000  N
  C7       1.0000 0.74150  0.54760  0.10970  Biso   1.000  C
  H7       1.0000 0.70020  0.56370  0.11490  Biso   1.000  H
  C8       1.0000 0.83590  0.46900  0.12650  Biso   1.000  C
  H8       1.0000 0.87110  0.42060  0.14640  Biso   1.000  H
  C9       1.0000 0.91200  0.77010  0.18260  Biso   1.000  C
  H9       1.0000 0.90640  0.72430  0.23320  Biso   1.000  H
  C10      1.0000 0.95550  0.88390  0.10880  Biso   1.000  C
  H10      1.0000 0.98540  0.93080  0.09820  Biso   1.000  H
  C11      1.0000 0.72380  0.29770  0.16570  Biso   1.000  C
  H11      1.0000 0.70350  0.28120  0.08970  Biso   1.000  H
  C12      1.0000 0.78290  0.37720  0.32210  Biso   1.000  C
  H12      1.0000 0.81040  0.42470  0.37460  Biso   1.000  H
  N10      1.0000 0.77960  0.46140  0.14990  Biso   1.000  N
  N11      1.0000 0.77330  0.60400  0.06230  Biso   1.000  N
  N12      1.0000 0.83370  0.55380  0.07230  Biso   1.000  N
  N13      1.0000 0.86580  0.79060  0.08190  Biso   1.000  N
  N14      1.0000 0.89370  0.86390  0.03690  Biso   1.000  N
  N15      1.0000 0.96960  0.82620  0.20160  Biso   1.000  N
  N16      1.0000 0.75750  0.29360  0.34440  Biso   1.000  N
  N17      1.0000 0.71930  0.24320  0.24380  Biso   1.000  N
  N18      1.0000 0.76240  0.38350  0.20860  Biso   1.000  N
  C13      1.0000 0.75850  0.04760  0.39030  Biso   1.000  C
  H13      1.0000 0.79980  0.06370  0.38510  Biso   1.000  H
  C14      1.0000 0.66410  0.96900  0.37350  Biso   1.000  C
  H14      1.0000 0.62890  0.92060  0.35360  Biso   1.000  H
  C15      1.0000 0.58800  0.27010  0.31740  Biso   1.000  C
  H15      1.0000 0.59360  0.22430  0.26680  Biso   1.000  H
  C16      1.0000 0.54450  0.38390  0.39120  Biso   1.000  C
  H16      1.0000 0.51460  0.43080  0.40180  Biso   1.000  H
  C17      1.0000 0.77620  0.79770  0.33430  Biso   1.000  C
  H17      1.0000 0.79650  0.78120  0.41030  Biso   1.000  H
  C18      1.0000 0.71710  0.87720  0.17790  Biso   1.000  C
  H18      1.0000 0.68960  0.92470  0.12540  Biso   1.000  H
  N19      1.0000 0.72040  0.96140  0.35010  Biso   1.000  N
  N20      1.0000 0.72670  0.10400  0.43770  Biso   1.000  N
  N21      1.0000 0.66630  0.05380  0.42770  Biso   1.000  N
  N22      1.0000 0.63420  0.29060  0.41810  Biso   1.000  N
  N23      1.0000 0.60630  0.36390  0.46310  Biso   1.000  N
  N24      1.0000 0.53040  0.32620  0.29840  Biso   1.000  N
  N25      1.0000 0.74250  0.79360  0.15560  Biso   1.000  N
  N26      1.0000 0.78070  0.74320  0.25620  Biso   1.000  N
  N27      1.0000 0.73760  0.88350  0.29140  Biso   1.000  N
  C19      1.0000 0.25850  0.54760  0.39030  Biso   1.000  C
  H19      1.0000 0.29980  0.56370  0.38510  Biso   1.000  H
  C20      1.0000 0.16410  0.46900  0.37350  Biso   1.000  C
  H20      1.0000 0.12890  0.42060  0.35360  Biso   1.000  H
  C21      1.0000 0.08800  0.77010  0.31740  Biso   1.000  C
  H21      1.0000 0.09360  0.72430  0.26680  Biso   1.000  H
  C22      1.0000 0.04450  0.88390  0.39120  Biso   1.000  C
  H22      1.0000 0.01460  0.93080  0.40180  Biso   1.000  H
  C23      1.0000 0.27620  0.29770  0.33430  Biso   1.000  C
  H23      1.0000 0.29650  0.28120  0.41030  Biso   1.000  H
  C24      1.0000 0.21710  0.37720  0.17790  Biso   1.000  C
  H24      1.0000 0.18960  0.42470  0.12540  Biso   1.000  H
  N28      1.0000 0.22040  0.46140  0.35010  Biso   1.000  N
  N29      1.0000 0.22670  0.60400  0.43770  Biso   1.000  N
  N30      1.0000 0.16630  0.55380  0.42770  Biso   1.000  N
  N31      1.0000 0.13420  0.79060  0.41810  Biso   1.000  N
  N32      1.0000 0.10630  0.86390  0.46310  Biso   1.000  N
  N33      1.0000 0.03040  0.82620  0.29840  Biso   1.000  N
  N34      1.0000 0.24250  0.29360  0.15560  Biso   1.000  N
  N35      1.0000 0.28070  0.24320  0.25620  Biso   1.000  N
  N36      1.0000 0.23760  0.38350  0.29140  Biso   1.000  N
  C25      1.0000 0.75850  0.95240  0.89030  Biso   1.000  C
  H25      1.0000 0.79980  0.93630  0.88510  Biso   1.000  H
  C26      1.0000 0.66410  0.03100  0.87350  Biso   1.000  C
  H26      1.0000 0.62890  0.07940  0.85360  Biso   1.000  H
  C27      1.0000 0.58800  0.72990  0.81740  Biso   1.000  C
  H27      1.0000 0.59360  0.77570  0.76680  Biso   1.000  H
  C28      1.0000 0.54450  0.61610  0.89120  Biso   1.000  C
  H28      1.0000 0.51460  0.56920  0.90180  Biso   1.000  H
  C29      1.0000 0.77620  0.20230  0.83430  Biso   1.000  C
  H29      1.0000 0.79650  0.21880  0.91030  Biso   1.000  H
  C30      1.0000 0.71710  0.12280  0.67790  Biso   1.000  C
  H30      1.0000 0.68960  0.07530  0.62540  Biso   1.000  H
  N37      1.0000 0.72040  0.03860  0.85010  Biso   1.000  N
  N38      1.0000 0.72670  0.89600  0.93770  Biso   1.000  N
  N39      1.0000 0.66630  0.94620  0.92770  Biso   1.000  N
  N40      1.0000 0.63420  0.70940  0.91810  Biso   1.000  N
  N41      1.0000 0.60630  0.63610  0.96310  Biso   1.000  N
  N42      1.0000 0.53040  0.67380  0.79840  Biso   1.000  N
  N43      1.0000 0.74250  0.20640  0.65560  Biso   1.000  N
  N44      1.0000 0.78070  0.25680  0.75620  Biso   1.000  N
  N45      1.0000 0.73760  0.11650  0.79140  Biso   1.000  N
  C31      1.0000 0.25850  0.45240  0.89030  Biso   1.000  C
  H31      1.0000 0.29980  0.43630  0.88510  Biso   1.000  H
  C32      1.0000 0.16410  0.53100  0.87350  Biso   1.000  C
  H32      1.0000 0.12890  0.57940  0.85360  Biso   1.000  H
  C33      1.0000 0.08800  0.22990  0.81740  Biso   1.000  C
  H33      1.0000 0.09360  0.27570  0.76680  Biso   1.000  H
  C34      1.0000 0.04450  0.11610  0.89120  Biso   1.000  C
  H34      1.0000 0.01460  0.06920  0.90180  Biso   1.000  H
  C35      1.0000 0.27620  0.70230  0.83430  Biso   1.000  C
  H35      1.0000 0.29650  0.71880  0.91030  Biso   1.000  H
  C36      1.0000 0.21710  0.62280  0.67790  Biso   1.000  C
  H36      1.0000 0.18960  0.57530  0.62540  Biso   1.000  H
  N46      1.0000 0.22040  0.53860  0.85010  Biso   1.000  N
  N47      1.0000 0.22670  0.39600  0.93770  Biso   1.000  N
  N48      1.0000 0.16630  0.44620  0.92770  Biso   1.000  N
  N49      1.0000 0.13420  0.20940  0.91810  Biso   1.000  N
  N50      1.0000 0.10630  0.13610  0.96310  Biso   1.000  N
  N51      1.0000 0.03040  0.17380  0.79840  Biso   1.000  N
  N52      1.0000 0.24250  0.70640  0.65560  Biso   1.000  N
  N53      1.0000 0.28070  0.75680  0.75620  Biso   1.000  N
  N54      1.0000 0.23760  0.61650  0.79140  Biso   1.000  N
  C37      1.0000 0.24150  0.95240  0.60970  Biso   1.000  C
  H37      1.0000 0.20020  0.93630  0.61490  Biso   1.000  H
  C38      1.0000 0.33590  0.03100  0.62650  Biso   1.000  C
  H38      1.0000 0.37110  0.07940  0.64640  Biso   1.000  H
  C39      1.0000 0.41200  0.72990  0.68260  Biso   1.000  C
  H39      1.0000 0.40640  0.77570  0.73320  Biso   1.000  H
  C40      1.0000 0.45550  0.61610  0.60880  Biso   1.000  C
  H40      1.0000 0.48540  0.56920  0.59820  Biso   1.000  H
  C41      1.0000 0.22380  0.20230  0.66570  Biso   1.000  C
  H41      1.0000 0.20350  0.21880  0.58970  Biso   1.000  H
  C42      1.0000 0.28290  0.12280  0.82210  Biso   1.000  C
  H42      1.0000 0.31040  0.07530  0.87460  Biso   1.000  H
  N55      1.0000 0.27960  0.03860  0.64990  Biso   1.000  N
  N56      1.0000 0.27330  0.89600  0.56230  Biso   1.000  N
  N57      1.0000 0.33370  0.94620  0.57230  Biso   1.000  N
  N58      1.0000 0.36580  0.70940  0.58190  Biso   1.000  N
  N59      1.0000 0.39370  0.63610  0.53690  Biso   1.000  N
  N60      1.0000 0.46960  0.67380  0.70160  Biso   1.000  N
  N61      1.0000 0.25750  0.20640  0.84440  Biso   1.000  N
  N62      1.0000 0.21930  0.25680  0.74380  Biso   1.000  N
  N63      1.0000 0.26240  0.11650  0.70860  Biso   1.000  N
  C43      1.0000 0.74150  0.45240  0.60970  Biso   1.000  C
  H43      1.0000 0.70020  0.43630  0.61490  Biso   1.000  H
  C44      1.0000 0.83590  0.53100  0.62650  Biso   1.000  C
  H44      1.0000 0.87110  0.57940  0.64640  Biso   1.000  H
  C45      1.0000 0.91200  0.22990  0.68260  Biso   1.000  C
  H45      1.0000 0.90640  0.27570  0.73320  Biso   1.000  H
  C46      1.0000 0.95550  0.11610  0.60880  Biso   1.000  C
  H46      1.0000 0.98540  0.06920  0.59820  Biso   1.000  H
  C47      1.0000 0.72380  0.70230  0.66570  Biso   1.000  C
  H47      1.0000 0.70350  0.71880  0.58970  Biso   1.000  H
  C48      1.0000 0.78290  0.62280  0.82210  Biso   1.000  C
  H48      1.0000 0.81040  0.57530  0.87460  Biso   1.000  H
  N64      1.0000 0.77960  0.53860  0.64990  Biso   1.000  N
  N65      1.0000 0.77330  0.39600  0.56230  Biso   1.000  N
  N66      1.0000 0.83370  0.44620  0.57230  Biso   1.000  N
  N67      1.0000 0.86580  0.20940  0.58190  Biso   1.000  N
  N68      1.0000 0.89370  0.13610  0.53690  Biso   1.000  N
  N69      1.0000 0.96960  0.17380  0.70160  Biso   1.000  N
  N70      1.0000 0.75750  0.70640  0.84440  Biso   1.000  N
  N71      1.0000 0.71930  0.75680  0.74380  Biso   1.000  N
  N72      1.0000 0.76240  0.61650  0.70860  Biso   1.000  N
  Cu1      1.0000 0.25000  0.25000  0.00000  Biso   1.000  Cu
  Cu2      1.0000 0.75000  0.25000  0.50000  Biso   1.000  Cu
  Cu3      1.0000 0.75000  0.75000  0.00000  Biso   1.000  Cu
  Cu4      1.0000 0.25000  0.75000  0.50000  Biso   1.000  Cu
