data_image0
_cell_length_a       13.1885
_cell_length_b       18.1129
_cell_length_c       24.841
_cell_angle_alpha    90
_cell_angle_beta     90
_cell_angle_gamma    90

_symmetry_space_group_name_H-M    P 1
_symmetry_int_tables_number       1

loop_
  _symmetry_equiv_pos_as_xyz
  'x, y, z'

loop_
  _atom_site_label
  _atom_site_occupancy
  _atom_site_fract_x
  _atom_site_fract_y
  _atom_site_fract_z
  _atom_site_thermal_displace_type
  _atom_site_B_iso_or_equiv
  _atom_site_type_symbol
  Cd1      1.0000 0.83274  0.97939  0.32456  Biso   1.000  Cd
  Cd2      1.0000 0.91330  0.89783  0.84836  Biso   1.000  Cd
  Cd3      1.0000 0.66726  0.02061  0.82456  Biso   1.000  Cd
  Cd4      1.0000 0.58670  0.10217  0.34836  Biso   1.000  Cd
  Cd5      1.0000 0.16726  0.47939  0.17544  Biso   1.000  Cd
  Cd6      1.0000 0.08670  0.39783  0.65164  Biso   1.000  Cd
  Cd7      1.0000 0.33274  0.52061  0.67544  Biso   1.000  Cd
  Cd8      1.0000 0.41330  0.60217  0.15164  Biso   1.000  Cd
  H1       1.0000 0.04800  0.78970  0.27200  Biso   1.000  H
  H2       1.0000 0.94530  0.76030  0.24920  Biso   1.000  H
  H3       1.0000 0.10830  0.72330  0.18830  Biso   1.000  H
  H4       1.0000 0.99900  0.71510  0.16400  Biso   1.000  H
  H5       1.0000 0.95750  0.77070  0.07730  Biso   1.000  H
  H6       1.0000 0.04050  0.80550  0.04020  Biso   1.000  H
  H7       1.0000 0.94210  0.90370  0.07540  Biso   1.000  H
  H8       1.0000 0.88770  0.82500  0.15310  Biso   1.000  H
  H9       1.0000 0.92400  0.90180  0.17520  Biso   1.000  H
  H10      1.0000 0.09720  0.91610  0.20920  Biso   1.000  H
  H11      1.0000 0.16820  0.84780  0.21880  Biso   1.000  H
  H12      1.0000 0.10380  0.92840  0.07120  Biso   1.000  H
  H13      1.0000 0.05850  0.96180  0.12370  Biso   1.000  H
  H14      1.0000 0.22610  0.91310  0.14150  Biso   1.000  H
  H15      1.0000 0.24260  0.78290  0.12890  Biso   1.000  H
  H16      1.0000 0.20920  0.81880  0.07440  Biso   1.000  H
  H17      1.0000 0.18090  0.69600  0.05620  Biso   1.000  H
  H18      1.0000 0.07020  0.66840  0.06370  Biso   1.000  H
  H19      1.0000 0.65200  0.87500  0.26230  Biso   1.000  H
  H20      1.0000 0.53420  0.86740  0.26790  Biso   1.000  H
  H21      1.0000 0.46410  0.99030  0.19380  Biso   1.000  H
  H22      1.0000 0.41940  0.90990  0.19120  Biso   1.000  H
  H23      1.0000 0.65840  0.81520  0.17810  Biso   1.000  H
  H24      1.0000 0.54140  0.80010  0.18130  Biso   1.000  H
  H25      1.0000 0.42530  0.83860  0.10490  Biso   1.000  H
  H26      1.0000 0.47080  0.87460  0.05260  Biso   1.000  H
  H27      1.0000 0.40140  0.96640  0.10720  Biso   1.000  H
  H28      1.0000 0.53770  0.00300  0.05820  Biso   1.000  H
  H29      1.0000 0.53290  0.04640  0.11290  Biso   1.000  H
  H30      1.0000 0.73290  0.87450  0.09920  Biso   1.000  H
  H31      1.0000 0.66720  0.89590  0.04890  Biso   1.000  H
  H32      1.0000 0.70190  0.00410  0.09800  Biso   1.000  H
  H33      1.0000 0.72390  0.94670  0.18210  Biso   1.000  H
  H34      1.0000 0.64720  0.01240  0.18790  Biso   1.000  H
  H35      1.0000 0.59550  0.76850  0.04180  Biso   1.000  H
  H36      1.0000 0.67510  0.75080  0.08690  Biso   1.000  H
  H37      1.0000 0.03320  0.03570  0.26540  Biso   1.000  H
  H38      1.0000 0.09210  0.11410  0.19690  Biso   1.000  H
  H39      1.0000 0.80790  0.17010  0.16740  Biso   1.000  H
  H40      1.0000 0.75680  0.09330  0.23390  Biso   1.000  H
  H41      1.0000 0.06950  0.19920  0.12950  Biso   1.000  H
  H42      1.0000 0.97260  0.24910  0.13300  Biso   1.000  H
  H43      1.0000 0.81440  0.71430  0.53010  Biso   1.000  H
  H44      1.0000 0.78830  0.78430  0.56380  Biso   1.000  H
  H45      1.0000 0.71930  0.76220  0.45320  Biso   1.000  H
  H46      1.0000 0.71440  0.84150  0.38190  Biso   1.000  H
  H47      1.0000 0.94760  0.94980  0.43630  Biso   1.000  H
  H48      1.0000 0.96110  0.86990  0.50570  Biso   1.000  H
  H49      1.0000 0.79930  0.96690  0.95600  Biso   1.000  H
  H50      1.0000 0.82950  0.04200  0.02610  Biso   1.000  H
  H51      1.0000 0.11300  0.06390  0.97880  Biso   1.000  H
  H52      1.0000 0.07880  0.99540  0.90700  Biso   1.000  H
  H53      1.0000 0.08570  0.11160  0.05940  Biso   1.000  H
  H54      1.0000 0.00590  0.06890  0.09400  Biso   1.000  H
  H55      1.0000 0.97730  0.20690  0.04730  Biso   1.000  H
  H56      1.0000 0.88910  0.16300  0.07540  Biso   1.000  H
  H57      1.0000 0.95800  0.79990  0.58130  Biso   1.000  H
  H58      1.0000 0.98020  0.72670  0.55010  Biso   1.000  H
  H59      1.0000 0.85620  0.68210  0.61870  Biso   1.000  H
  H60      1.0000 0.97360  0.67490  0.62350  Biso   1.000  H
  H61      1.0000 0.80380  0.69520  0.70660  Biso   1.000  H
  H62      1.0000 0.80500  0.75890  0.78790  Biso   1.000  H
  H63      1.0000 0.03190  0.87600  0.73660  Biso   1.000  H
  H64      1.0000 0.03540  0.81090  0.65610  Biso   1.000  H
  H65      1.0000 0.45200  0.21030  0.77200  Biso   1.000  H
  H66      1.0000 0.55470  0.23970  0.74920  Biso   1.000  H
  H67      1.0000 0.39170  0.27670  0.68830  Biso   1.000  H
  H68      1.0000 0.50100  0.28490  0.66400  Biso   1.000  H
  H69      1.0000 0.54250  0.22930  0.57730  Biso   1.000  H
  H70      1.0000 0.45950  0.19450  0.54020  Biso   1.000  H
  H71      1.0000 0.55790  0.09630  0.57540  Biso   1.000  H
  H72      1.0000 0.61230  0.17500  0.65310  Biso   1.000  H
  H73      1.0000 0.57600  0.09820  0.67520  Biso   1.000  H
  H74      1.0000 0.40280  0.08390  0.70920  Biso   1.000  H
  H75      1.0000 0.33180  0.15220  0.71880  Biso   1.000  H
  H76      1.0000 0.39620  0.07160  0.57120  Biso   1.000  H
  H77      1.0000 0.44150  0.03820  0.62370  Biso   1.000  H
  H78      1.0000 0.27390  0.08690  0.64150  Biso   1.000  H
  H79      1.0000 0.25740  0.21710  0.62890  Biso   1.000  H
  H80      1.0000 0.29080  0.18120  0.57440  Biso   1.000  H
  H81      1.0000 0.31910  0.30400  0.55620  Biso   1.000  H
  H82      1.0000 0.42980  0.33160  0.56370  Biso   1.000  H
  H83      1.0000 0.84800  0.12500  0.76230  Biso   1.000  H
  H84      1.0000 0.96580  0.13260  0.76790  Biso   1.000  H
  H85      1.0000 0.03590  0.00970  0.69380  Biso   1.000  H
  H86      1.0000 0.08060  0.09010  0.69120  Biso   1.000  H
  H87      1.0000 0.84160  0.18480  0.67810  Biso   1.000  H
  H88      1.0000 0.95860  0.19990  0.68130  Biso   1.000  H
  H89      1.0000 0.07470  0.16140  0.60490  Biso   1.000  H
  H90      1.0000 0.02920  0.12540  0.55260  Biso   1.000  H
  H91      1.0000 0.09860  0.03360  0.60720  Biso   1.000  H
  H92      1.0000 0.96230  0.99700  0.55820  Biso   1.000  H
  H93      1.0000 0.96710  0.95360  0.61290  Biso   1.000  H
  H94      1.0000 0.76710  0.12550  0.59920  Biso   1.000  H
  H95      1.0000 0.83280  0.10410  0.54890  Biso   1.000  H
  H96      1.0000 0.79810  0.99590  0.59800  Biso   1.000  H
  H97      1.0000 0.77610  0.05330  0.68210  Biso   1.000  H
  H98      1.0000 0.85280  0.98760  0.68790  Biso   1.000  H
  H99      1.0000 0.90450  0.23150  0.54180  Biso   1.000  H
  H100     1.0000 0.82490  0.24920  0.58690  Biso   1.000  H
  H101     1.0000 0.46680  0.96430  0.76540  Biso   1.000  H
  H102     1.0000 0.40790  0.88590  0.69690  Biso   1.000  H
  H103     1.0000 0.69210  0.82990  0.66740  Biso   1.000  H
  H104     1.0000 0.74320  0.90670  0.73390  Biso   1.000  H
  H105     1.0000 0.43050  0.80080  0.62950  Biso   1.000  H
  H106     1.0000 0.52740  0.75090  0.63300  Biso   1.000  H
  H107     1.0000 0.68560  0.28570  0.03010  Biso   1.000  H
  H108     1.0000 0.71170  0.21570  0.06380  Biso   1.000  H
  H109     1.0000 0.78070  0.23780  0.95320  Biso   1.000  H
  H110     1.0000 0.78560  0.15850  0.88190  Biso   1.000  H
  H111     1.0000 0.55240  0.05020  0.93630  Biso   1.000  H
  H112     1.0000 0.53890  0.13010  0.00570  Biso   1.000  H
  H113     1.0000 0.70070  0.03310  0.45600  Biso   1.000  H
  H114     1.0000 0.67050  0.95800  0.52610  Biso   1.000  H
  H115     1.0000 0.38700  0.93610  0.47880  Biso   1.000  H
  H116     1.0000 0.42120  0.00460  0.40700  Biso   1.000  H
  H117     1.0000 0.41430  0.88840  0.55940  Biso   1.000  H
  H118     1.0000 0.49410  0.93110  0.59400  Biso   1.000  H
  H119     1.0000 0.52270  0.79310  0.54730  Biso   1.000  H
  H120     1.0000 0.61090  0.83700  0.57540  Biso   1.000  H
  H121     1.0000 0.54200  0.20010  0.08130  Biso   1.000  H
  H122     1.0000 0.51980  0.27330  0.05010  Biso   1.000  H
  H123     1.0000 0.64380  0.31790  0.11870  Biso   1.000  H
  H124     1.0000 0.52640  0.32510  0.12350  Biso   1.000  H
  H125     1.0000 0.69620  0.30480  0.20660  Biso   1.000  H
  H126     1.0000 0.69500  0.24110  0.28790  Biso   1.000  H
  H127     1.0000 0.46810  0.12400  0.23660  Biso   1.000  H
  H128     1.0000 0.46460  0.18910  0.15610  Biso   1.000  H
  H129     1.0000 0.95200  0.28970  0.22800  Biso   1.000  H
  H130     1.0000 0.05470  0.26030  0.25080  Biso   1.000  H
  H131     1.0000 0.89170  0.22330  0.31170  Biso   1.000  H
  H132     1.0000 0.00100  0.21510  0.33600  Biso   1.000  H
  H133     1.0000 0.04250  0.27070  0.42270  Biso   1.000  H
  H134     1.0000 0.95950  0.30550  0.45980  Biso   1.000  H
  H135     1.0000 0.05790  0.40370  0.42460  Biso   1.000  H
  H136     1.0000 0.11230  0.32500  0.34690  Biso   1.000  H
  H137     1.0000 0.07600  0.40180  0.32480  Biso   1.000  H
  H138     1.0000 0.90280  0.41610  0.29080  Biso   1.000  H
  H139     1.0000 0.83180  0.34780  0.28120  Biso   1.000  H
  H140     1.0000 0.89620  0.42840  0.42880  Biso   1.000  H
  H141     1.0000 0.94150  0.46180  0.37630  Biso   1.000  H
  H142     1.0000 0.77390  0.41310  0.35850  Biso   1.000  H
  H143     1.0000 0.75740  0.28290  0.37110  Biso   1.000  H
  H144     1.0000 0.79080  0.31880  0.42560  Biso   1.000  H
  H145     1.0000 0.81910  0.19600  0.44380  Biso   1.000  H
  H146     1.0000 0.92980  0.16840  0.43630  Biso   1.000  H
  H147     1.0000 0.34800  0.37500  0.23770  Biso   1.000  H
  H148     1.0000 0.46580  0.36740  0.23210  Biso   1.000  H
  H149     1.0000 0.53590  0.49030  0.30620  Biso   1.000  H
  H150     1.0000 0.58060  0.40990  0.30880  Biso   1.000  H
  H151     1.0000 0.34160  0.31520  0.32190  Biso   1.000  H
  H152     1.0000 0.45860  0.30010  0.31870  Biso   1.000  H
  H153     1.0000 0.57470  0.33860  0.39510  Biso   1.000  H
  H154     1.0000 0.52920  0.37460  0.44740  Biso   1.000  H
  H155     1.0000 0.59860  0.46640  0.39280  Biso   1.000  H
  H156     1.0000 0.46230  0.50300  0.44180  Biso   1.000  H
  H157     1.0000 0.46710  0.54640  0.38710  Biso   1.000  H
  H158     1.0000 0.26710  0.37450  0.40080  Biso   1.000  H
  H159     1.0000 0.33280  0.39590  0.45110  Biso   1.000  H
  H160     1.0000 0.29810  0.50410  0.40200  Biso   1.000  H
  H161     1.0000 0.27610  0.44670  0.31790  Biso   1.000  H
  H162     1.0000 0.35280  0.51240  0.31210  Biso   1.000  H
  H163     1.0000 0.40450  0.26850  0.45820  Biso   1.000  H
  H164     1.0000 0.32490  0.25080  0.41310  Biso   1.000  H
  H165     1.0000 0.96680  0.53570  0.23460  Biso   1.000  H
  H166     1.0000 0.90790  0.61410  0.30310  Biso   1.000  H
  H167     1.0000 0.19210  0.67010  0.33260  Biso   1.000  H
  H168     1.0000 0.24320  0.59330  0.26610  Biso   1.000  H
  H169     1.0000 0.93050  0.69920  0.37050  Biso   1.000  H
  H170     1.0000 0.02740  0.74910  0.36700  Biso   1.000  H
  H171     1.0000 0.18560  0.21430  0.96990  Biso   1.000  H
  H172     1.0000 0.21170  0.28430  0.93620  Biso   1.000  H
  H173     1.0000 0.28070  0.26220  0.04680  Biso   1.000  H
  H174     1.0000 0.28560  0.34150  0.11810  Biso   1.000  H
  H175     1.0000 0.05240  0.44980  0.06370  Biso   1.000  H
  H176     1.0000 0.03890  0.36990  0.99430  Biso   1.000  H
  H177     1.0000 0.20070  0.46690  0.54400  Biso   1.000  H
  H178     1.0000 0.17050  0.54200  0.47390  Biso   1.000  H
  H179     1.0000 0.88700  0.56390  0.52120  Biso   1.000  H
  H180     1.0000 0.92120  0.49540  0.59300  Biso   1.000  H
  H181     1.0000 0.91430  0.61160  0.44060  Biso   1.000  H
  H182     1.0000 0.99410  0.56890  0.40600  Biso   1.000  H
  H183     1.0000 0.02270  0.70690  0.45270  Biso   1.000  H
  H184     1.0000 0.11090  0.66300  0.42460  Biso   1.000  H
  H185     1.0000 0.04200  0.29990  0.91870  Biso   1.000  H
  H186     1.0000 0.01980  0.22670  0.94990  Biso   1.000  H
  H187     1.0000 0.14380  0.18210  0.88130  Biso   1.000  H
  H188     1.0000 0.02640  0.17490  0.87650  Biso   1.000  H
  H189     1.0000 0.19620  0.19520  0.79340  Biso   1.000  H
  H190     1.0000 0.19500  0.25890  0.71210  Biso   1.000  H
  H191     1.0000 0.96810  0.37600  0.76340  Biso   1.000  H
  H192     1.0000 0.96460  0.31090  0.84390  Biso   1.000  H
  H193     1.0000 0.54800  0.71030  0.72800  Biso   1.000  H
  H194     1.0000 0.44530  0.73970  0.75080  Biso   1.000  H
  H195     1.0000 0.60830  0.77670  0.81170  Biso   1.000  H
  H196     1.0000 0.49900  0.78490  0.83600  Biso   1.000  H
  H197     1.0000 0.45750  0.72930  0.92270  Biso   1.000  H
  H198     1.0000 0.54050  0.69450  0.95980  Biso   1.000  H
  H199     1.0000 0.44210  0.59630  0.92460  Biso   1.000  H
  H200     1.0000 0.38770  0.67500  0.84690  Biso   1.000  H
  H201     1.0000 0.42400  0.59820  0.82480  Biso   1.000  H
  H202     1.0000 0.59720  0.58390  0.79080  Biso   1.000  H
  H203     1.0000 0.66820  0.65220  0.78120  Biso   1.000  H
  H204     1.0000 0.60380  0.57160  0.92880  Biso   1.000  H
  H205     1.0000 0.55850  0.53820  0.87630  Biso   1.000  H
  H206     1.0000 0.72610  0.58690  0.85850  Biso   1.000  H
  H207     1.0000 0.74260  0.71710  0.87110  Biso   1.000  H
  H208     1.0000 0.70920  0.68120  0.92560  Biso   1.000  H
  H209     1.0000 0.68090  0.80400  0.94380  Biso   1.000  H
  H210     1.0000 0.57020  0.83160  0.93630  Biso   1.000  H
  H211     1.0000 0.15200  0.62500  0.73770  Biso   1.000  H
  H212     1.0000 0.03420  0.63260  0.73210  Biso   1.000  H
  H213     1.0000 0.96410  0.50970  0.80620  Biso   1.000  H
  H214     1.0000 0.91940  0.59010  0.80880  Biso   1.000  H
  H215     1.0000 0.15840  0.68480  0.82190  Biso   1.000  H
  H216     1.0000 0.04140  0.69990  0.81870  Biso   1.000  H
  H217     1.0000 0.92530  0.66140  0.89510  Biso   1.000  H
  H218     1.0000 0.97080  0.62540  0.94740  Biso   1.000  H
  H219     1.0000 0.90140  0.53360  0.89280  Biso   1.000  H
  H220     1.0000 0.03770  0.49700  0.94180  Biso   1.000  H
  H221     1.0000 0.03290  0.45360  0.88710  Biso   1.000  H
  H222     1.0000 0.23290  0.62550  0.90080  Biso   1.000  H
  H223     1.0000 0.16720  0.60410  0.95110  Biso   1.000  H
  H224     1.0000 0.20190  0.49590  0.90200  Biso   1.000  H
  H225     1.0000 0.22390  0.55330  0.81790  Biso   1.000  H
  H226     1.0000 0.14720  0.48760  0.81210  Biso   1.000  H
  H227     1.0000 0.09550  0.73150  0.95820  Biso   1.000  H
  H228     1.0000 0.17510  0.74920  0.91310  Biso   1.000  H
  H229     1.0000 0.53320  0.46430  0.73460  Biso   1.000  H
  H230     1.0000 0.59210  0.38590  0.80310  Biso   1.000  H
  H231     1.0000 0.30790  0.32990  0.83260  Biso   1.000  H
  H232     1.0000 0.25680  0.40670  0.76610  Biso   1.000  H
  H233     1.0000 0.56950  0.30080  0.87050  Biso   1.000  H
  H234     1.0000 0.47260  0.25090  0.86700  Biso   1.000  H
  H235     1.0000 0.31440  0.78570  0.46990  Biso   1.000  H
  H236     1.0000 0.28830  0.71570  0.43620  Biso   1.000  H
  H237     1.0000 0.21930  0.73780  0.54680  Biso   1.000  H
  H238     1.0000 0.21440  0.65850  0.61810  Biso   1.000  H
  H239     1.0000 0.44760  0.55020  0.56370  Biso   1.000  H
  H240     1.0000 0.46110  0.63010  0.49430  Biso   1.000  H
  H241     1.0000 0.29930  0.53310  0.04400  Biso   1.000  H
  H242     1.0000 0.32950  0.45800  0.97390  Biso   1.000  H
  H243     1.0000 0.61300  0.43610  0.02120  Biso   1.000  H
  H244     1.0000 0.57880  0.50460  0.09300  Biso   1.000  H
  H245     1.0000 0.58570  0.38840  0.94060  Biso   1.000  H
  H246     1.0000 0.50590  0.43110  0.90600  Biso   1.000  H
  H247     1.0000 0.47730  0.29310  0.95270  Biso   1.000  H
  H248     1.0000 0.38910  0.33700  0.92460  Biso   1.000  H
  H249     1.0000 0.45800  0.70010  0.41870  Biso   1.000  H
  H250     1.0000 0.48020  0.77330  0.44990  Biso   1.000  H
  H251     1.0000 0.35620  0.81790  0.38130  Biso   1.000  H
  H252     1.0000 0.47360  0.82510  0.37650  Biso   1.000  H
  H253     1.0000 0.30380  0.80480  0.29340  Biso   1.000  H
  H254     1.0000 0.30500  0.74110  0.21210  Biso   1.000  H
  H255     1.0000 0.53190  0.62400  0.26340  Biso   1.000  H
  H256     1.0000 0.53540  0.68910  0.34390  Biso   1.000  H
  C1       1.0000 0.93500  0.86390  0.27790  Biso   1.000  C
  C2       1.0000 0.98970  0.80290  0.25020  Biso   1.000  C
  C3       1.0000 0.02750  0.81810  0.19150  Biso   1.000  C
  C4       1.0000 0.05760  0.74740  0.16610  Biso   1.000  C
  C5       1.0000 0.10090  0.75950  0.10870  Biso   1.000  C
  C6       1.0000 0.01840  0.80080  0.07730  Biso   1.000  C
  C7       1.0000 0.99090  0.87770  0.09830  Biso   1.000  C
  C8       1.0000 0.94600  0.85710  0.15710  Biso   1.000  C
  C9       1.0000 0.11830  0.86890  0.19450  Biso   1.000  C
  C10      1.0000 0.07690  0.91580  0.10630  Biso   1.000  C
  C11      1.0000 0.16640  0.88100  0.13990  Biso   1.000  C
  C12      1.0000 0.18730  0.80810  0.11080  Biso   1.000  C
  C13      1.0000 0.12970  0.68530  0.08310  Biso   1.000  C
  C14      1.0000 0.16730  0.62100  0.11430  Biso   1.000  C
  C15      1.0000 0.58490  0.97000  0.28780  Biso   1.000  C
  C16      1.0000 0.58800  0.89970  0.25540  Biso   1.000  C
  C17      1.0000 0.47320  0.94170  0.17810  Biso   1.000  C
  C18      1.0000 0.57650  0.91040  0.19470  Biso   1.000  C
  C19      1.0000 0.59230  0.83420  0.16810  Biso   1.000  C
  C20      1.0000 0.58500  0.83900  0.10590  Biso   1.000  C
  C21      1.0000 0.47800  0.87090  0.09140  Biso   1.000  C
  C22      1.0000 0.46830  0.94680  0.11680  Biso   1.000  C
  C23      1.0000 0.54370  0.99820  0.09700  Biso   1.000  C
  C24      1.0000 0.66710  0.89280  0.08790  Biso   1.000  C
  C25      1.0000 0.65020  0.96990  0.11150  Biso   1.000  C
  C26      1.0000 0.65690  0.96390  0.17210  Biso   1.000  C
  C27      1.0000 0.60520  0.76480  0.08040  Biso   1.000  C
  C28      1.0000 0.53350  0.70420  0.10340  Biso   1.000  C
  C29      1.0000 0.98680  0.06270  0.24530  Biso   1.000  C
  C30      1.0000 0.02300  0.11060  0.20400  Biso   1.000  C
  C31      1.0000 0.95550  0.15090  0.17510  Biso   1.000  C
  C32      1.0000 0.85590  0.14330  0.18670  Biso   1.000  C
  C33      1.0000 0.82570  0.09700  0.22640  Biso   1.000  C
  C34      1.0000 0.99600  0.19880  0.12840  Biso   1.000  C
  C35      1.0000 0.83900  0.76280  0.54030  Biso   1.000  C
  C36      1.0000 0.84170  0.80890  0.49010  Biso   1.000  C
  C37      1.0000 0.76660  0.80010  0.45070  Biso   1.000  C
  C38      1.0000 0.76410  0.84910  0.40780  Biso   1.000  C
  C39      1.0000 0.90090  0.91160  0.43950  Biso   1.000  C
  C40      1.0000 0.90780  0.86400  0.48150  Biso   1.000  C
  C41      1.0000 0.86340  0.98760  0.95980  Biso   1.000  C
  C42      1.0000 0.88250  0.03090  0.00280  Biso   1.000  C
  C43      1.0000 0.97950  0.06030  0.01390  Biso   1.000  C
  C44      1.0000 0.04780  0.04490  0.97520  Biso   1.000  C
  C45      1.0000 0.02710  0.00360  0.93180  Biso   1.000  C
  C46      1.0000 0.01390  0.10130  0.06310  Biso   1.000  C
  C47      1.0000 0.96190  0.17080  0.07490  Biso   1.000  C
  C48      1.0000 0.93050  0.75180  0.57240  Biso   1.000  C
  C49      1.0000 0.91850  0.71030  0.62180  Biso   1.000  C
  C50      1.0000 0.91550  0.74930  0.67390  Biso   1.000  C
  C51      1.0000 0.85060  0.73290  0.71200  Biso   1.000  C
  C52      1.0000 0.85110  0.77190  0.76120  Biso   1.000  C
  C53      1.0000 0.98360  0.83940  0.73100  Biso   1.000  C
  C54      1.0000 0.98630  0.80090  0.68190  Biso   1.000  C
  C55      1.0000 0.56500  0.13610  0.77790  Biso   1.000  C
  C56      1.0000 0.51030  0.19710  0.75020  Biso   1.000  C
  C57      1.0000 0.47250  0.18190  0.69150  Biso   1.000  C
  C58      1.0000 0.44240  0.25260  0.66610  Biso   1.000  C
  C59      1.0000 0.39910  0.24050  0.60870  Biso   1.000  C
  C60      1.0000 0.48160  0.19920  0.57730  Biso   1.000  C
  C61      1.0000 0.50910  0.12230  0.59830  Biso   1.000  C
  C62      1.0000 0.55400  0.14290  0.65710  Biso   1.000  C
  C63      1.0000 0.38170  0.13110  0.69450  Biso   1.000  C
  C64      1.0000 0.42310  0.08420  0.60630  Biso   1.000  C
  C65      1.0000 0.33360  0.11900  0.63990  Biso   1.000  C
  C66      1.0000 0.31270  0.19190  0.61080  Biso   1.000  C
  C67      1.0000 0.37030  0.31470  0.58310  Biso   1.000  C
  C68      1.0000 0.33270  0.37900  0.61430  Biso   1.000  C
  C69      1.0000 0.91510  0.03000  0.78780  Biso   1.000  C
  C70      1.0000 0.91200  0.10030  0.75540  Biso   1.000  C
  C71      1.0000 0.02680  0.05830  0.67810  Biso   1.000  C
  C72      1.0000 0.92350  0.08960  0.69470  Biso   1.000  C
  C73      1.0000 0.90770  0.16580  0.66810  Biso   1.000  C
  C74      1.0000 0.91500  0.16100  0.60590  Biso   1.000  C
  C75      1.0000 0.02200  0.12910  0.59140  Biso   1.000  C
  C76      1.0000 0.03170  0.05320  0.61680  Biso   1.000  C
  C77      1.0000 0.95630  0.00180  0.59700  Biso   1.000  C
  C78      1.0000 0.83290  0.10720  0.58790  Biso   1.000  C
  C79      1.0000 0.84980  0.03010  0.61150  Biso   1.000  C
  C80      1.0000 0.84310  0.03610  0.67210  Biso   1.000  C
  C81      1.0000 0.89480  0.23520  0.58040  Biso   1.000  C
  C82      1.0000 0.96650  0.29580  0.60340  Biso   1.000  C
  C83      1.0000 0.51320  0.93730  0.74530  Biso   1.000  C
  C84      1.0000 0.47700  0.88940  0.70400  Biso   1.000  C
  C85      1.0000 0.54450  0.84910  0.67510  Biso   1.000  C
  C86      1.0000 0.64410  0.85670  0.68670  Biso   1.000  C
  C87      1.0000 0.67430  0.90300  0.72640  Biso   1.000  C
  C88      1.0000 0.50400  0.80120  0.62840  Biso   1.000  C
  C89      1.0000 0.66100  0.23720  0.04030  Biso   1.000  C
  C90      1.0000 0.65830  0.19110  0.99010  Biso   1.000  C
  C91      1.0000 0.73340  0.19990  0.95070  Biso   1.000  C
  C92      1.0000 0.73590  0.15090  0.90780  Biso   1.000  C
  C93      1.0000 0.59910  0.08840  0.93950  Biso   1.000  C
  C94      1.0000 0.59220  0.13600  0.98150  Biso   1.000  C
  C95      1.0000 0.63660  0.01240  0.45980  Biso   1.000  C
  C96      1.0000 0.61750  0.96910  0.50280  Biso   1.000  C
  C97      1.0000 0.52050  0.93970  0.51390  Biso   1.000  C
  C98      1.0000 0.45220  0.95510  0.47520  Biso   1.000  C
  C99      1.0000 0.47290  0.99640  0.43180  Biso   1.000  C
  C100     1.0000 0.48610  0.89870  0.56310  Biso   1.000  C
  C101     1.0000 0.53810  0.82920  0.57490  Biso   1.000  C
  C102     1.0000 0.56950  0.24820  0.07240  Biso   1.000  C
  C103     1.0000 0.58150  0.28970  0.12180  Biso   1.000  C
  C104     1.0000 0.58450  0.25070  0.17390  Biso   1.000  C
  C105     1.0000 0.64940  0.26710  0.21200  Biso   1.000  C
  C106     1.0000 0.64890  0.22810  0.26120  Biso   1.000  C
  C107     1.0000 0.51640  0.16060  0.23100  Biso   1.000  C
  C108     1.0000 0.51370  0.19910  0.18190  Biso   1.000  C
  C109     1.0000 0.06500  0.36390  0.22210  Biso   1.000  C
  C110     1.0000 0.01030  0.30290  0.24980  Biso   1.000  C
  C111     1.0000 0.97250  0.31810  0.30850  Biso   1.000  C
  C112     1.0000 0.94240  0.24740  0.33390  Biso   1.000  C
  C113     1.0000 0.89910  0.25950  0.39130  Biso   1.000  C
  C114     1.0000 0.98160  0.30080  0.42270  Biso   1.000  C
  C115     1.0000 0.00910  0.37770  0.40170  Biso   1.000  C
  C116     1.0000 0.05400  0.35710  0.34290  Biso   1.000  C
  C117     1.0000 0.88170  0.36890  0.30550  Biso   1.000  C
  C118     1.0000 0.92310  0.41580  0.39370  Biso   1.000  C
  C119     1.0000 0.83360  0.38100  0.36010  Biso   1.000  C
  C120     1.0000 0.81270  0.30810  0.38920  Biso   1.000  C
  C121     1.0000 0.87030  0.18530  0.41690  Biso   1.000  C
  C122     1.0000 0.83270  0.12100  0.38570  Biso   1.000  C
  C123     1.0000 0.41510  0.47000  0.21220  Biso   1.000  C
  C124     1.0000 0.41200  0.39970  0.24460  Biso   1.000  C
  C125     1.0000 0.52680  0.44170  0.32190  Biso   1.000  C
  C126     1.0000 0.42350  0.41040  0.30530  Biso   1.000  C
  C127     1.0000 0.40770  0.33420  0.33190  Biso   1.000  C
  C128     1.0000 0.41500  0.33900  0.39410  Biso   1.000  C
  C129     1.0000 0.52200  0.37090  0.40860  Biso   1.000  C
  C130     1.0000 0.53170  0.44680  0.38320  Biso   1.000  C
  C131     1.0000 0.45630  0.49820  0.40300  Biso   1.000  C
  C132     1.0000 0.33290  0.39280  0.41210  Biso   1.000  C
  C133     1.0000 0.34980  0.46990  0.38850  Biso   1.000  C
  C134     1.0000 0.34310  0.46390  0.32790  Biso   1.000  C
  C135     1.0000 0.39480  0.26480  0.41960  Biso   1.000  C
  C136     1.0000 0.46650  0.20420  0.39660  Biso   1.000  C
  C137     1.0000 0.01320  0.56270  0.25470  Biso   1.000  C
  C138     1.0000 0.97700  0.61060  0.29600  Biso   1.000  C
  C139     1.0000 0.04450  0.65090  0.32490  Biso   1.000  C
  C140     1.0000 0.14410  0.64330  0.31330  Biso   1.000  C
  C141     1.0000 0.17430  0.59700  0.27360  Biso   1.000  C
  C142     1.0000 0.00400  0.69880  0.37160  Biso   1.000  C
  C143     1.0000 0.16100  0.26280  0.95970  Biso   1.000  C
  C144     1.0000 0.15830  0.30890  0.00990  Biso   1.000  C
  C145     1.0000 0.23340  0.30010  0.04930  Biso   1.000  C
  C146     1.0000 0.23590  0.34910  0.09220  Biso   1.000  C
  C147     1.0000 0.09910  0.41160  0.06050  Biso   1.000  C
  C148     1.0000 0.09220  0.36400  0.01850  Biso   1.000  C
  C149     1.0000 0.13660  0.48760  0.54020  Biso   1.000  C
  C150     1.0000 0.11750  0.53090  0.49720  Biso   1.000  C
  C151     1.0000 0.02050  0.56030  0.48610  Biso   1.000  C
  C152     1.0000 0.95220  0.54490  0.52480  Biso   1.000  C
  C153     1.0000 0.97290  0.50360  0.56820  Biso   1.000  C
  C154     1.0000 0.98610  0.60130  0.43690  Biso   1.000  C
  C155     1.0000 0.03810  0.67080  0.42510  Biso   1.000  C
  C156     1.0000 0.06950  0.25180  0.92760  Biso   1.000  C
  C157     1.0000 0.08150  0.21030  0.87820  Biso   1.000  C
  C158     1.0000 0.08450  0.24930  0.82610  Biso   1.000  C
  C159     1.0000 0.14940  0.23290  0.78800  Biso   1.000  C
  C160     1.0000 0.14890  0.27190  0.73880  Biso   1.000  C
  C161     1.0000 0.01640  0.33940  0.76900  Biso   1.000  C
  C162     1.0000 0.01370  0.30090  0.81810  Biso   1.000  C
  C163     1.0000 0.43500  0.63610  0.72210  Biso   1.000  C
  C164     1.0000 0.48970  0.69710  0.74980  Biso   1.000  C
  C165     1.0000 0.52750  0.68190  0.80850  Biso   1.000  C
  C166     1.0000 0.55760  0.75260  0.83390  Biso   1.000  C
  C167     1.0000 0.60090  0.74050  0.89130  Biso   1.000  C
  C168     1.0000 0.51840  0.69920  0.92270  Biso   1.000  C
  C169     1.0000 0.49090  0.62230  0.90170  Biso   1.000  C
  C170     1.0000 0.44600  0.64290  0.84290  Biso   1.000  C
  C171     1.0000 0.61830  0.63110  0.80550  Biso   1.000  C
  C172     1.0000 0.57690  0.58420  0.89370  Biso   1.000  C
  C173     1.0000 0.66640  0.61900  0.86010  Biso   1.000  C
  C174     1.0000 0.68730  0.69190  0.88920  Biso   1.000  C
  C175     1.0000 0.62970  0.81470  0.91690  Biso   1.000  C
  C176     1.0000 0.66730  0.87900  0.88570  Biso   1.000  C
  C177     1.0000 0.08490  0.53000  0.71220  Biso   1.000  C
  C178     1.0000 0.08800  0.60030  0.74460  Biso   1.000  C
  C179     1.0000 0.97320  0.55830  0.82190  Biso   1.000  C
  C180     1.0000 0.07650  0.58960  0.80530  Biso   1.000  C
  C181     1.0000 0.09230  0.66580  0.83190  Biso   1.000  C
  C182     1.0000 0.08500  0.66100  0.89410  Biso   1.000  C
  C183     1.0000 0.97800  0.62910  0.90860  Biso   1.000  C
  C184     1.0000 0.96830  0.55320  0.88320  Biso   1.000  C
  C185     1.0000 0.04370  0.50180  0.90300  Biso   1.000  C
  C186     1.0000 0.16710  0.60720  0.91210  Biso   1.000  C
  C187     1.0000 0.15020  0.53010  0.88850  Biso   1.000  C
  C188     1.0000 0.15690  0.53610  0.82790  Biso   1.000  C
  C189     1.0000 0.10520  0.73520  0.91960  Biso   1.000  C
  C190     1.0000 0.03350  0.79580  0.89660  Biso   1.000  C
  C191     1.0000 0.48680  0.43730  0.75470  Biso   1.000  C
  C192     1.0000 0.52300  0.38940  0.79600  Biso   1.000  C
  C193     1.0000 0.45550  0.34910  0.82490  Biso   1.000  C
  C194     1.0000 0.35590  0.35670  0.81330  Biso   1.000  C
  C195     1.0000 0.32570  0.40300  0.77360  Biso   1.000  C
  C196     1.0000 0.49600  0.30120  0.87160  Biso   1.000  C
  C197     1.0000 0.33900  0.73720  0.45970  Biso   1.000  C
  C198     1.0000 0.34170  0.69110  0.50990  Biso   1.000  C
  C199     1.0000 0.26660  0.69990  0.54930  Biso   1.000  C
  C200     1.0000 0.26410  0.65090  0.59220  Biso   1.000  C
  C201     1.0000 0.40090  0.58840  0.56050  Biso   1.000  C
  C202     1.0000 0.40780  0.63600  0.51850  Biso   1.000  C
  C203     1.0000 0.36340  0.51240  0.04020  Biso   1.000  C
  C204     1.0000 0.38250  0.46910  0.99720  Biso   1.000  C
  C205     1.0000 0.47950  0.43970  0.98610  Biso   1.000  C
  C206     1.0000 0.54780  0.45510  0.02480  Biso   1.000  C
  C207     1.0000 0.52710  0.49640  0.06820  Biso   1.000  C
  C208     1.0000 0.51390  0.39870  0.93690  Biso   1.000  C
  C209     1.0000 0.46190  0.32920  0.92510  Biso   1.000  C
  C210     1.0000 0.43050  0.74820  0.42760  Biso   1.000  C
  C211     1.0000 0.41850  0.78970  0.37820  Biso   1.000  C
  C212     1.0000 0.41550  0.75070  0.32610  Biso   1.000  C
  C213     1.0000 0.35060  0.76710  0.28800  Biso   1.000  C
  C214     1.0000 0.35110  0.72810  0.23880  Biso   1.000  C
  C215     1.0000 0.48360  0.66060  0.26900  Biso   1.000  C
  C216     1.0000 0.48630  0.69910  0.31810  Biso   1.000  C
  N1       1.0000 0.89120  0.05590  0.25550  Biso   1.000  N
  N2       1.0000 0.82410  0.90400  0.40060  Biso   1.000  N
  N3       1.0000 0.93530  0.97320  0.92180  Biso   1.000  N
  N4       1.0000 0.91540  0.82680  0.77030  Biso   1.000  N
  N5       1.0000 0.60880  0.94410  0.75550  Biso   1.000  N
  N6       1.0000 0.67590  0.09600  0.90060  Biso   1.000  N
  N7       1.0000 0.56470  0.02680  0.42180  Biso   1.000  N
  N8       1.0000 0.58460  0.17320  0.27030  Biso   1.000  N
  N9       1.0000 0.10880  0.55590  0.24450  Biso   1.000  N
  N10      1.0000 0.17590  0.40400  0.09940  Biso   1.000  N
  N11      1.0000 0.06470  0.47320  0.57820  Biso   1.000  N
  N12      1.0000 0.08460  0.32680  0.72970  Biso   1.000  N
  N13      1.0000 0.39120  0.44410  0.74450  Biso   1.000  N
  N14      1.0000 0.32410  0.59600  0.59940  Biso   1.000  N
  N15      1.0000 0.43530  0.52680  0.07820  Biso   1.000  N
  N16      1.0000 0.41540  0.67320  0.22970  Biso   1.000  N
  O1       1.0000 0.84120  0.86650  0.27550  Biso   1.000  O
  O2       1.0000 0.98670  0.91000  0.30460  Biso   1.000  O
  O3       1.0000 0.10010  0.57130  0.11760  Biso   1.000  O
  O4       1.0000 0.24230  0.62250  0.13690  Biso   1.000  O
  O5       1.0000 0.66480  0.99790  0.30500  Biso   1.000  O
  O6       1.0000 0.50070  0.00380  0.29650  Biso   1.000  O
  O7       1.0000 0.57750  0.65360  0.13230  Biso   1.000  O
  O8       1.0000 0.44430  0.70380  0.09650  Biso   1.000  O
  O9       1.0000 0.65880  0.13350  0.77550  Biso   1.000  O
  O10      1.0000 0.51330  0.09000  0.80460  Biso   1.000  O
  O11      1.0000 0.39990  0.42870  0.61760  Biso   1.000  O
  O12      1.0000 0.25770  0.37750  0.63690  Biso   1.000  O
  O13      1.0000 0.83520  0.00210  0.80500  Biso   1.000  O
  O14      1.0000 0.99930  0.99620  0.79650  Biso   1.000  O
  O15      1.0000 0.92250  0.34640  0.63230  Biso   1.000  O
  O16      1.0000 0.05570  0.29620  0.59650  Biso   1.000  O
  O17      1.0000 0.15880  0.36650  0.22450  Biso   1.000  O
  O18      1.0000 0.01330  0.41000  0.19540  Biso   1.000  O
  O19      1.0000 0.89990  0.07130  0.38240  Biso   1.000  O
  O20      1.0000 0.75770  0.12250  0.36310  Biso   1.000  O
  O21      1.0000 0.33520  0.49790  0.19500  Biso   1.000  O
  O22      1.0000 0.49930  0.50380  0.20350  Biso   1.000  O
  O23      1.0000 0.42250  0.15360  0.36770  Biso   1.000  O
  O24      1.0000 0.55570  0.20380  0.40350  Biso   1.000  O
  O25      1.0000 0.34120  0.63350  0.72450  Biso   1.000  O
  O26      1.0000 0.48670  0.59000  0.69540  Biso   1.000  O
  O27      1.0000 0.60010  0.92870  0.88240  Biso   1.000  O
  O28      1.0000 0.74230  0.87750  0.86310  Biso   1.000  O
  O29      1.0000 0.16480  0.50210  0.69500  Biso   1.000  O
  O30      1.0000 0.00070  0.49620  0.70350  Biso   1.000  O
  O31      1.0000 0.07750  0.84640  0.86770  Biso   1.000  O
  O32      1.0000 0.94430  0.79620  0.90350  Biso   1.000  O
