data_image0
_cell_length_a       13.5792
_cell_length_b       13.8958
_cell_length_c       20.7478
_cell_angle_alpha    90
_cell_angle_beta     104.882
_cell_angle_gamma    90

_symmetry_space_group_name_H-M    P 1
_symmetry_int_tables_number       1

loop_
  _symmetry_equiv_pos_as_xyz
  'x, y, z'

loop_
  _atom_site_label
  _atom_site_occupancy
  _atom_site_fract_x
  _atom_site_fract_y
  _atom_site_fract_z
  _atom_site_thermal_displace_type
  _atom_site_B_iso_or_equiv
  _atom_site_type_symbol
  Mg1      1.0000 0.34614  0.13395  0.04953  Biso   1.000  Mg
  Mg2      1.0000 0.59493  0.04299  0.05170  Biso   1.000  Mg
  Mg3      1.0000 0.65386  0.63395  0.45047  Biso   1.000  Mg
  Mg4      1.0000 0.40507  0.54299  0.44830  Biso   1.000  Mg
  Mg5      1.0000 0.65386  0.86605  0.95047  Biso   1.000  Mg
  Mg6      1.0000 0.40507  0.95701  0.94830  Biso   1.000  Mg
  Mg7      1.0000 0.34614  0.36605  0.54953  Biso   1.000  Mg
  Mg8      1.0000 0.59493  0.45701  0.55170  Biso   1.000  Mg
  P1       1.0000 0.26404  0.03705  0.18150  Biso   1.000  P
  P2       1.0000 0.73596  0.53705  0.31850  Biso   1.000  P
  P3       1.0000 0.73596  0.96295  0.81850  Biso   1.000  P
  P4       1.0000 0.26404  0.46295  0.68150  Biso   1.000  P
  H1       1.0000 0.43290  0.97380  0.07290  Biso   1.000  H
  H2       1.0000 0.32480  0.23220  0.19310  Biso   1.000  H
  H3       1.0000 0.36250  0.34520  0.27860  Biso   1.000  H
  H4       1.0000 0.28640  0.15430  0.40340  Biso   1.000  H
  H5       1.0000 0.24680  0.04020  0.31830  Biso   1.000  H
  H6       1.0000 0.08070  0.13140  0.19560  Biso   1.000  H
  H7       1.0000 0.90770  0.11620  0.14230  Biso   1.000  H
  H8       1.0000 0.97020  0.89430  0.03550  Biso   1.000  H
  H9       1.0000 0.14430  0.91070  0.08610  Biso   1.000  H
  H10      1.0000 0.17880  0.86670  0.23190  Biso   1.000  H
  H11      1.0000 0.25180  0.73870  0.29990  Biso   1.000  H
  H12      1.0000 0.53220  0.83940  0.30350  Biso   1.000  H
  H13      1.0000 0.45990  0.96080  0.23070  Biso   1.000  H
  H14      1.0000 0.56710  0.47380  0.42710  Biso   1.000  H
  H15      1.0000 0.67520  0.73220  0.30690  Biso   1.000  H
  H16      1.0000 0.63750  0.84520  0.22140  Biso   1.000  H
  H17      1.0000 0.71360  0.65430  0.09660  Biso   1.000  H
  H18      1.0000 0.75320  0.54020  0.18170  Biso   1.000  H
  H19      1.0000 0.91930  0.63140  0.30440  Biso   1.000  H
  H20      1.0000 0.09230  0.61620  0.35770  Biso   1.000  H
  H21      1.0000 0.02980  0.39430  0.46450  Biso   1.000  H
  H22      1.0000 0.85570  0.41070  0.41390  Biso   1.000  H
  H23      1.0000 0.82120  0.36670  0.26810  Biso   1.000  H
  H24      1.0000 0.74820  0.23870  0.20010  Biso   1.000  H
  H25      1.0000 0.46780  0.33940  0.19650  Biso   1.000  H
  H26      1.0000 0.54010  0.46080  0.26930  Biso   1.000  H
  H27      1.0000 0.56710  0.02620  0.92710  Biso   1.000  H
  H28      1.0000 0.67520  0.76780  0.80690  Biso   1.000  H
  H29      1.0000 0.63750  0.65480  0.72140  Biso   1.000  H
  H30      1.0000 0.71360  0.84570  0.59660  Biso   1.000  H
  H31      1.0000 0.75320  0.95980  0.68170  Biso   1.000  H
  H32      1.0000 0.91930  0.86860  0.80440  Biso   1.000  H
  H33      1.0000 0.09230  0.88380  0.85770  Biso   1.000  H
  H34      1.0000 0.02980  0.10570  0.96450  Biso   1.000  H
  H35      1.0000 0.85570  0.08930  0.91390  Biso   1.000  H
  H36      1.0000 0.82120  0.13330  0.76810  Biso   1.000  H
  H37      1.0000 0.74820  0.26130  0.70010  Biso   1.000  H
  H38      1.0000 0.46780  0.16060  0.69650  Biso   1.000  H
  H39      1.0000 0.54010  0.03920  0.76930  Biso   1.000  H
  H40      1.0000 0.43290  0.52620  0.57290  Biso   1.000  H
  H41      1.0000 0.32480  0.26780  0.69310  Biso   1.000  H
  H42      1.0000 0.36250  0.15480  0.77860  Biso   1.000  H
  H43      1.0000 0.28640  0.34570  0.90340  Biso   1.000  H
  H44      1.0000 0.24680  0.45980  0.81830  Biso   1.000  H
  H45      1.0000 0.08070  0.36860  0.69560  Biso   1.000  H
  H46      1.0000 0.90770  0.38380  0.64230  Biso   1.000  H
  H47      1.0000 0.97020  0.60570  0.53550  Biso   1.000  H
  H48      1.0000 0.14430  0.58930  0.58610  Biso   1.000  H
  H49      1.0000 0.17880  0.63330  0.73190  Biso   1.000  H
  H50      1.0000 0.25180  0.76130  0.79990  Biso   1.000  H
  H51      1.0000 0.53220  0.66060  0.80350  Biso   1.000  H
  H52      1.0000 0.45990  0.53920  0.73070  Biso   1.000  H
  C1       1.0000 0.28410  0.12560  0.24731  Biso   1.000  C
  C2       1.0000 0.31740  0.21570  0.23610  Biso   1.000  C
  C3       1.0000 0.34020  0.28270  0.28700  Biso   1.000  C
  C4       1.0000 0.33080  0.25940  0.35036  Biso   1.000  C
  C5       1.0000 0.29510  0.17000  0.36060  Biso   1.000  C
  C6       1.0000 0.27130  0.10190  0.31030  Biso   1.000  C
  C7       1.0000 0.35920  0.33150  0.40660  Biso   1.000  C
  C8       1.0000 0.12930  0.02290  0.14608  Biso   1.000  C
  C9       1.0000 0.05870  0.08330  0.16250  Biso   1.000  C
  C10      1.0000 0.95580  0.07420  0.13080  Biso   1.000  C
  C11      1.0000 0.92340  0.00510  0.08340  Biso   1.000  C
  C12      1.0000 0.99310  0.94350  0.06760  Biso   1.000  C
  C13      1.0000 0.09650  0.95250  0.09800  Biso   1.000  C
  C14      1.0000 0.80990  0.99390  0.04950  Biso   1.000  C
  C15      1.0000 0.31140  0.92730  0.22540  Biso   1.000  C
  C16      1.0000 0.25090  0.86080  0.24600  Biso   1.000  C
  C17      1.0000 0.29430  0.78530  0.28710  Biso   1.000  C
  C18      1.0000 0.39930  0.77720  0.30990  Biso   1.000  C
  C19      1.0000 0.46010  0.84420  0.28850  Biso   1.000  C
  C20      1.0000 0.41730  0.91700  0.24620  Biso   1.000  C
  C21      1.0000 0.44710  0.69980  0.35920  Biso   1.000  C
  C22      1.0000 0.71590  0.62560  0.25269  Biso   1.000  C
  C23      1.0000 0.68260  0.71570  0.26390  Biso   1.000  C
  C24      1.0000 0.65980  0.78270  0.21300  Biso   1.000  C
  C25      1.0000 0.66920  0.75940  0.14964  Biso   1.000  C
  C26      1.0000 0.70490  0.67000  0.13940  Biso   1.000  C
  C27      1.0000 0.72870  0.60190  0.18970  Biso   1.000  C
  C28      1.0000 0.64080  0.83150  0.09340  Biso   1.000  C
  C29      1.0000 0.87070  0.52290  0.35392  Biso   1.000  C
  C30      1.0000 0.94130  0.58330  0.33750  Biso   1.000  C
  C31      1.0000 0.04420  0.57420  0.36920  Biso   1.000  C
  C32      1.0000 0.07660  0.50510  0.41660  Biso   1.000  C
  C33      1.0000 0.00690  0.44350  0.43240  Biso   1.000  C
  C34      1.0000 0.90350  0.45250  0.40200  Biso   1.000  C
  C35      1.0000 0.19010  0.49390  0.45050  Biso   1.000  C
  C36      1.0000 0.68860  0.42730  0.27460  Biso   1.000  C
  C37      1.0000 0.74910  0.36080  0.25400  Biso   1.000  C
  C38      1.0000 0.70570  0.28530  0.21290  Biso   1.000  C
  C39      1.0000 0.60070  0.27720  0.19010  Biso   1.000  C
  C40      1.0000 0.53990  0.34420  0.21150  Biso   1.000  C
  C41      1.0000 0.58270  0.41700  0.25380  Biso   1.000  C
  C42      1.0000 0.55290  0.19980  0.14080  Biso   1.000  C
  C43      1.0000 0.71590  0.87440  0.75269  Biso   1.000  C
  C44      1.0000 0.68260  0.78430  0.76390  Biso   1.000  C
  C45      1.0000 0.65980  0.71730  0.71300  Biso   1.000  C
  C46      1.0000 0.66920  0.74060  0.64964  Biso   1.000  C
  C47      1.0000 0.70490  0.83000  0.63940  Biso   1.000  C
  C48      1.0000 0.72870  0.89810  0.68970  Biso   1.000  C
  C49      1.0000 0.64080  0.66850  0.59340  Biso   1.000  C
  C50      1.0000 0.87070  0.97710  0.85392  Biso   1.000  C
  C51      1.0000 0.94130  0.91670  0.83750  Biso   1.000  C
  C52      1.0000 0.04420  0.92580  0.86920  Biso   1.000  C
  C53      1.0000 0.07660  0.99490  0.91660  Biso   1.000  C
  C54      1.0000 0.00690  0.05650  0.93240  Biso   1.000  C
  C55      1.0000 0.90350  0.04750  0.90200  Biso   1.000  C
  C56      1.0000 0.19010  0.00610  0.95050  Biso   1.000  C
  C57      1.0000 0.68860  0.07270  0.77460  Biso   1.000  C
  C58      1.0000 0.74910  0.13920  0.75400  Biso   1.000  C
  C59      1.0000 0.70570  0.21470  0.71290  Biso   1.000  C
  C60      1.0000 0.60070  0.22280  0.69010  Biso   1.000  C
  C61      1.0000 0.53990  0.15580  0.71150  Biso   1.000  C
  C62      1.0000 0.58270  0.08300  0.75380  Biso   1.000  C
  C63      1.0000 0.55290  0.30020  0.64080  Biso   1.000  C
  C64      1.0000 0.28410  0.37440  0.74731  Biso   1.000  C
  C65      1.0000 0.31740  0.28430  0.73610  Biso   1.000  C
  C66      1.0000 0.34020  0.21730  0.78700  Biso   1.000  C
  C67      1.0000 0.33080  0.24060  0.85036  Biso   1.000  C
  C68      1.0000 0.29510  0.33000  0.86060  Biso   1.000  C
  C69      1.0000 0.27130  0.39810  0.81030  Biso   1.000  C
  C70      1.0000 0.35920  0.16850  0.90660  Biso   1.000  C
  C71      1.0000 0.12930  0.47710  0.64608  Biso   1.000  C
  C72      1.0000 0.05870  0.41670  0.66250  Biso   1.000  C
  C73      1.0000 0.95580  0.42580  0.63080  Biso   1.000  C
  C74      1.0000 0.92340  0.49490  0.58340  Biso   1.000  C
  C75      1.0000 0.99310  0.55650  0.56760  Biso   1.000  C
  C76      1.0000 0.09650  0.54750  0.59800  Biso   1.000  C
  C77      1.0000 0.80990  0.50610  0.54950  Biso   1.000  C
  C78      1.0000 0.31140  0.57270  0.72540  Biso   1.000  C
  C79      1.0000 0.25090  0.63920  0.74600  Biso   1.000  C
  C80      1.0000 0.29430  0.71470  0.78710  Biso   1.000  C
  C81      1.0000 0.39930  0.72280  0.80990  Biso   1.000  C
  C82      1.0000 0.46010  0.65580  0.78850  Biso   1.000  C
  C83      1.0000 0.41730  0.58300  0.74620  Biso   1.000  C
  C84      1.0000 0.44710  0.80020  0.85920  Biso   1.000  C
  O1       1.0000 0.32120  0.06230  0.13157  Biso   1.000  O
  O2       1.0000 0.37150  0.41690  0.39263  Biso   1.000  O
  O3       1.0000 0.36950  0.29700  0.46473  Biso   1.000  O
  O4       1.0000 0.78570  0.92260  0.01136  Biso   1.000  O
  O5       1.0000 0.75180  0.05580  0.06207  Biso   1.000  O
  O6       1.0000 0.39160  0.62910  0.36522  Biso   1.000  O
  O7       1.0000 0.53840  0.71430  0.38969  Biso   1.000  O
  O8       1.0000 0.43996  0.02380  0.03977  Biso   1.000  O
  O9       1.0000 0.25190  0.24980  0.06128  Biso   1.000  O
  O10      1.0000 0.58320  0.17810  0.99885  Biso   1.000  O
  O11      1.0000 0.67880  0.56230  0.36843  Biso   1.000  O
  O12      1.0000 0.62850  0.91690  0.10737  Biso   1.000  O
  O13      1.0000 0.63050  0.79700  0.03527  Biso   1.000  O
  O14      1.0000 0.21430  0.42260  0.48864  Biso   1.000  O
  O15      1.0000 0.24820  0.55580  0.43793  Biso   1.000  O
  O16      1.0000 0.60840  0.12910  0.13478  Biso   1.000  O
  O17      1.0000 0.46160  0.21430  0.11031  Biso   1.000  O
  O18      1.0000 0.56004  0.52380  0.46023  Biso   1.000  O
  O19      1.0000 0.74810  0.74980  0.43872  Biso   1.000  O
  O20      1.0000 0.41680  0.67810  0.50115  Biso   1.000  O
  O21      1.0000 0.67880  0.93770  0.86843  Biso   1.000  O
  O22      1.0000 0.62850  0.58310  0.60737  Biso   1.000  O
  O23      1.0000 0.63050  0.70300  0.53527  Biso   1.000  O
  O24      1.0000 0.21430  0.07740  0.98864  Biso   1.000  O
  O25      1.0000 0.24820  0.94420  0.93793  Biso   1.000  O
  O26      1.0000 0.60840  0.37090  0.63478  Biso   1.000  O
  O27      1.0000 0.46160  0.28570  0.61031  Biso   1.000  O
  O28      1.0000 0.56004  0.97620  0.96023  Biso   1.000  O
  O29      1.0000 0.74810  0.75020  0.93872  Biso   1.000  O
  O30      1.0000 0.41680  0.82190  0.00115  Biso   1.000  O
  O31      1.0000 0.32120  0.43770  0.63157  Biso   1.000  O
  O32      1.0000 0.37150  0.08310  0.89263  Biso   1.000  O
  O33      1.0000 0.36950  0.20300  0.96473  Biso   1.000  O
  O34      1.0000 0.78570  0.57740  0.51136  Biso   1.000  O
  O35      1.0000 0.75180  0.44420  0.56207  Biso   1.000  O
  O36      1.0000 0.39160  0.87090  0.86522  Biso   1.000  O
  O37      1.0000 0.53840  0.78570  0.88969  Biso   1.000  O
  O38      1.0000 0.43996  0.47620  0.53977  Biso   1.000  O
  O39      1.0000 0.25190  0.25020  0.56128  Biso   1.000  O
  O40      1.0000 0.58320  0.32190  0.49885  Biso   1.000  O
