data_image0
_cell_length_a       14.9359
_cell_length_b       18.1182
_cell_length_c       18.1182
_cell_angle_alpha    80.2185
_cell_angle_beta     65.6582
_cell_angle_gamma    65.6582

_symmetry_space_group_name_H-M    P 1
_symmetry_int_tables_number       1

loop_
  _symmetry_equiv_pos_as_xyz
  'x, y, z'

loop_
  _atom_site_label
  _atom_site_occupancy
  _atom_site_fract_x
  _atom_site_fract_y
  _atom_site_fract_z
  _atom_site_thermal_displace_type
  _atom_site_B_iso_or_equiv
  _atom_site_type_symbol
  Co1      1.0000 0.53737  0.16923  0.57797  Biso   1.000  Co
  Co2      1.0000 0.78457  0.33077  0.92203  Biso   1.000  Co
  Co3      1.0000 0.11534  0.42203  0.66923  Biso   1.000  Co
  Co4      1.0000 0.70660  0.07797  0.83077  Biso   1.000  Co
  Co5      1.0000 0.46263  0.83077  0.42203  Biso   1.000  Co
  Co6      1.0000 0.21543  0.66923  0.07797  Biso   1.000  Co
  Co7      1.0000 0.88466  0.57797  0.33077  Biso   1.000  Co
  Co8      1.0000 0.29340  0.92203  0.16923  Biso   1.000  Co
  H1       1.0000 0.10920  0.35250  0.50390  Biso   1.000  H
  H2       1.0000 0.90130  0.24730  0.55530  Biso   1.000  H
  H3       1.0000 0.12930  0.15640  0.64540  Biso   1.000  H
  H4       1.0000 0.34520  0.14290  0.55250  Biso   1.000  H
  H5       1.0000 0.35260  0.33300  0.61880  Biso   1.000  H
  H6       1.0000 0.03410  0.43760  0.41280  Biso   1.000  H
  H7       1.0000 0.75960  0.46390  0.41730  Biso   1.000  H
  H8       1.0000 0.79650  0.19490  0.69430  Biso   1.000  H
  H9       1.0000 0.96060  0.97850  0.75330  Biso   1.000  H
  H10      1.0000 0.46560  0.14750  0.99610  Biso   1.000  H
  H11      1.0000 0.20390  0.25270  0.94470  Biso   1.000  H
  H12      1.0000 0.43110  0.34360  0.85460  Biso   1.000  H
  H13      1.0000 0.54060  0.35710  0.94750  Biso   1.000  H
  H14      1.0000 0.80440  0.16700  0.88120  Biso   1.000  H
  H15      1.0000 0.38450  0.06240  0.08720  Biso   1.000  H
  H16      1.0000 0.14080  0.03610  0.08270  Biso   1.000  H
  H17      1.0000 0.18570  0.30510  0.80570  Biso   1.000  H
  H18      1.0000 0.19240  0.52150  0.74670  Biso   1.000  H
  H19      1.0000 0.61310  0.49610  0.85250  Biso   1.000  H
  H20      1.0000 0.45660  0.44470  0.74730  Biso   1.000  H
  H21      1.0000 0.77470  0.35460  0.65640  Biso   1.000  H
  H22      1.0000 0.89770  0.44750  0.64290  Biso   1.000  H
  H23      1.0000 0.97140  0.38120  0.83300  Biso   1.000  H
  H24      1.0000 0.44690  0.58720  0.93760  Biso   1.000  H
  H25      1.0000 0.17690  0.58270  0.96390  Biso   1.000  H
  H26      1.0000 0.49080  0.30570  0.69490  Biso   1.000  H
  H27      1.0000 0.71390  0.24670  0.47850  Biso   1.000  H
  H28      1.0000 0.46170  0.00390  0.64750  Biso   1.000  H
  H29      1.0000 0.14860  0.05530  0.75270  Biso   1.000  H
  H30      1.0000 0.28570  0.14540  0.84360  Biso   1.000  H
  H31      1.0000 0.48810  0.05250  0.85710  Biso   1.000  H
  H32      1.0000 0.68560  0.11880  0.66700  Biso   1.000  H
  H33      1.0000 0.47170  0.91280  0.56240  Biso   1.000  H
  H34      1.0000 0.22350  0.91730  0.53610  Biso   1.000  H
  H35      1.0000 0.99140  0.19430  0.80510  Biso   1.000  H
  H36      1.0000 0.93910  0.25330  0.02150  Biso   1.000  H
  H37      1.0000 0.89080  0.64750  0.49610  Biso   1.000  H
  H38      1.0000 0.09870  0.75270  0.44470  Biso   1.000  H
  H39      1.0000 0.87070  0.84360  0.35460  Biso   1.000  H
  H40      1.0000 0.65480  0.85710  0.44750  Biso   1.000  H
  H41      1.0000 0.64740  0.66700  0.38120  Biso   1.000  H
  H42      1.0000 0.96590  0.56240  0.58720  Biso   1.000  H
  H43      1.0000 0.24040  0.53610  0.58270  Biso   1.000  H
  H44      1.0000 0.20350  0.80510  0.30570  Biso   1.000  H
  H45      1.0000 0.03940  0.02150  0.24670  Biso   1.000  H
  H46      1.0000 0.53440  0.85250  0.00390  Biso   1.000  H
  H47      1.0000 0.79610  0.74730  0.05530  Biso   1.000  H
  H48      1.0000 0.56890  0.65640  0.14540  Biso   1.000  H
  H49      1.0000 0.45940  0.64290  0.05250  Biso   1.000  H
  H50      1.0000 0.19560  0.83300  0.11880  Biso   1.000  H
  H51      1.0000 0.61550  0.93760  0.91280  Biso   1.000  H
  H52      1.0000 0.85920  0.96390  0.91730  Biso   1.000  H
  H53      1.0000 0.81430  0.69490  0.19430  Biso   1.000  H
  H54      1.0000 0.80760  0.47850  0.25330  Biso   1.000  H
  H55      1.0000 0.38690  0.50390  0.14750  Biso   1.000  H
  H56      1.0000 0.54340  0.55530  0.25270  Biso   1.000  H
  H57      1.0000 0.22530  0.64540  0.34360  Biso   1.000  H
  H58      1.0000 0.10230  0.55250  0.35710  Biso   1.000  H
  H59      1.0000 0.02860  0.61880  0.16700  Biso   1.000  H
  H60      1.0000 0.55310  0.41280  0.06240  Biso   1.000  H
  H61      1.0000 0.82310  0.41730  0.03610  Biso   1.000  H
  H62      1.0000 0.50920  0.69430  0.30510  Biso   1.000  H
  H63      1.0000 0.28610  0.75330  0.52150  Biso   1.000  H
  H64      1.0000 0.53830  0.99610  0.35250  Biso   1.000  H
  H65      1.0000 0.85140  0.94470  0.24730  Biso   1.000  H
  H66      1.0000 0.71430  0.85460  0.15640  Biso   1.000  H
  H67      1.0000 0.51190  0.94750  0.14290  Biso   1.000  H
  H68      1.0000 0.31440  0.88120  0.33300  Biso   1.000  H
  H69      1.0000 0.52830  0.08720  0.43760  Biso   1.000  H
  H70      1.0000 0.77650  0.08270  0.46390  Biso   1.000  H
  H71      1.0000 0.00860  0.80570  0.19490  Biso   1.000  H
  H72      1.0000 0.06090  0.74670  0.97850  Biso   1.000  H
  C1       1.0000 0.13409  0.25493  0.57629  Biso   1.000  C
  C2       1.0000 0.08364  0.31227  0.53025  Biso   1.000  C
  C3       1.0000 0.99534  0.31049  0.52283  Biso   1.000  C
  C4       1.0000 0.95839  0.25012  0.56170  Biso   1.000  C
  C5       1.0000 0.00581  0.19357  0.61041  Biso   1.000  C
  C6       1.0000 0.09500  0.19573  0.61527  Biso   1.000  C
  C7       1.0000 0.22801  0.25551  0.58367  Biso   1.000  C
  C8       1.0000 0.32559  0.19506  0.56916  Biso   1.000  C
  C9       1.0000 0.32870  0.29910  0.60550  Biso   1.000  C
  C10      1.0000 0.94261  0.37240  0.47458  Biso   1.000  C
  C11      1.0000 0.97130  0.43034  0.42506  Biso   1.000  C
  C12      1.0000 0.82140  0.44490  0.42770  Biso   1.000  C
  C13      1.0000 0.95721  0.13661  0.66017  Biso   1.000  C
  C14      1.0000 0.85280  0.14837  0.69823  Biso   1.000  C
  C15      1.0000 0.94273  0.02999  0.73075  Biso   1.000  C
  C16      1.0000 0.46531  0.24507  0.92371  Biso   1.000  C
  C17      1.0000 0.42616  0.18773  0.96975  Biso   1.000  C
  C18      1.0000 0.32866  0.18951  0.97717  Biso   1.000  C
  C19      1.0000 0.27021  0.24988  0.93830  Biso   1.000  C
  C20      1.0000 0.30979  0.30643  0.88959  Biso   1.000  C
  C21      1.0000 0.40600  0.30427  0.88473  Biso   1.000  C
  C22      1.0000 0.56719  0.24449  0.91633  Biso   1.000  C
  C23      1.0000 0.58981  0.30494  0.93084  Biso   1.000  C
  C24      1.0000 0.73330  0.20090  0.89450  Biso   1.000  C
  C25      1.0000 0.28959  0.12760  0.02542  Biso   1.000  C
  C26      1.0000 0.32670  0.06966  0.07494  Biso   1.000  C
  C27      1.0000 0.19400  0.05510  0.07230  Biso   1.000  C
  C28      1.0000 0.25399  0.36339  0.83983  Biso   1.000  C
  C29      1.0000 0.19940  0.35163  0.80177  Biso   1.000  C
  C30      1.0000 0.20347  0.47001  0.76925  Biso   1.000  C
  C31      1.0000 0.71038  0.42371  0.75493  Biso   1.000  C
  C32      1.0000 0.61389  0.46975  0.81227  Biso   1.000  C
  C33      1.0000 0.51817  0.47717  0.81049  Biso   1.000  C
  C34      1.0000 0.52009  0.43830  0.75012  Biso   1.000  C
  C35      1.0000 0.61622  0.38959  0.69357  Biso   1.000  C
  C36      1.0000 0.71027  0.38473  0.69573  Biso   1.000  C
  C37      1.0000 0.81168  0.41633  0.75551  Biso   1.000  C
  C38      1.0000 0.89475  0.43084  0.69506  Biso   1.000  C
  C39      1.0000 0.93420  0.39450  0.79910  Biso   1.000  C
  C40      1.0000 0.41719  0.52542  0.87240  Biso   1.000  C
  C41      1.0000 0.39636  0.57494  0.93034  Biso   1.000  C
  C42      1.0000 0.24910  0.57230  0.94490  Biso   1.000  C
  C43      1.0000 0.61738  0.33983  0.63661  Biso   1.000  C
  C44      1.0000 0.55103  0.30177  0.64837  Biso   1.000  C
  C45      1.0000 0.67348  0.26925  0.52999  Biso   1.000  C
  C46      1.0000 0.38902  0.07629  0.74507  Biso   1.000  C
  C47      1.0000 0.39591  0.03025  0.68773  Biso   1.000  C
  C48      1.0000 0.30583  0.02283  0.68951  Biso   1.000  C
  C49      1.0000 0.20851  0.06170  0.74988  Biso   1.000  C
  C50      1.0000 0.19938  0.11041  0.80643  Biso   1.000  C
  C51      1.0000 0.29073  0.11527  0.80427  Biso   1.000  C
  C52      1.0000 0.48352  0.08367  0.74449  Biso   1.000  C
  C53      1.0000 0.52065  0.06916  0.80494  Biso   1.000  C
  C54      1.0000 0.62780  0.10550  0.70090  Biso   1.000  C
  C55      1.0000 0.31501  0.97458  0.62760  Biso   1.000  C
  C56      1.0000 0.40164  0.92506  0.56966  Biso   1.000  C
  C57      1.0000 0.26630  0.92770  0.55510  Biso   1.000  C
  C58      1.0000 0.09382  0.16017  0.86339  Biso   1.000  C
  C59      1.0000 0.00117  0.19823  0.85163  Biso   1.000  C
  C60      1.0000 0.97272  0.23075  0.97001  Biso   1.000  C
  C61      1.0000 0.86591  0.74507  0.42371  Biso   1.000  C
  C62      1.0000 0.91636  0.68773  0.46975  Biso   1.000  C
  C63      1.0000 0.00466  0.68951  0.47717  Biso   1.000  C
  C64      1.0000 0.04161  0.74988  0.43830  Biso   1.000  C
  C65      1.0000 0.99419  0.80643  0.38959  Biso   1.000  C
  C66      1.0000 0.90500  0.80427  0.38473  Biso   1.000  C
  C67      1.0000 0.77199  0.74449  0.41633  Biso   1.000  C
  C68      1.0000 0.67441  0.80494  0.43084  Biso   1.000  C
  C69      1.0000 0.67130  0.70090  0.39450  Biso   1.000  C
  C70      1.0000 0.05739  0.62760  0.52542  Biso   1.000  C
  C71      1.0000 0.02870  0.56966  0.57494  Biso   1.000  C
  C72      1.0000 0.17860  0.55510  0.57230  Biso   1.000  C
  C73      1.0000 0.04279  0.86339  0.33983  Biso   1.000  C
  C74      1.0000 0.14720  0.85163  0.30177  Biso   1.000  C
  C75      1.0000 0.05727  0.97001  0.26925  Biso   1.000  C
  C76      1.0000 0.53469  0.75493  0.07629  Biso   1.000  C
  C77      1.0000 0.57384  0.81227  0.03025  Biso   1.000  C
  C78      1.0000 0.67134  0.81049  0.02283  Biso   1.000  C
  C79      1.0000 0.72979  0.75012  0.06170  Biso   1.000  C
  C80      1.0000 0.69021  0.69357  0.11041  Biso   1.000  C
  C81      1.0000 0.59400  0.69573  0.11527  Biso   1.000  C
  C82      1.0000 0.43281  0.75551  0.08367  Biso   1.000  C
  C83      1.0000 0.41019  0.69506  0.06916  Biso   1.000  C
  C84      1.0000 0.26670  0.79910  0.10550  Biso   1.000  C
  C85      1.0000 0.71041  0.87240  0.97458  Biso   1.000  C
  C86      1.0000 0.67330  0.93034  0.92506  Biso   1.000  C
  C87      1.0000 0.80600  0.94490  0.92770  Biso   1.000  C
  C88      1.0000 0.74601  0.63661  0.16017  Biso   1.000  C
  C89      1.0000 0.80060  0.64837  0.19823  Biso   1.000  C
  C90      1.0000 0.79653  0.52999  0.23075  Biso   1.000  C
  C91      1.0000 0.28962  0.57629  0.24507  Biso   1.000  C
  C92      1.0000 0.38611  0.53025  0.18773  Biso   1.000  C
  C93      1.0000 0.48183  0.52283  0.18951  Biso   1.000  C
  C94      1.0000 0.47991  0.56170  0.24988  Biso   1.000  C
  C95      1.0000 0.38378  0.61041  0.30643  Biso   1.000  C
  C96      1.0000 0.28973  0.61527  0.30427  Biso   1.000  C
  C97      1.0000 0.18832  0.58367  0.24449  Biso   1.000  C
  C98      1.0000 0.10525  0.56916  0.30494  Biso   1.000  C
  C99      1.0000 0.06580  0.60550  0.20090  Biso   1.000  C
  C100     1.0000 0.58281  0.47458  0.12760  Biso   1.000  C
  C101     1.0000 0.60364  0.42506  0.06966  Biso   1.000  C
  C102     1.0000 0.75090  0.42770  0.05510  Biso   1.000  C
  C103     1.0000 0.38262  0.66017  0.36339  Biso   1.000  C
  C104     1.0000 0.44897  0.69823  0.35163  Biso   1.000  C
  C105     1.0000 0.32652  0.73075  0.47001  Biso   1.000  C
  C106     1.0000 0.61098  0.92371  0.25493  Biso   1.000  C
  C107     1.0000 0.60409  0.96975  0.31227  Biso   1.000  C
  C108     1.0000 0.69417  0.97717  0.31049  Biso   1.000  C
  C109     1.0000 0.79149  0.93830  0.25012  Biso   1.000  C
  C110     1.0000 0.80062  0.88959  0.19357  Biso   1.000  C
  C111     1.0000 0.70927  0.88473  0.19573  Biso   1.000  C
  C112     1.0000 0.51648  0.91633  0.25551  Biso   1.000  C
  C113     1.0000 0.47935  0.93084  0.19506  Biso   1.000  C
  C114     1.0000 0.37220  0.89450  0.29910  Biso   1.000  C
  C115     1.0000 0.68499  0.02542  0.37240  Biso   1.000  C
  C116     1.0000 0.59836  0.07494  0.43034  Biso   1.000  C
  C117     1.0000 0.73370  0.07230  0.44490  Biso   1.000  C
  C118     1.0000 0.90618  0.83983  0.13661  Biso   1.000  C
  C119     1.0000 0.99883  0.80177  0.14837  Biso   1.000  C
  C120     1.0000 0.02728  0.76925  0.02999  Biso   1.000  C
  N1       1.0000 0.39007  0.22228  0.58260  Biso   1.000  N
  N2       1.0000 0.23046  0.32338  0.60790  Biso   1.000  N
  N3       1.0000 0.89351  0.47727  0.39531  Biso   1.000  N
  N4       1.0000 0.84486  0.38252  0.47636  Biso   1.000  N
  N5       1.0000 0.84272  0.08067  0.74369  Biso   1.000  N
  N6       1.0000 0.01442  0.06082  0.68194  Biso   1.000  N
  N7       1.0000 0.69495  0.27772  0.91740  Biso   1.000  N
  N8       1.0000 0.66174  0.17662  0.89210  Biso   1.000  N
  N9       1.0000 0.26609  0.02273  0.10469  Biso   1.000  N
  N10      1.0000 0.20374  0.11748  0.02364  Biso   1.000  N
  N11      1.0000 0.16708  0.41933  0.75631  Biso   1.000  N
  N12      1.0000 0.25718  0.43918  0.81806  Biso   1.000  N
  N13      1.0000 0.97267  0.41740  0.72228  Biso   1.000  N
  N14      1.0000 0.83836  0.39210  0.82338  Biso   1.000  N
  N15      1.0000 0.28882  0.60469  0.97727  Biso   1.000  N
  N16      1.0000 0.32122  0.52364  0.88252  Biso   1.000  N
  N17      1.0000 0.58641  0.25631  0.58067  Biso   1.000  N
  N18      1.0000 0.69636  0.31806  0.56082  Biso   1.000  N
  N19      1.0000 0.61235  0.08260  0.77772  Biso   1.000  N
  N20      1.0000 0.55384  0.10790  0.67662  Biso   1.000  N
  N21      1.0000 0.37078  0.89531  0.52273  Biso   1.000  N
  N22      1.0000 0.22738  0.97636  0.61748  Biso   1.000  N
  N23      1.0000 0.92339  0.24369  0.91933  Biso   1.000  N
  N24      1.0000 0.07524  0.18194  0.93918  Biso   1.000  N
  N25      1.0000 0.60993  0.77772  0.41740  Biso   1.000  N
  N26      1.0000 0.76954  0.67662  0.39210  Biso   1.000  N
  N27      1.0000 0.10649  0.52273  0.60469  Biso   1.000  N
  N28      1.0000 0.15514  0.61748  0.52364  Biso   1.000  N
  N29      1.0000 0.15728  0.91933  0.25631  Biso   1.000  N
  N30      1.0000 0.98558  0.93918  0.31806  Biso   1.000  N
  N31      1.0000 0.30505  0.72228  0.08260  Biso   1.000  N
  N32      1.0000 0.33826  0.82338  0.10790  Biso   1.000  N
  N33      1.0000 0.73391  0.97727  0.89531  Biso   1.000  N
  N34      1.0000 0.79626  0.88252  0.97636  Biso   1.000  N
  N35      1.0000 0.83292  0.58067  0.24369  Biso   1.000  N
  N36      1.0000 0.74282  0.56082  0.18194  Biso   1.000  N
  N37      1.0000 0.02733  0.58260  0.27772  Biso   1.000  N
  N38      1.0000 0.16164  0.60790  0.17662  Biso   1.000  N
  N39      1.0000 0.71118  0.39531  0.02273  Biso   1.000  N
  N40      1.0000 0.67878  0.47636  0.11748  Biso   1.000  N
  N41      1.0000 0.41359  0.74369  0.41933  Biso   1.000  N
  N42      1.0000 0.30364  0.68194  0.43918  Biso   1.000  N
  N43      1.0000 0.38765  0.91740  0.22228  Biso   1.000  N
  N44      1.0000 0.44616  0.89210  0.32338  Biso   1.000  N
  N45      1.0000 0.62922  0.10469  0.47727  Biso   1.000  N
  N46      1.0000 0.77262  0.02364  0.38252  Biso   1.000  N
  N47      1.0000 0.07661  0.75631  0.08067  Biso   1.000  N
  N48      1.0000 0.92476  0.81806  0.06082  Biso   1.000  N
