data_image0
_cell_length_a       4.7595
_cell_length_b       9.925
_cell_length_c       22.609
_cell_angle_alpha    90
_cell_angle_beta     91.81
_cell_angle_gamma    90

_symmetry_space_group_name_H-M    P 1
_symmetry_int_tables_number       1

loop_
  _symmetry_equiv_pos_as_xyz
  'x, y, z'

loop_
  _atom_site_label
  _atom_site_occupancy
  _atom_site_fract_x
  _atom_site_fract_y
  _atom_site_fract_z
  _atom_site_thermal_displace_type
  _atom_site_B_iso_or_equiv
  _atom_site_type_symbol
  Cd1      1.0000 0.00000  0.00000  0.50000  Biso   1.000  Cd
  Cd2      1.0000 0.00000  0.50000  0.00000  Biso   1.000  Cd
  As1      1.0000 0.53337  0.86009  0.59476  Biso   1.000  As
  As2      1.0000 0.46663  0.36009  0.90524  Biso   1.000  As
  As3      1.0000 0.46663  0.13991  0.40524  Biso   1.000  As
  As4      1.0000 0.53337  0.63991  0.09476  Biso   1.000  As
  H1       1.0000 0.88780  0.03110  0.86450  Biso   1.000  H
  H2       1.0000 0.16140  0.74830  0.57660  Biso   1.000  H
  H3       1.0000 0.71500  0.64380  0.90010  Biso   1.000  H
  H4       1.0000 0.92670  0.73340  0.67830  Biso   1.000  H
  H5       1.0000 0.07990  0.76510  0.77490  Biso   1.000  H
  H6       1.0000 0.55560  0.08130  0.78780  Biso   1.000  H
  H7       1.0000 0.40070  0.04770  0.69190  Biso   1.000  H
  H8       1.0000 0.28880  0.84770  0.85450  Biso   1.000  H
  H9       1.0000 0.22450  0.92570  0.91260  Biso   1.000  H
  H10      1.0000 0.11220  0.53110  0.63550  Biso   1.000  H
  H11      1.0000 0.83860  0.24830  0.92340  Biso   1.000  H
  H12      1.0000 0.28500  0.14380  0.59990  Biso   1.000  H
  H13      1.0000 0.07330  0.23340  0.82170  Biso   1.000  H
  H14      1.0000 0.92010  0.26510  0.72510  Biso   1.000  H
  H15      1.0000 0.44440  0.58130  0.71220  Biso   1.000  H
  H16      1.0000 0.59930  0.54770  0.80810  Biso   1.000  H
  H17      1.0000 0.71120  0.34770  0.64550  Biso   1.000  H
  H18      1.0000 0.77550  0.42570  0.58740  Biso   1.000  H
  H19      1.0000 0.11220  0.96890  0.13550  Biso   1.000  H
  H20      1.0000 0.83860  0.25170  0.42340  Biso   1.000  H
  H21      1.0000 0.28500  0.35620  0.09990  Biso   1.000  H
  H22      1.0000 0.07330  0.26660  0.32170  Biso   1.000  H
  H23      1.0000 0.92010  0.23490  0.22510  Biso   1.000  H
  H24      1.0000 0.44440  0.91870  0.21220  Biso   1.000  H
  H25      1.0000 0.59930  0.95230  0.30810  Biso   1.000  H
  H26      1.0000 0.71120  0.15230  0.14550  Biso   1.000  H
  H27      1.0000 0.77550  0.07430  0.08740  Biso   1.000  H
  H28      1.0000 0.88780  0.46890  0.36450  Biso   1.000  H
  H29      1.0000 0.16140  0.75170  0.07660  Biso   1.000  H
  H30      1.0000 0.71500  0.85620  0.40010  Biso   1.000  H
  H31      1.0000 0.92670  0.76660  0.17830  Biso   1.000  H
  H32      1.0000 0.07990  0.73490  0.27490  Biso   1.000  H
  H33      1.0000 0.55560  0.41870  0.28780  Biso   1.000  H
  H34      1.0000 0.40070  0.45230  0.19190  Biso   1.000  H
  H35      1.0000 0.28880  0.65230  0.35450  Biso   1.000  H
  H36      1.0000 0.22450  0.57430  0.41260  Biso   1.000  H
  C1       1.0000 0.64980  0.88820  0.67469  Biso   1.000  C
  C2       1.0000 0.85340  0.80360  0.70028  Biso   1.000  C
  C3       1.0000 0.94700  0.82350  0.75811  Biso   1.000  C
  C4       1.0000 0.84530  0.93010  0.79198  Biso   1.000  C
  C5       1.0000 0.63310  0.01230  0.76583  Biso   1.000  C
  C6       1.0000 0.53920  0.99180  0.70837  Biso   1.000  C
  C7       1.0000 0.13970  0.87340  0.88052  Biso   1.000  C
  C8       1.0000 0.01540  0.74630  0.90630  Biso   1.000  C
  C9       1.0000 0.35020  0.38820  0.82531  Biso   1.000  C
  C10      1.0000 0.14660  0.30360  0.79972  Biso   1.000  C
  C11      1.0000 0.05300  0.32350  0.74189  Biso   1.000  C
  C12      1.0000 0.15470  0.43010  0.70802  Biso   1.000  C
  C13      1.0000 0.36690  0.51230  0.73417  Biso   1.000  C
  C14      1.0000 0.46080  0.49180  0.79163  Biso   1.000  C
  C15      1.0000 0.86030  0.37340  0.61948  Biso   1.000  C
  C16      1.0000 0.98460  0.24630  0.59370  Biso   1.000  C
  C17      1.0000 0.35020  0.11180  0.32531  Biso   1.000  C
  C18      1.0000 0.14660  0.19640  0.29972  Biso   1.000  C
  C19      1.0000 0.05300  0.17650  0.24189  Biso   1.000  C
  C20      1.0000 0.15470  0.06990  0.20802  Biso   1.000  C
  C21      1.0000 0.36690  0.98770  0.23417  Biso   1.000  C
  C22      1.0000 0.46080  0.00820  0.29163  Biso   1.000  C
  C23      1.0000 0.86030  0.12660  0.11948  Biso   1.000  C
  C24      1.0000 0.98460  0.25370  0.09370  Biso   1.000  C
  C25      1.0000 0.64980  0.61180  0.17469  Biso   1.000  C
  C26      1.0000 0.85340  0.69640  0.20028  Biso   1.000  C
  C27      1.0000 0.94700  0.67650  0.25811  Biso   1.000  C
  C28      1.0000 0.84530  0.56990  0.29198  Biso   1.000  C
  C29      1.0000 0.63310  0.48770  0.26583  Biso   1.000  C
  C30      1.0000 0.53920  0.50820  0.20837  Biso   1.000  C
  C31      1.0000 0.13970  0.62660  0.38052  Biso   1.000  C
  C32      1.0000 0.01540  0.75370  0.40630  Biso   1.000  C
  N1       1.0000 0.94460  0.95850  0.84787  Biso   1.000  N
  N2       1.0000 0.05540  0.45850  0.65213  Biso   1.000  N
  N3       1.0000 0.05540  0.04150  0.15213  Biso   1.000  N
  N4       1.0000 0.94460  0.54150  0.34787  Biso   1.000  N
  O1       1.0000 0.80670  0.82260  0.55324  Biso   1.000  O
  O2       1.0000 0.31170  0.72140  0.59090  Biso   1.000  O
  O3       1.0000 0.35200  0.99150  0.56782  Biso   1.000  O
  O4       1.0000 0.76280  0.71650  0.88644  Biso   1.000  O
  O5       1.0000 0.15150  0.67910  0.94235  Biso   1.000  O
  O6       1.0000 0.19330  0.32260  0.94676  Biso   1.000  O
  O7       1.0000 0.68830  0.22140  0.90910  Biso   1.000  O
  O8       1.0000 0.64800  0.49150  0.93218  Biso   1.000  O
  O9       1.0000 0.23720  0.21650  0.61356  Biso   1.000  O
  O10      1.0000 0.84850  0.17910  0.55765  Biso   1.000  O
  O11      1.0000 0.19330  0.17740  0.44676  Biso   1.000  O
  O12      1.0000 0.68830  0.27860  0.40910  Biso   1.000  O
  O13      1.0000 0.64800  0.00850  0.43218  Biso   1.000  O
  O14      1.0000 0.23720  0.28350  0.11356  Biso   1.000  O
  O15      1.0000 0.84850  0.32090  0.05765  Biso   1.000  O
  O16      1.0000 0.80670  0.67740  0.05324  Biso   1.000  O
  O17      1.0000 0.31170  0.77860  0.09090  Biso   1.000  O
  O18      1.0000 0.35200  0.50850  0.06782  Biso   1.000  O
  O19      1.0000 0.76280  0.78350  0.38644  Biso   1.000  O
  O20      1.0000 0.15150  0.82090  0.44235  Biso   1.000  O
