data_image0
_cell_length_a       8.88297
_cell_length_b       9.9355
_cell_length_c       14.5052
_cell_angle_alpha    82.1326
_cell_angle_beta     72.1699
_cell_angle_gamma    63.4466

_symmetry_space_group_name_H-M    P 1
_symmetry_int_tables_number       1

loop_
  _symmetry_equiv_pos_as_xyz
  'x, y, z'

loop_
  _atom_site_label
  _atom_site_occupancy
  _atom_site_fract_x
  _atom_site_fract_y
  _atom_site_fract_z
  _atom_site_thermal_displace_type
  _atom_site_B_iso_or_equiv
  _atom_site_type_symbol
  Co1      1.0000 0.02500  0.58116  0.87242  Biso   1.000  Co
  Co2      1.0000 0.47858  0.41884  0.12758  Biso   1.000  Co
  Co3      1.0000 0.14742  0.08116  0.62758  Biso   1.000  Co
  Co4      1.0000 0.85616  0.91884  0.37242  Biso   1.000  Co
  H1       1.0000 0.73470  0.47280  0.95040  Biso   1.000  H
  H2       1.0000 0.82520  0.71400  0.09860  Biso   1.000  H
  H3       1.0000 0.60330  0.64840  0.20120  Biso   1.000  H
  H4       1.0000 0.20450  0.25700  0.76840  Biso   1.000  H
  H5       1.0000 0.79750  0.61600  0.73200  Biso   1.000  H
  H6       1.0000 0.84160  0.41780  0.63300  Biso   1.000  H
  H7       1.0000 0.15790  0.52720  0.04960  Biso   1.000  H
  H8       1.0000 0.63780  0.28600  0.90140  Biso   1.000  H
  H9       1.0000 0.45290  0.35160  0.79880  Biso   1.000  H
  H10      1.0000 0.22990  0.74300  0.23160  Biso   1.000  H
  H11      1.0000 0.14550  0.38400  0.26800  Biso   1.000  H
  H12      1.0000 0.89240  0.58220  0.36700  Biso   1.000  H
  H13      1.0000 0.93510  0.97280  0.54960  Biso   1.000  H
  H14      1.0000 0.17380  0.21400  0.40140  Biso   1.000  H
  H15      1.0000 0.05450  0.14840  0.29880  Biso   1.000  H
  H16      1.0000 0.22290  0.75700  0.73160  Biso   1.000  H
  H17      1.0000 0.77950  0.11600  0.76800  Biso   1.000  H
  H18      1.0000 0.72460  0.91780  0.86700  Biso   1.000  H
  H19      1.0000 0.45750  0.02720  0.45040  Biso   1.000  H
  H20      1.0000 0.78920  0.78600  0.59860  Biso   1.000  H
  H21      1.0000 0.50170  0.85160  0.70120  Biso   1.000  H
  H22      1.0000 0.71150  0.24300  0.26840  Biso   1.000  H
  H23      1.0000 0.66350  0.88400  0.23200  Biso   1.000  H
  H24      1.0000 0.50940  0.08220  0.13300  Biso   1.000  H
  C1       1.0000 0.73220  0.52200  0.00120  Biso   1.000  C
  C2       1.0000 0.78070  0.65560  0.08100  Biso   1.000  C
  C3       1.0000 0.66090  0.61760  0.13720  Biso   1.000  C
  C4       1.0000 0.10910  0.32300  0.74620  Biso   1.000  C
  C5       1.0000 0.88650  0.51880  0.72740  Biso   1.000  C
  C6       1.0000 0.91120  0.41000  0.67200  Biso   1.000  C
  C7       1.0000 0.25540  0.47800  0.99880  Biso   1.000  C
  C8       1.0000 0.51730  0.34440  0.91900  Biso   1.000  C
  C9       1.0000 0.41570  0.38240  0.86280  Biso   1.000  C
  C10      1.0000 0.17830  0.67700  0.25380  Biso   1.000  C
  C11      1.0000 0.13270  0.48120  0.27260  Biso   1.000  C
  C12      1.0000 0.99320  0.59000  0.32800  Biso   1.000  C
  C13      1.0000 0.98340  0.02200  0.49880  Biso   1.000  C
  C14      1.0000 0.11170  0.15560  0.41900  Biso   1.000  C
  C15      1.0000 0.04810  0.11760  0.36280  Biso   1.000  C
  C16      1.0000 0.10530  0.82300  0.75380  Biso   1.000  C
  C17      1.0000 0.86390  0.01880  0.77260  Biso   1.000  C
  C18      1.0000 0.83320  0.91000  0.82800  Biso   1.000  C
  C19      1.0000 0.50420  0.97800  0.50120  Biso   1.000  C
  C20      1.0000 0.68630  0.84440  0.58100  Biso   1.000  C
  C21      1.0000 0.52850  0.88240  0.63720  Biso   1.000  C
  C22      1.0000 0.68210  0.17700  0.24620  Biso   1.000  C
  C23      1.0000 0.65530  0.98120  0.22740  Biso   1.000  C
  C24      1.0000 0.57120  0.09000  0.17200  Biso   1.000  C
  N1       1.0000 0.82990  0.59540  0.99260  Biso   1.000  N
  N2       1.0000 0.63070  0.52700  0.09040  Biso   1.000  N
  N3       1.0000 0.01080  0.46660  0.77640  Biso   1.000  N
  N4       1.0000 0.05624  0.28540  0.68232  Biso   1.000  N
  N5       1.0000 0.41790  0.40460  0.00740  Biso   1.000  N
  N6       1.0000 0.24810  0.47300  0.90960  Biso   1.000  N
  N7       1.0000 0.25380  0.53340  0.22360  Biso   1.000  N
  N8       1.0000 0.02396  0.71460  0.31768  Biso   1.000  N
  N9       1.0000 0.07250  0.09540  0.50740  Biso   1.000  N
  N10      1.0000 0.97110  0.02700  0.40960  Biso   1.000  N
  N11      1.0000 0.03720  0.96660  0.72360  Biso   1.000  N
  N12      1.0000 0.98856  0.78540  0.81768  Biso   1.000  N
  N13      1.0000 0.67530  0.90460  0.49260  Biso   1.000  N
  N14      1.0000 0.40770  0.97300  0.59040  Biso   1.000  N
  N15      1.0000 0.72740  0.03340  0.27640  Biso   1.000  N
  N16      1.0000 0.59164  0.21460  0.18232  Biso   1.000  N
