data_image0
_cell_length_a       15.9253
_cell_length_b       15.9712
_cell_length_c       18.475
_cell_angle_alpha    90
_cell_angle_beta     90
_cell_angle_gamma    90

_symmetry_space_group_name_H-M    P 1
_symmetry_int_tables_number       1

loop_
  _symmetry_equiv_pos_as_xyz
  'x, y, z'

loop_
  _atom_site_label
  _atom_site_occupancy
  _atom_site_fract_x
  _atom_site_fract_y
  _atom_site_fract_z
  _atom_site_thermal_displace_type
  _atom_site_B_iso_or_equiv
  _atom_site_type_symbol
  Co1      1.0000 0.86361  0.68797  0.39903  Biso   1.000  Co
  Co2      1.0000 0.67864  0.99506  0.32506  Biso   1.000  Co
  Co3      1.0000 0.13639  0.81203  0.89903  Biso   1.000  Co
  Co4      1.0000 0.32136  0.50494  0.82506  Biso   1.000  Co
  Co5      1.0000 0.36361  0.31203  0.10097  Biso   1.000  Co
  Co6      1.0000 0.17864  0.00494  0.17494  Biso   1.000  Co
  Co7      1.0000 0.63639  0.18797  0.60097  Biso   1.000  Co
  Co8      1.0000 0.82136  0.49506  0.67494  Biso   1.000  Co
  Co9      1.0000 0.13639  0.31203  0.60097  Biso   1.000  Co
  Co10     1.0000 0.32136  0.00494  0.67494  Biso   1.000  Co
  Co11     1.0000 0.86361  0.18797  0.10097  Biso   1.000  Co
  Co12     1.0000 0.67864  0.49506  0.17494  Biso   1.000  Co
  Co13     1.0000 0.63639  0.68797  0.89903  Biso   1.000  Co
  Co14     1.0000 0.82136  0.99506  0.82506  Biso   1.000  Co
  Co15     1.0000 0.36361  0.81203  0.39903  Biso   1.000  Co
  Co16     1.0000 0.17864  0.50494  0.32506  Biso   1.000  Co
  H1       1.0000 0.94600  0.86900  0.41850  Biso   1.000  H
  H2       1.0000 0.86600  0.99700  0.39000  Biso   1.000  H
  H3       1.0000 0.73130  0.81570  0.35570  Biso   1.000  H
  H4       1.0000 0.91400  0.74810  0.55110  Biso   1.000  H
  H5       1.0000 0.89700  0.66990  0.66520  Biso   1.000  H
  H6       1.0000 0.81930  0.54850  0.50930  Biso   1.000  H
  H7       1.0000 0.98900  0.73940  0.27610  Biso   1.000  H
  H8       1.0000 0.11000  0.66300  0.23890  Biso   1.000  H
  H9       1.0000 0.00580  0.55900  0.39600  Biso   1.000  H
  H10      1.0000 0.59800  0.54800  0.31980  Biso   1.000  H
  H11      1.0000 0.67100  0.63400  0.41400  Biso   1.000  H
  H12      1.0000 0.82170  0.58380  0.26540  Biso   1.000  H
  H13      1.0000 0.05400  0.63100  0.91850  Biso   1.000  H
  H14      1.0000 0.13400  0.50300  0.89000  Biso   1.000  H
  H15      1.0000 0.26870  0.68430  0.85570  Biso   1.000  H
  H16      1.0000 0.08600  0.75190  0.05110  Biso   1.000  H
  H17      1.0000 0.10300  0.83010  0.16520  Biso   1.000  H
  H18      1.0000 0.18070  0.95150  0.00930  Biso   1.000  H
  H19      1.0000 0.01100  0.76060  0.77610  Biso   1.000  H
  H20      1.0000 0.89000  0.83700  0.73890  Biso   1.000  H
  H21      1.0000 0.99420  0.94100  0.89600  Biso   1.000  H
  H22      1.0000 0.40200  0.95200  0.81980  Biso   1.000  H
  H23      1.0000 0.32900  0.86600  0.91400  Biso   1.000  H
  H24      1.0000 0.17830  0.91620  0.76540  Biso   1.000  H
  H25      1.0000 0.44600  0.13100  0.08150  Biso   1.000  H
  H26      1.0000 0.36600  0.00300  0.11000  Biso   1.000  H
  H27      1.0000 0.23130  0.18430  0.14430  Biso   1.000  H
  H28      1.0000 0.41400  0.25190  0.94890  Biso   1.000  H
  H29      1.0000 0.39700  0.33010  0.83480  Biso   1.000  H
  H30      1.0000 0.31930  0.45150  0.99070  Biso   1.000  H
  H31      1.0000 0.48900  0.26060  0.22390  Biso   1.000  H
  H32      1.0000 0.61000  0.33700  0.26110  Biso   1.000  H
  H33      1.0000 0.50580  0.44100  0.10400  Biso   1.000  H
  H34      1.0000 0.09800  0.45200  0.18020  Biso   1.000  H
  H35      1.0000 0.17100  0.36600  0.08600  Biso   1.000  H
  H36      1.0000 0.32170  0.41620  0.23460  Biso   1.000  H
  H37      1.0000 0.55400  0.36900  0.58150  Biso   1.000  H
  H38      1.0000 0.63400  0.49700  0.61000  Biso   1.000  H
  H39      1.0000 0.76870  0.31570  0.64430  Biso   1.000  H
  H40      1.0000 0.58600  0.24810  0.44890  Biso   1.000  H
  H41      1.0000 0.60300  0.16990  0.33480  Biso   1.000  H
  H42      1.0000 0.68070  0.04850  0.49070  Biso   1.000  H
  H43      1.0000 0.51100  0.23940  0.72390  Biso   1.000  H
  H44      1.0000 0.39000  0.16300  0.76110  Biso   1.000  H
  H45      1.0000 0.49420  0.05900  0.60400  Biso   1.000  H
  H46      1.0000 0.90200  0.04800  0.68020  Biso   1.000  H
  H47      1.0000 0.82900  0.13400  0.58600  Biso   1.000  H
  H48      1.0000 0.67830  0.08380  0.73460  Biso   1.000  H
  H49      1.0000 0.05400  0.13100  0.58150  Biso   1.000  H
  H50      1.0000 0.13400  0.00300  0.61000  Biso   1.000  H
  H51      1.0000 0.26870  0.18430  0.64430  Biso   1.000  H
  H52      1.0000 0.08600  0.25190  0.44890  Biso   1.000  H
  H53      1.0000 0.10300  0.33010  0.33480  Biso   1.000  H
  H54      1.0000 0.18070  0.45150  0.49070  Biso   1.000  H
  H55      1.0000 0.01100  0.26060  0.72390  Biso   1.000  H
  H56      1.0000 0.89000  0.33700  0.76110  Biso   1.000  H
  H57      1.0000 0.99420  0.44100  0.60400  Biso   1.000  H
  H58      1.0000 0.40200  0.45200  0.68020  Biso   1.000  H
  H59      1.0000 0.32900  0.36600  0.58600  Biso   1.000  H
  H60      1.0000 0.17830  0.41620  0.73460  Biso   1.000  H
  H61      1.0000 0.94600  0.36900  0.08150  Biso   1.000  H
  H62      1.0000 0.86600  0.49700  0.11000  Biso   1.000  H
  H63      1.0000 0.73130  0.31570  0.14430  Biso   1.000  H
  H64      1.0000 0.91400  0.24810  0.94890  Biso   1.000  H
  H65      1.0000 0.89700  0.16990  0.83480  Biso   1.000  H
  H66      1.0000 0.81930  0.04850  0.99070  Biso   1.000  H
  H67      1.0000 0.98900  0.23940  0.22390  Biso   1.000  H
  H68      1.0000 0.11000  0.16300  0.26110  Biso   1.000  H
  H69      1.0000 0.00580  0.05900  0.10400  Biso   1.000  H
  H70      1.0000 0.59800  0.04800  0.18020  Biso   1.000  H
  H71      1.0000 0.67100  0.13400  0.08600  Biso   1.000  H
  H72      1.0000 0.82170  0.08380  0.23460  Biso   1.000  H
  H73      1.0000 0.55400  0.86900  0.91850  Biso   1.000  H
  H74      1.0000 0.63400  0.99700  0.89000  Biso   1.000  H
  H75      1.0000 0.76870  0.81570  0.85570  Biso   1.000  H
  H76      1.0000 0.58600  0.74810  0.05110  Biso   1.000  H
  H77      1.0000 0.60300  0.66990  0.16520  Biso   1.000  H
  H78      1.0000 0.68070  0.54850  0.00930  Biso   1.000  H
  H79      1.0000 0.51100  0.73940  0.77610  Biso   1.000  H
  H80      1.0000 0.39000  0.66300  0.73890  Biso   1.000  H
  H81      1.0000 0.49420  0.55900  0.89600  Biso   1.000  H
  H82      1.0000 0.90200  0.54800  0.81980  Biso   1.000  H
  H83      1.0000 0.82900  0.63400  0.91400  Biso   1.000  H
  H84      1.0000 0.67830  0.58380  0.76540  Biso   1.000  H
  H85      1.0000 0.44600  0.63100  0.41850  Biso   1.000  H
  H86      1.0000 0.36600  0.50300  0.39000  Biso   1.000  H
  H87      1.0000 0.23130  0.68430  0.35570  Biso   1.000  H
  H88      1.0000 0.41400  0.75190  0.55110  Biso   1.000  H
  H89      1.0000 0.39700  0.83010  0.66520  Biso   1.000  H
  H90      1.0000 0.31930  0.95150  0.50930  Biso   1.000  H
  H91      1.0000 0.48900  0.76060  0.27610  Biso   1.000  H
  H92      1.0000 0.61000  0.83700  0.23890  Biso   1.000  H
  H93      1.0000 0.50580  0.94100  0.39600  Biso   1.000  H
  H94      1.0000 0.09800  0.95200  0.31980  Biso   1.000  H
  H95      1.0000 0.17100  0.86600  0.41400  Biso   1.000  H
  H96      1.0000 0.32170  0.91620  0.26540  Biso   1.000  H
  C1       1.0000 0.89450  0.87780  0.39930  Biso   1.000  C
  C2       1.0000 0.85050  0.94730  0.38370  Biso   1.000  C
  C3       1.0000 0.77470  0.84410  0.36420  Biso   1.000  C
  C4       1.0000 0.89350  0.70370  0.55930  Biso   1.000  C
  C5       1.0000 0.88540  0.66030  0.62070  Biso   1.000  C
  C6       1.0000 0.83980  0.58860  0.53520  Biso   1.000  C
  C7       1.0000 0.00710  0.69420  0.29210  Biso   1.000  C
  C8       1.0000 0.07370  0.65040  0.27150  Biso   1.000  C
  C9       1.0000 0.01880  0.59130  0.35980  Biso   1.000  C
  C10      1.0000 0.64960  0.56930  0.32270  Biso   1.000  C
  C11      1.0000 0.68990  0.61380  0.37320  Biso   1.000  C
  C12      1.0000 0.77340  0.58610  0.28910  Biso   1.000  C
  C13      1.0000 0.10550  0.62220  0.89930  Biso   1.000  C
  C14      1.0000 0.14950  0.55270  0.88370  Biso   1.000  C
  C15      1.0000 0.22530  0.65590  0.86420  Biso   1.000  C
  C16      1.0000 0.10650  0.79630  0.05930  Biso   1.000  C
  C17      1.0000 0.11460  0.83970  0.12070  Biso   1.000  C
  C18      1.0000 0.16020  0.91140  0.03520  Biso   1.000  C
  C19      1.0000 0.99290  0.80580  0.79210  Biso   1.000  C
  C20      1.0000 0.92630  0.84960  0.77150  Biso   1.000  C
  C21      1.0000 0.98120  0.90870  0.85980  Biso   1.000  C
  C22      1.0000 0.35040  0.93070  0.82270  Biso   1.000  C
  C23      1.0000 0.31010  0.88620  0.87320  Biso   1.000  C
  C24      1.0000 0.22660  0.91390  0.78910  Biso   1.000  C
  C25      1.0000 0.39450  0.12220  0.10070  Biso   1.000  C
  C26      1.0000 0.35050  0.05270  0.11630  Biso   1.000  C
  C27      1.0000 0.27470  0.15590  0.13580  Biso   1.000  C
  C28      1.0000 0.39350  0.29630  0.94070  Biso   1.000  C
  C29      1.0000 0.38540  0.33970  0.87930  Biso   1.000  C
  C30      1.0000 0.33980  0.41140  0.96480  Biso   1.000  C
  C31      1.0000 0.50710  0.30580  0.20790  Biso   1.000  C
  C32      1.0000 0.57370  0.34960  0.22850  Biso   1.000  C
  C33      1.0000 0.51880  0.40870  0.14020  Biso   1.000  C
  C34      1.0000 0.14960  0.43070  0.17730  Biso   1.000  C
  C35      1.0000 0.18990  0.38620  0.12680  Biso   1.000  C
  C36      1.0000 0.27340  0.41390  0.21090  Biso   1.000  C
  C37      1.0000 0.60550  0.37780  0.60070  Biso   1.000  C
  C38      1.0000 0.64950  0.44730  0.61630  Biso   1.000  C
  C39      1.0000 0.72530  0.34410  0.63580  Biso   1.000  C
  C40      1.0000 0.60650  0.20370  0.44070  Biso   1.000  C
  C41      1.0000 0.61460  0.16030  0.37930  Biso   1.000  C
  C42      1.0000 0.66020  0.08860  0.46480  Biso   1.000  C
  C43      1.0000 0.49290  0.19420  0.70790  Biso   1.000  C
  C44      1.0000 0.42630  0.15040  0.72850  Biso   1.000  C
  C45      1.0000 0.48120  0.09130  0.64020  Biso   1.000  C
  C46      1.0000 0.85040  0.06930  0.67730  Biso   1.000  C
  C47      1.0000 0.81010  0.11380  0.62680  Biso   1.000  C
  C48      1.0000 0.72660  0.08610  0.71090  Biso   1.000  C
  C49      1.0000 0.10550  0.12220  0.60070  Biso   1.000  C
  C50      1.0000 0.14950  0.05270  0.61630  Biso   1.000  C
  C51      1.0000 0.22530  0.15590  0.63580  Biso   1.000  C
  C52      1.0000 0.10650  0.29630  0.44070  Biso   1.000  C
  C53      1.0000 0.11460  0.33970  0.37930  Biso   1.000  C
  C54      1.0000 0.16020  0.41140  0.46480  Biso   1.000  C
  C55      1.0000 0.99290  0.30580  0.70790  Biso   1.000  C
  C56      1.0000 0.92630  0.34960  0.72850  Biso   1.000  C
  C57      1.0000 0.98120  0.40870  0.64020  Biso   1.000  C
  C58      1.0000 0.35040  0.43070  0.67730  Biso   1.000  C
  C59      1.0000 0.31010  0.38620  0.62680  Biso   1.000  C
  C60      1.0000 0.22660  0.41390  0.71090  Biso   1.000  C
  C61      1.0000 0.89450  0.37780  0.10070  Biso   1.000  C
  C62      1.0000 0.85050  0.44730  0.11630  Biso   1.000  C
  C63      1.0000 0.77470  0.34410  0.13580  Biso   1.000  C
  C64      1.0000 0.89350  0.20370  0.94070  Biso   1.000  C
  C65      1.0000 0.88540  0.16030  0.87930  Biso   1.000  C
  C66      1.0000 0.83980  0.08860  0.96480  Biso   1.000  C
  C67      1.0000 0.00710  0.19420  0.20790  Biso   1.000  C
  C68      1.0000 0.07370  0.15040  0.22850  Biso   1.000  C
  C69      1.0000 0.01880  0.09130  0.14020  Biso   1.000  C
  C70      1.0000 0.64960  0.06930  0.17730  Biso   1.000  C
  C71      1.0000 0.68990  0.11380  0.12680  Biso   1.000  C
  C72      1.0000 0.77340  0.08610  0.21090  Biso   1.000  C
  C73      1.0000 0.60550  0.87780  0.89930  Biso   1.000  C
  C74      1.0000 0.64950  0.94730  0.88370  Biso   1.000  C
  C75      1.0000 0.72530  0.84410  0.86420  Biso   1.000  C
  C76      1.0000 0.60650  0.70370  0.05930  Biso   1.000  C
  C77      1.0000 0.61460  0.66030  0.12070  Biso   1.000  C
  C78      1.0000 0.66020  0.58860  0.03520  Biso   1.000  C
  C79      1.0000 0.49290  0.69420  0.79210  Biso   1.000  C
  C80      1.0000 0.42630  0.65040  0.77150  Biso   1.000  C
  C81      1.0000 0.48120  0.59130  0.85980  Biso   1.000  C
  C82      1.0000 0.85040  0.56930  0.82270  Biso   1.000  C
  C83      1.0000 0.81010  0.61380  0.87320  Biso   1.000  C
  C84      1.0000 0.72660  0.58610  0.78910  Biso   1.000  C
  C85      1.0000 0.39450  0.62220  0.39930  Biso   1.000  C
  C86      1.0000 0.35050  0.55270  0.38370  Biso   1.000  C
  C87      1.0000 0.27470  0.65590  0.36420  Biso   1.000  C
  C88      1.0000 0.39350  0.79630  0.55930  Biso   1.000  C
  C89      1.0000 0.38540  0.83970  0.62070  Biso   1.000  C
  C90      1.0000 0.33980  0.91140  0.53520  Biso   1.000  C
  C91      1.0000 0.50710  0.80580  0.29210  Biso   1.000  C
  C92      1.0000 0.57370  0.84960  0.27150  Biso   1.000  C
  C93      1.0000 0.51880  0.90870  0.35980  Biso   1.000  C
  C94      1.0000 0.14960  0.93070  0.32270  Biso   1.000  C
  C95      1.0000 0.18990  0.88620  0.37320  Biso   1.000  C
  C96      1.0000 0.27340  0.91390  0.28910  Biso   1.000  C
  N1       1.0000 0.84470  0.80966  0.38728  Biso   1.000  N
  N2       1.0000 0.77360  0.92712  0.36055  Biso   1.000  N
  N3       1.0000 0.86578  0.65787  0.50230  Biso   1.000  N
  N4       1.0000 0.85012  0.58465  0.60548  Biso   1.000  N
  N5       1.0000 0.96900  0.65693  0.34906  Biso   1.000  N
  N6       1.0000 0.08258  0.58358  0.31564  Biso   1.000  N
  N7       1.0000 0.70260  0.55027  0.26825  Biso   1.000  N
  N8       1.0000 0.77050  0.62563  0.35241  Biso   1.000  N
  N9       1.0000 0.15530  0.69034  0.88728  Biso   1.000  N
  N10      1.0000 0.22640  0.57288  0.86055  Biso   1.000  N
  N11      1.0000 0.13422  0.84213  0.00230  Biso   1.000  N
  N12      1.0000 0.14988  0.91535  0.10548  Biso   1.000  N
  N13      1.0000 0.03100  0.84307  0.84906  Biso   1.000  N
  N14      1.0000 0.91742  0.91642  0.81564  Biso   1.000  N
  N15      1.0000 0.29740  0.94973  0.76825  Biso   1.000  N
  N16      1.0000 0.22950  0.87437  0.85241  Biso   1.000  N
  N17      1.0000 0.34470  0.19034  0.11272  Biso   1.000  N
  N18      1.0000 0.27360  0.07288  0.13945  Biso   1.000  N
  N19      1.0000 0.36578  0.34213  0.99770  Biso   1.000  N
  N20      1.0000 0.35012  0.41535  0.89452  Biso   1.000  N
  N21      1.0000 0.46900  0.34307  0.15094  Biso   1.000  N
  N22      1.0000 0.58258  0.41642  0.18436  Biso   1.000  N
  N23      1.0000 0.20260  0.44973  0.23175  Biso   1.000  N
  N24      1.0000 0.27050  0.37437  0.14759  Biso   1.000  N
  N25      1.0000 0.65530  0.30966  0.61272  Biso   1.000  N
  N26      1.0000 0.72640  0.42712  0.63945  Biso   1.000  N
  N27      1.0000 0.63422  0.15787  0.49770  Biso   1.000  N
  N28      1.0000 0.64988  0.08465  0.39452  Biso   1.000  N
  N29      1.0000 0.53100  0.15693  0.65094  Biso   1.000  N
  N30      1.0000 0.41742  0.08358  0.68436  Biso   1.000  N
  N31      1.0000 0.79740  0.05027  0.73175  Biso   1.000  N
  N32      1.0000 0.72950  0.12563  0.64759  Biso   1.000  N
  N33      1.0000 0.15530  0.19034  0.61272  Biso   1.000  N
  N34      1.0000 0.22640  0.07288  0.63945  Biso   1.000  N
  N35      1.0000 0.13422  0.34213  0.49770  Biso   1.000  N
  N36      1.0000 0.14988  0.41535  0.39452  Biso   1.000  N
  N37      1.0000 0.03100  0.34307  0.65094  Biso   1.000  N
  N38      1.0000 0.91742  0.41642  0.68436  Biso   1.000  N
  N39      1.0000 0.29740  0.44973  0.73175  Biso   1.000  N
  N40      1.0000 0.22950  0.37437  0.64759  Biso   1.000  N
  N41      1.0000 0.84470  0.30966  0.11272  Biso   1.000  N
  N42      1.0000 0.77360  0.42712  0.13945  Biso   1.000  N
  N43      1.0000 0.86578  0.15787  0.99770  Biso   1.000  N
  N44      1.0000 0.85012  0.08465  0.89452  Biso   1.000  N
  N45      1.0000 0.96900  0.15693  0.15094  Biso   1.000  N
  N46      1.0000 0.08258  0.08358  0.18436  Biso   1.000  N
  N47      1.0000 0.70260  0.05027  0.23175  Biso   1.000  N
  N48      1.0000 0.77050  0.12563  0.14759  Biso   1.000  N
  N49      1.0000 0.65530  0.80966  0.88728  Biso   1.000  N
  N50      1.0000 0.72640  0.92712  0.86055  Biso   1.000  N
  N51      1.0000 0.63422  0.65787  0.00230  Biso   1.000  N
  N52      1.0000 0.64988  0.58465  0.10548  Biso   1.000  N
  N53      1.0000 0.53100  0.65693  0.84906  Biso   1.000  N
  N54      1.0000 0.41742  0.58358  0.81564  Biso   1.000  N
  N55      1.0000 0.79740  0.55027  0.76825  Biso   1.000  N
  N56      1.0000 0.72950  0.62563  0.85241  Biso   1.000  N
  N57      1.0000 0.34470  0.69034  0.38728  Biso   1.000  N
  N58      1.0000 0.27360  0.57288  0.36055  Biso   1.000  N
  N59      1.0000 0.36578  0.84213  0.50230  Biso   1.000  N
  N60      1.0000 0.35012  0.91535  0.60548  Biso   1.000  N
  N61      1.0000 0.46900  0.84307  0.34906  Biso   1.000  N
  N62      1.0000 0.58258  0.91642  0.31564  Biso   1.000  N
  N63      1.0000 0.20260  0.94973  0.26825  Biso   1.000  N
  N64      1.0000 0.27050  0.87437  0.35241  Biso   1.000  N
