data_image0
_cell_length_a       8.5389
_cell_length_b       17.2009
_cell_length_c       17.2009
_cell_angle_alpha    90
_cell_angle_beta     90
_cell_angle_gamma    90

_symmetry_space_group_name_H-M    P 1
_symmetry_int_tables_number       1

loop_
  _symmetry_equiv_pos_as_xyz
  'x, y, z'

loop_
  _atom_site_label
  _atom_site_occupancy
  _atom_site_fract_x
  _atom_site_fract_y
  _atom_site_fract_z
  _atom_site_thermal_displace_type
  _atom_site_B_iso_or_equiv
  _atom_site_type_symbol
  Eu1      1.0000 0.15047  0.96304  0.11061  Biso   1.000  Eu
  Eu2      1.0000 0.15047  0.03696  0.88939  Biso   1.000  Eu
  Eu3      1.0000 0.84953  0.11061  0.03696  Biso   1.000  Eu
  Eu4      1.0000 0.84953  0.88939  0.96304  Biso   1.000  Eu
  Eu5      1.0000 0.34953  0.53696  0.61061  Biso   1.000  Eu
  Eu6      1.0000 0.34953  0.46304  0.38939  Biso   1.000  Eu
  Eu7      1.0000 0.65047  0.38939  0.53696  Biso   1.000  Eu
  Eu8      1.0000 0.65047  0.61061  0.46304  Biso   1.000  Eu
  H1       1.0000 0.44400  0.23620  0.24800  Biso   1.000  H
  H2       1.0000 0.67650  0.16740  0.43830  Biso   1.000  H
  H3       1.0000 0.74230  0.05220  0.37720  Biso   1.000  H
  H4       1.0000 0.65170  0.02670  0.25260  Biso   1.000  H
  H5       1.0000 0.20100  0.10900  0.04000  Biso   1.000  H
  H6       1.0000 0.24100  0.88600  0.27500  Biso   1.000  H
  H7       1.0000 0.37800  0.92100  0.23100  Biso   1.000  H
  H8       1.0000 0.44400  0.76380  0.75200  Biso   1.000  H
  H9       1.0000 0.67650  0.83260  0.56170  Biso   1.000  H
  H10      1.0000 0.74230  0.94780  0.62280  Biso   1.000  H
  H11      1.0000 0.65170  0.97330  0.74740  Biso   1.000  H
  H12      1.0000 0.20100  0.89100  0.96000  Biso   1.000  H
  H13      1.0000 0.24100  0.11400  0.72500  Biso   1.000  H
  H14      1.0000 0.37800  0.07900  0.76900  Biso   1.000  H
  H15      1.0000 0.55600  0.24800  0.76380  Biso   1.000  H
  H16      1.0000 0.32350  0.43830  0.83260  Biso   1.000  H
  H17      1.0000 0.25770  0.37720  0.94780  Biso   1.000  H
  H18      1.0000 0.34830  0.25260  0.97330  Biso   1.000  H
  H19      1.0000 0.79900  0.04000  0.89100  Biso   1.000  H
  H20      1.0000 0.75900  0.27500  0.11400  Biso   1.000  H
  H21      1.0000 0.62200  0.23100  0.07900  Biso   1.000  H
  H22      1.0000 0.55600  0.75200  0.23620  Biso   1.000  H
  H23      1.0000 0.32350  0.56170  0.16740  Biso   1.000  H
  H24      1.0000 0.25770  0.62280  0.05220  Biso   1.000  H
  H25      1.0000 0.34830  0.74740  0.02670  Biso   1.000  H
  H26      1.0000 0.79900  0.96000  0.10900  Biso   1.000  H
  H27      1.0000 0.75900  0.72500  0.88600  Biso   1.000  H
  H28      1.0000 0.62200  0.76900  0.92100  Biso   1.000  H
  H29      1.0000 0.05600  0.26380  0.74800  Biso   1.000  H
  H30      1.0000 0.82350  0.33260  0.93830  Biso   1.000  H
  H31      1.0000 0.75770  0.44780  0.87720  Biso   1.000  H
  H32      1.0000 0.84830  0.47330  0.75260  Biso   1.000  H
  H33      1.0000 0.29900  0.39100  0.54000  Biso   1.000  H
  H34      1.0000 0.25900  0.61400  0.77500  Biso   1.000  H
  H35      1.0000 0.12200  0.57900  0.73100  Biso   1.000  H
  H36      1.0000 0.05600  0.73620  0.25200  Biso   1.000  H
  H37      1.0000 0.82350  0.66740  0.06170  Biso   1.000  H
  H38      1.0000 0.75770  0.55220  0.12280  Biso   1.000  H
  H39      1.0000 0.84830  0.52670  0.24740  Biso   1.000  H
  H40      1.0000 0.29900  0.60900  0.46000  Biso   1.000  H
  H41      1.0000 0.25900  0.38600  0.22500  Biso   1.000  H
  H42      1.0000 0.12200  0.42100  0.26900  Biso   1.000  H
  H43      1.0000 0.94400  0.25200  0.26380  Biso   1.000  H
  H44      1.0000 0.17650  0.06170  0.33260  Biso   1.000  H
  H45      1.0000 0.24230  0.12280  0.44780  Biso   1.000  H
  H46      1.0000 0.15170  0.24740  0.47330  Biso   1.000  H
  H47      1.0000 0.70100  0.46000  0.39100  Biso   1.000  H
  H48      1.0000 0.74100  0.22500  0.61400  Biso   1.000  H
  H49      1.0000 0.87800  0.26900  0.57900  Biso   1.000  H
  H50      1.0000 0.94400  0.74800  0.73620  Biso   1.000  H
  H51      1.0000 0.17650  0.93830  0.66740  Biso   1.000  H
  H52      1.0000 0.24230  0.87720  0.55220  Biso   1.000  H
  H53      1.0000 0.15170  0.75260  0.52670  Biso   1.000  H
  H54      1.0000 0.70100  0.54000  0.60900  Biso   1.000  H
  H55      1.0000 0.74100  0.77500  0.38600  Biso   1.000  H
  H56      1.0000 0.87800  0.73100  0.42100  Biso   1.000  H
  C1       1.0000 0.54140  0.12905  0.23851  Biso   1.000  C
  C2       1.0000 0.50300  0.19907  0.27430  Biso   1.000  C
  C3       1.0000 0.55370  0.21270  0.34950  Biso   1.000  C
  C4       1.0000 0.50970  0.28687  0.39010  Biso   1.000  C
  C5       1.0000 0.64240  0.15790  0.38790  Biso   1.000  C
  C6       1.0000 0.68100  0.08870  0.35150  Biso   1.000  C
  C7       1.0000 0.62840  0.07367  0.27670  Biso   1.000  C
  C8       1.0000 0.54140  0.87095  0.76149  Biso   1.000  C
  C9       1.0000 0.50300  0.80093  0.72570  Biso   1.000  C
  C10      1.0000 0.55370  0.78730  0.65050  Biso   1.000  C
  C11      1.0000 0.50970  0.71313  0.60990  Biso   1.000  C
  C12      1.0000 0.64240  0.84210  0.61210  Biso   1.000  C
  C13      1.0000 0.68100  0.91130  0.64850  Biso   1.000  C
  C14      1.0000 0.62840  0.92633  0.72330  Biso   1.000  C
  C15      1.0000 0.45860  0.23851  0.87095  Biso   1.000  C
  C16      1.0000 0.49700  0.27430  0.80093  Biso   1.000  C
  C17      1.0000 0.44630  0.34950  0.78730  Biso   1.000  C
  C18      1.0000 0.49030  0.39010  0.71313  Biso   1.000  C
  C19      1.0000 0.35760  0.38790  0.84210  Biso   1.000  C
  C20      1.0000 0.31900  0.35150  0.91130  Biso   1.000  C
  C21      1.0000 0.37160  0.27670  0.92633  Biso   1.000  C
  C22      1.0000 0.45860  0.76149  0.12905  Biso   1.000  C
  C23      1.0000 0.49700  0.72570  0.19907  Biso   1.000  C
  C24      1.0000 0.44630  0.65050  0.21270  Biso   1.000  C
  C25      1.0000 0.49030  0.60990  0.28687  Biso   1.000  C
  C26      1.0000 0.35760  0.61210  0.15790  Biso   1.000  C
  C27      1.0000 0.31900  0.64850  0.08870  Biso   1.000  C
  C28      1.0000 0.37160  0.72330  0.07367  Biso   1.000  C
  C29      1.0000 0.95860  0.37095  0.73851  Biso   1.000  C
  C30      1.0000 0.99700  0.30093  0.77430  Biso   1.000  C
  C31      1.0000 0.94630  0.28730  0.84950  Biso   1.000  C
  C32      1.0000 0.99030  0.21313  0.89010  Biso   1.000  C
  C33      1.0000 0.85760  0.34210  0.88790  Biso   1.000  C
  C34      1.0000 0.81900  0.41130  0.85150  Biso   1.000  C
  C35      1.0000 0.87160  0.42633  0.77670  Biso   1.000  C
  C36      1.0000 0.95860  0.62905  0.26149  Biso   1.000  C
  C37      1.0000 0.99700  0.69907  0.22570  Biso   1.000  C
  C38      1.0000 0.94630  0.71270  0.15050  Biso   1.000  C
  C39      1.0000 0.99030  0.78687  0.10990  Biso   1.000  C
  C40      1.0000 0.85760  0.65790  0.11210  Biso   1.000  C
  C41      1.0000 0.81900  0.58870  0.14850  Biso   1.000  C
  C42      1.0000 0.87160  0.57367  0.22330  Biso   1.000  C
  C43      1.0000 0.04140  0.26149  0.37095  Biso   1.000  C
  C44      1.0000 0.00300  0.22570  0.30093  Biso   1.000  C
  C45      1.0000 0.05370  0.15050  0.28730  Biso   1.000  C
  C46      1.0000 0.00970  0.10990  0.21313  Biso   1.000  C
  C47      1.0000 0.14240  0.11210  0.34210  Biso   1.000  C
  C48      1.0000 0.18100  0.14850  0.41130  Biso   1.000  C
  C49      1.0000 0.12840  0.22330  0.42633  Biso   1.000  C
  C50      1.0000 0.04140  0.73851  0.62905  Biso   1.000  C
  C51      1.0000 0.00300  0.77430  0.69907  Biso   1.000  C
  C52      1.0000 0.05370  0.84950  0.71270  Biso   1.000  C
  C53      1.0000 0.00970  0.89010  0.78687  Biso   1.000  C
  C54      1.0000 0.14240  0.88790  0.65790  Biso   1.000  C
  C55      1.0000 0.18100  0.85150  0.58870  Biso   1.000  C
  C56      1.0000 0.12840  0.77670  0.57367  Biso   1.000  C
  S1       1.0000 0.47619  0.10829  0.14323  Biso   1.000  S
  S2       1.0000 0.47619  0.89171  0.85677  Biso   1.000  S
  S3       1.0000 0.52381  0.14323  0.89171  Biso   1.000  S
  S4       1.0000 0.52381  0.85677  0.10829  Biso   1.000  S
  S5       1.0000 0.02381  0.39171  0.64323  Biso   1.000  S
  S6       1.0000 0.02381  0.60829  0.35677  Biso   1.000  S
  S7       1.0000 0.97619  0.35677  0.39171  Biso   1.000  S
  S8       1.0000 0.97619  0.64323  0.60829  Biso   1.000  S
  O1       1.0000 0.35340  0.05071  0.15149  Biso   1.000  O
  O2       1.0000 0.61240  0.07563  0.10369  Biso   1.000  O
  O3       1.0000 0.41910  0.17954  0.10865  Biso   1.000  O
  O4       1.0000 0.45700  0.34153  0.35072  Biso   1.000  O
  O5       1.0000 0.53050  0.28935  0.46328  Biso   1.000  O
  O6       1.0000 0.12140  0.07366  0.02580  Biso   1.000  O
  O7       1.0000 0.26760  0.92110  0.23696  Biso   1.000  O
  O8       1.0000 0.35340  0.94929  0.84851  Biso   1.000  O
  O9       1.0000 0.61240  0.92437  0.89631  Biso   1.000  O
  O10      1.0000 0.41910  0.82046  0.89135  Biso   1.000  O
  O11      1.0000 0.45700  0.65847  0.64928  Biso   1.000  O
  O12      1.0000 0.53050  0.71065  0.53672  Biso   1.000  O
  O13      1.0000 0.12140  0.92634  0.97420  Biso   1.000  O
  O14      1.0000 0.26760  0.07890  0.76304  Biso   1.000  O
  O15      1.0000 0.64660  0.15149  0.94929  Biso   1.000  O
  O16      1.0000 0.38760  0.10369  0.92437  Biso   1.000  O
  O17      1.0000 0.58090  0.10865  0.82046  Biso   1.000  O
  O18      1.0000 0.54300  0.35072  0.65847  Biso   1.000  O
  O19      1.0000 0.46950  0.46328  0.71065  Biso   1.000  O
  O20      1.0000 0.87860  0.02580  0.92634  Biso   1.000  O
  O21      1.0000 0.73240  0.23696  0.07890  Biso   1.000  O
  O22      1.0000 0.64660  0.84851  0.05071  Biso   1.000  O
  O23      1.0000 0.38760  0.89631  0.07563  Biso   1.000  O
  O24      1.0000 0.58090  0.89135  0.17954  Biso   1.000  O
  O25      1.0000 0.54300  0.64928  0.34153  Biso   1.000  O
  O26      1.0000 0.46950  0.53672  0.28935  Biso   1.000  O
  O27      1.0000 0.87860  0.97420  0.07366  Biso   1.000  O
  O28      1.0000 0.73240  0.76304  0.92110  Biso   1.000  O
  O29      1.0000 0.14660  0.44929  0.65149  Biso   1.000  O
  O30      1.0000 0.88760  0.42437  0.60369  Biso   1.000  O
  O31      1.0000 0.08090  0.32046  0.60865  Biso   1.000  O
  O32      1.0000 0.04300  0.15847  0.85072  Biso   1.000  O
  O33      1.0000 0.96950  0.21065  0.96328  Biso   1.000  O
  O34      1.0000 0.37860  0.42634  0.52580  Biso   1.000  O
  O35      1.0000 0.23240  0.57890  0.73696  Biso   1.000  O
  O36      1.0000 0.14660  0.55071  0.34851  Biso   1.000  O
  O37      1.0000 0.88760  0.57563  0.39631  Biso   1.000  O
  O38      1.0000 0.08090  0.67954  0.39135  Biso   1.000  O
  O39      1.0000 0.04300  0.84153  0.14928  Biso   1.000  O
  O40      1.0000 0.96950  0.78935  0.03672  Biso   1.000  O
  O41      1.0000 0.37860  0.57366  0.47420  Biso   1.000  O
  O42      1.0000 0.23240  0.42110  0.26304  Biso   1.000  O
  O43      1.0000 0.85340  0.34851  0.44929  Biso   1.000  O
  O44      1.0000 0.11240  0.39631  0.42437  Biso   1.000  O
  O45      1.0000 0.91910  0.39135  0.32046  Biso   1.000  O
  O46      1.0000 0.95700  0.14928  0.15847  Biso   1.000  O
  O47      1.0000 0.03050  0.03672  0.21065  Biso   1.000  O
  O48      1.0000 0.62140  0.47420  0.42634  Biso   1.000  O
  O49      1.0000 0.76760  0.26304  0.57890  Biso   1.000  O
  O50      1.0000 0.85340  0.65149  0.55071  Biso   1.000  O
  O51      1.0000 0.11240  0.60369  0.57563  Biso   1.000  O
  O52      1.0000 0.91910  0.60865  0.67954  Biso   1.000  O
  O53      1.0000 0.95700  0.85072  0.84153  Biso   1.000  O
  O54      1.0000 0.03050  0.96328  0.78935  Biso   1.000  O
  O55      1.0000 0.62140  0.52580  0.57366  Biso   1.000  O
  O56      1.0000 0.76760  0.73696  0.42110  Biso   1.000  O
