data_image0
_cell_length_a       8.4672
_cell_length_b       17.1205
_cell_length_c       17.1205
_cell_angle_alpha    90
_cell_angle_beta     90
_cell_angle_gamma    90

_symmetry_space_group_name_H-M    P 1
_symmetry_int_tables_number       1

loop_
  _symmetry_equiv_pos_as_xyz
  'x, y, z'

loop_
  _atom_site_label
  _atom_site_occupancy
  _atom_site_fract_x
  _atom_site_fract_y
  _atom_site_fract_z
  _atom_site_thermal_displace_type
  _atom_site_B_iso_or_equiv
  _atom_site_type_symbol
  Tb1      1.0000 0.14980  0.89018  0.96267  Biso   1.000  Tb
  Tb2      1.0000 0.14980  0.10982  0.03733  Biso   1.000  Tb
  Tb3      1.0000 0.85020  0.96267  0.10982  Biso   1.000  Tb
  Tb4      1.0000 0.85020  0.03733  0.89018  Biso   1.000  Tb
  Tb5      1.0000 0.35020  0.60982  0.46267  Biso   1.000  Tb
  Tb6      1.0000 0.35020  0.39018  0.53733  Biso   1.000  Tb
  Tb7      1.0000 0.64980  0.53733  0.60982  Biso   1.000  Tb
  Tb8      1.0000 0.64980  0.46267  0.39018  Biso   1.000  Tb
  H1       1.0000 0.05310  0.74870  0.73600  Biso   1.000  H
  H2       1.0000 0.82790  0.94140  0.66490  Biso   1.000  H
  H3       1.0000 0.76280  0.87980  0.54880  Biso   1.000  H
  H4       1.0000 0.85540  0.75660  0.52350  Biso   1.000  H
  H5       1.0000 0.22000  0.96600  0.09600  Biso   1.000  H
  H6       1.0000 0.22600  0.72700  0.88500  Biso   1.000  H
  H7       1.0000 0.37600  0.75400  0.92500  Biso   1.000  H
  H8       1.0000 0.05310  0.25130  0.26400  Biso   1.000  H
  H9       1.0000 0.82790  0.05860  0.33510  Biso   1.000  H
  H10      1.0000 0.76280  0.12020  0.45120  Biso   1.000  H
  H11      1.0000 0.85540  0.24340  0.47650  Biso   1.000  H
  H12      1.0000 0.22000  0.03400  0.90400  Biso   1.000  H
  H13      1.0000 0.22600  0.27300  0.11500  Biso   1.000  H
  H14      1.0000 0.37600  0.24600  0.07500  Biso   1.000  H
  H15      1.0000 0.94690  0.73600  0.25130  Biso   1.000  H
  H16      1.0000 0.17210  0.66490  0.05860  Biso   1.000  H
  H17      1.0000 0.23720  0.54880  0.12020  Biso   1.000  H
  H18      1.0000 0.14460  0.52350  0.24340  Biso   1.000  H
  H19      1.0000 0.78000  0.09600  0.03400  Biso   1.000  H
  H20      1.0000 0.77400  0.88500  0.27300  Biso   1.000  H
  H21      1.0000 0.62400  0.92500  0.24600  Biso   1.000  H
  H22      1.0000 0.94690  0.26400  0.74870  Biso   1.000  H
  H23      1.0000 0.17210  0.33510  0.94140  Biso   1.000  H
  H24      1.0000 0.23720  0.45120  0.87980  Biso   1.000  H
  H25      1.0000 0.14460  0.47650  0.75660  Biso   1.000  H
  H26      1.0000 0.78000  0.90400  0.96600  Biso   1.000  H
  H27      1.0000 0.77400  0.11500  0.72700  Biso   1.000  H
  H28      1.0000 0.62400  0.07500  0.75400  Biso   1.000  H
  H29      1.0000 0.44690  0.75130  0.23600  Biso   1.000  H
  H30      1.0000 0.67210  0.55860  0.16490  Biso   1.000  H
  H31      1.0000 0.73720  0.62020  0.04880  Biso   1.000  H
  H32      1.0000 0.64460  0.74340  0.02350  Biso   1.000  H
  H33      1.0000 0.28000  0.53400  0.59600  Biso   1.000  H
  H34      1.0000 0.27400  0.77300  0.38500  Biso   1.000  H
  H35      1.0000 0.12400  0.74600  0.42500  Biso   1.000  H
  H36      1.0000 0.44690  0.24870  0.76400  Biso   1.000  H
  H37      1.0000 0.67210  0.44140  0.83510  Biso   1.000  H
  H38      1.0000 0.73720  0.37980  0.95120  Biso   1.000  H
  H39      1.0000 0.64460  0.25660  0.97650  Biso   1.000  H
  H40      1.0000 0.28000  0.46600  0.40400  Biso   1.000  H
  H41      1.0000 0.27400  0.22700  0.61500  Biso   1.000  H
  H42      1.0000 0.12400  0.25400  0.57500  Biso   1.000  H
  H43      1.0000 0.55310  0.76400  0.75130  Biso   1.000  H
  H44      1.0000 0.32790  0.83510  0.55860  Biso   1.000  H
  H45      1.0000 0.26280  0.95120  0.62020  Biso   1.000  H
  H46      1.0000 0.35540  0.97650  0.74340  Biso   1.000  H
  H47      1.0000 0.72000  0.40400  0.53400  Biso   1.000  H
  H48      1.0000 0.72600  0.61500  0.77300  Biso   1.000  H
  H49      1.0000 0.87600  0.57500  0.74600  Biso   1.000  H
  H50      1.0000 0.55310  0.23600  0.24870  Biso   1.000  H
  H51      1.0000 0.32790  0.16490  0.44140  Biso   1.000  H
  H52      1.0000 0.26280  0.04880  0.37980  Biso   1.000  H
  H53      1.0000 0.35540  0.02350  0.25660  Biso   1.000  H
  H54      1.0000 0.72000  0.59600  0.46600  Biso   1.000  H
  H55      1.0000 0.72600  0.38500  0.22700  Biso   1.000  H
  H56      1.0000 0.87600  0.42500  0.25400  Biso   1.000  H
  C1       1.0000 0.96230  0.74120  0.62700  Biso   1.000  C
  C2       1.0000 0.99790  0.77630  0.69800  Biso   1.000  C
  C3       1.0000 0.95070  0.85260  0.71180  Biso   1.000  C
  C4       1.0000 0.99190  0.89210  0.78640  Biso   1.000  C
  C5       1.0000 0.86240  0.89060  0.65570  Biso   1.000  C
  C6       1.0000 0.82430  0.85400  0.58570  Biso   1.000  C
  C7       1.0000 0.87700  0.78040  0.57110  Biso   1.000  C
  C8       1.0000 0.96230  0.25880  0.37300  Biso   1.000  C
  C9       1.0000 0.99790  0.22370  0.30200  Biso   1.000  C
  C10      1.0000 0.95070  0.14740  0.28820  Biso   1.000  C
  C11      1.0000 0.99190  0.10790  0.21360  Biso   1.000  C
  C12      1.0000 0.86240  0.10940  0.34430  Biso   1.000  C
  C13      1.0000 0.82430  0.14600  0.41430  Biso   1.000  C
  C14      1.0000 0.87700  0.21960  0.42890  Biso   1.000  C
  C15      1.0000 0.03770  0.62700  0.25880  Biso   1.000  C
  C16      1.0000 0.00210  0.69800  0.22370  Biso   1.000  C
  C17      1.0000 0.04930  0.71180  0.14740  Biso   1.000  C
  C18      1.0000 0.00810  0.78640  0.10790  Biso   1.000  C
  C19      1.0000 0.13760  0.65570  0.10940  Biso   1.000  C
  C20      1.0000 0.17570  0.58570  0.14600  Biso   1.000  C
  C21      1.0000 0.12300  0.57110  0.21960  Biso   1.000  C
  C22      1.0000 0.03770  0.37300  0.74120  Biso   1.000  C
  C23      1.0000 0.00210  0.30200  0.77630  Biso   1.000  C
  C24      1.0000 0.04930  0.28820  0.85260  Biso   1.000  C
  C25      1.0000 0.00810  0.21360  0.89210  Biso   1.000  C
  C26      1.0000 0.13760  0.34430  0.89060  Biso   1.000  C
  C27      1.0000 0.17570  0.41430  0.85400  Biso   1.000  C
  C28      1.0000 0.12300  0.42890  0.78040  Biso   1.000  C
  C29      1.0000 0.53770  0.75880  0.12700  Biso   1.000  C
  C30      1.0000 0.50210  0.72370  0.19800  Biso   1.000  C
  C31      1.0000 0.54930  0.64740  0.21180  Biso   1.000  C
  C32      1.0000 0.50810  0.60790  0.28640  Biso   1.000  C
  C33      1.0000 0.63760  0.60940  0.15570  Biso   1.000  C
  C34      1.0000 0.67570  0.64600  0.08570  Biso   1.000  C
  C35      1.0000 0.62300  0.71960  0.07110  Biso   1.000  C
  C36      1.0000 0.53770  0.24120  0.87300  Biso   1.000  C
  C37      1.0000 0.50210  0.27630  0.80200  Biso   1.000  C
  C38      1.0000 0.54930  0.35260  0.78820  Biso   1.000  C
  C39      1.0000 0.50810  0.39210  0.71360  Biso   1.000  C
  C40      1.0000 0.63760  0.39060  0.84430  Biso   1.000  C
  C41      1.0000 0.67570  0.35400  0.91430  Biso   1.000  C
  C42      1.0000 0.62300  0.28040  0.92890  Biso   1.000  C
  C43      1.0000 0.46230  0.87300  0.75880  Biso   1.000  C
  C44      1.0000 0.49790  0.80200  0.72370  Biso   1.000  C
  C45      1.0000 0.45070  0.78820  0.64740  Biso   1.000  C
  C46      1.0000 0.49190  0.71360  0.60790  Biso   1.000  C
  C47      1.0000 0.36240  0.84430  0.60940  Biso   1.000  C
  C48      1.0000 0.32430  0.91430  0.64600  Biso   1.000  C
  C49      1.0000 0.37700  0.92890  0.71960  Biso   1.000  C
  C50      1.0000 0.46230  0.12700  0.24120  Biso   1.000  C
  C51      1.0000 0.49790  0.19800  0.27630  Biso   1.000  C
  C52      1.0000 0.45070  0.21180  0.35260  Biso   1.000  C
  C53      1.0000 0.49190  0.28640  0.39210  Biso   1.000  C
  C54      1.0000 0.36240  0.15570  0.39060  Biso   1.000  C
  C55      1.0000 0.32430  0.08570  0.35400  Biso   1.000  C
  C56      1.0000 0.37700  0.07110  0.28040  Biso   1.000  C
  S1       1.0000 0.02364  0.64386  0.60766  Biso   1.000  S
  S2       1.0000 0.02364  0.35614  0.39234  Biso   1.000  S
  S3       1.0000 0.97636  0.60766  0.35614  Biso   1.000  S
  S4       1.0000 0.97636  0.39234  0.64386  Biso   1.000  S
  S5       1.0000 0.47636  0.85614  0.10766  Biso   1.000  S
  S6       1.0000 0.47636  0.14386  0.89234  Biso   1.000  S
  S7       1.0000 0.52364  0.89234  0.85614  Biso   1.000  S
  S8       1.0000 0.52364  0.10766  0.14386  Biso   1.000  S
  O1       1.0000 0.14700  0.65090  0.54940  Biso   1.000  O
  O2       1.0000 0.88430  0.60480  0.57530  Biso   1.000  O
  O3       1.0000 0.08190  0.60960  0.67950  Biso   1.000  O
  O4       1.0000 0.04380  0.85180  0.84130  Biso   1.000  O
  O5       1.0000 0.96930  0.96610  0.78920  Biso   1.000  O
  O6       1.0000 0.12080  0.97410  0.07250  Biso   1.000  O
  O7       1.0000 0.26570  0.76380  0.92060  Biso   1.000  O
  O8       1.0000 0.14700  0.34910  0.45060  Biso   1.000  O
  O9       1.0000 0.88430  0.39520  0.42470  Biso   1.000  O
  O10      1.0000 0.08190  0.39040  0.32050  Biso   1.000  O
  O11      1.0000 0.04380  0.14820  0.15870  Biso   1.000  O
  O12      1.0000 0.96930  0.03390  0.21080  Biso   1.000  O
  O13      1.0000 0.12080  0.02590  0.92750  Biso   1.000  O
  O14      1.0000 0.26570  0.23620  0.07940  Biso   1.000  O
  O15      1.0000 0.85300  0.54940  0.34910  Biso   1.000  O
  O16      1.0000 0.11570  0.57530  0.39520  Biso   1.000  O
  O17      1.0000 0.91810  0.67950  0.39040  Biso   1.000  O
  O18      1.0000 0.95620  0.84130  0.14820  Biso   1.000  O
  O19      1.0000 0.03070  0.78920  0.03390  Biso   1.000  O
  O20      1.0000 0.87920  0.07250  0.02590  Biso   1.000  O
  O21      1.0000 0.73430  0.92060  0.23620  Biso   1.000  O
  O22      1.0000 0.85300  0.45060  0.65090  Biso   1.000  O
  O23      1.0000 0.11570  0.42470  0.60480  Biso   1.000  O
  O24      1.0000 0.91810  0.32050  0.60960  Biso   1.000  O
  O25      1.0000 0.95620  0.15870  0.85180  Biso   1.000  O
  O26      1.0000 0.03070  0.21080  0.96610  Biso   1.000  O
  O27      1.0000 0.87920  0.92750  0.97410  Biso   1.000  O
  O28      1.0000 0.73430  0.07940  0.76380  Biso   1.000  O
  O29      1.0000 0.35300  0.84910  0.04940  Biso   1.000  O
  O30      1.0000 0.61570  0.89520  0.07530  Biso   1.000  O
  O31      1.0000 0.41810  0.89040  0.17950  Biso   1.000  O
  O32      1.0000 0.45620  0.64820  0.34130  Biso   1.000  O
  O33      1.0000 0.53070  0.53390  0.28920  Biso   1.000  O
  O34      1.0000 0.37920  0.52590  0.57250  Biso   1.000  O
  O35      1.0000 0.23430  0.73620  0.42060  Biso   1.000  O
  O36      1.0000 0.35300  0.15090  0.95060  Biso   1.000  O
  O37      1.0000 0.61570  0.10480  0.92470  Biso   1.000  O
  O38      1.0000 0.41810  0.10960  0.82050  Biso   1.000  O
  O39      1.0000 0.45620  0.35180  0.65870  Biso   1.000  O
  O40      1.0000 0.53070  0.46610  0.71080  Biso   1.000  O
  O41      1.0000 0.37920  0.47410  0.42750  Biso   1.000  O
  O42      1.0000 0.23430  0.26380  0.57940  Biso   1.000  O
  O43      1.0000 0.64700  0.95060  0.84910  Biso   1.000  O
  O44      1.0000 0.38430  0.92470  0.89520  Biso   1.000  O
  O45      1.0000 0.58190  0.82050  0.89040  Biso   1.000  O
  O46      1.0000 0.54380  0.65870  0.64820  Biso   1.000  O
  O47      1.0000 0.46930  0.71080  0.53390  Biso   1.000  O
  O48      1.0000 0.62080  0.42750  0.52590  Biso   1.000  O
  O49      1.0000 0.76570  0.57940  0.73620  Biso   1.000  O
  O50      1.0000 0.64700  0.04940  0.15090  Biso   1.000  O
  O51      1.0000 0.38430  0.07530  0.10480  Biso   1.000  O
  O52      1.0000 0.58190  0.17950  0.10960  Biso   1.000  O
  O53      1.0000 0.54380  0.34130  0.35180  Biso   1.000  O
  O54      1.0000 0.46930  0.28920  0.46610  Biso   1.000  O
  O55      1.0000 0.62080  0.57250  0.47410  Biso   1.000  O
  O56      1.0000 0.76570  0.42060  0.26380  Biso   1.000  O
