data_image0
_cell_length_a       8.5106
_cell_length_b       17.1743
_cell_length_c       17.1743
_cell_angle_alpha    90
_cell_angle_beta     90
_cell_angle_gamma    90

_symmetry_space_group_name_H-M    P 1
_symmetry_int_tables_number       1

loop_
  _symmetry_equiv_pos_as_xyz
  'x, y, z'

loop_
  _atom_site_label
  _atom_site_occupancy
  _atom_site_fract_x
  _atom_site_fract_y
  _atom_site_fract_z
  _atom_site_thermal_displace_type
  _atom_site_B_iso_or_equiv
  _atom_site_type_symbol
  Gd1      1.0000 0.84969  0.03687  0.88971  Biso   1.000  Gd
  Gd2      1.0000 0.84969  0.96313  0.11029  Biso   1.000  Gd
  Gd3      1.0000 0.15031  0.88971  0.96313  Biso   1.000  Gd
  Gd4      1.0000 0.15031  0.11029  0.03687  Biso   1.000  Gd
  Gd5      1.0000 0.65031  0.46313  0.38971  Biso   1.000  Gd
  Gd6      1.0000 0.65031  0.53687  0.61029  Biso   1.000  Gd
  Gd7      1.0000 0.34969  0.61029  0.46313  Biso   1.000  Gd
  Gd8      1.0000 0.34969  0.38971  0.53687  Biso   1.000  Gd
  H1       1.0000 0.55420  0.76380  0.75260  Biso   1.000  H
  H2       1.0000 0.32450  0.83330  0.56080  Biso   1.000  H
  H3       1.0000 0.25950  0.94880  0.62150  Biso   1.000  H
  H4       1.0000 0.35150  0.97480  0.74660  Biso   1.000  H
  H5       1.0000 0.79700  0.89100  0.96100  Biso   1.000  H
  H6       1.0000 0.76500  0.11700  0.72900  Biso   1.000  H
  H7       1.0000 0.62200  0.07800  0.76600  Biso   1.000  H
  H8       1.0000 0.55420  0.23620  0.24740  Biso   1.000  H
  H9       1.0000 0.32450  0.16670  0.43920  Biso   1.000  H
  H10      1.0000 0.25950  0.05120  0.37850  Biso   1.000  H
  H11      1.0000 0.35150  0.02520  0.25340  Biso   1.000  H
  H12      1.0000 0.79700  0.10900  0.03900  Biso   1.000  H
  H13      1.0000 0.76500  0.88300  0.27100  Biso   1.000  H
  H14      1.0000 0.62200  0.92200  0.23400  Biso   1.000  H
  H15      1.0000 0.44580  0.75260  0.23620  Biso   1.000  H
  H16      1.0000 0.67550  0.56080  0.16670  Biso   1.000  H
  H17      1.0000 0.74050  0.62150  0.05120  Biso   1.000  H
  H18      1.0000 0.64850  0.74660  0.02520  Biso   1.000  H
  H19      1.0000 0.20300  0.96100  0.10900  Biso   1.000  H
  H20      1.0000 0.23500  0.72900  0.88300  Biso   1.000  H
  H21      1.0000 0.37800  0.76600  0.92200  Biso   1.000  H
  H22      1.0000 0.44580  0.24740  0.76380  Biso   1.000  H
  H23      1.0000 0.67550  0.43920  0.83330  Biso   1.000  H
  H24      1.0000 0.74050  0.37850  0.94880  Biso   1.000  H
  H25      1.0000 0.64850  0.25340  0.97480  Biso   1.000  H
  H26      1.0000 0.20300  0.03900  0.89100  Biso   1.000  H
  H27      1.0000 0.23500  0.27100  0.11700  Biso   1.000  H
  H28      1.0000 0.37800  0.23400  0.07800  Biso   1.000  H
  H29      1.0000 0.94580  0.73620  0.25260  Biso   1.000  H
  H30      1.0000 0.17550  0.66670  0.06080  Biso   1.000  H
  H31      1.0000 0.24050  0.55120  0.12150  Biso   1.000  H
  H32      1.0000 0.14850  0.52520  0.24660  Biso   1.000  H
  H33      1.0000 0.70300  0.60900  0.46100  Biso   1.000  H
  H34      1.0000 0.73500  0.38300  0.22900  Biso   1.000  H
  H35      1.0000 0.87800  0.42200  0.26600  Biso   1.000  H
  H36      1.0000 0.94580  0.26380  0.74740  Biso   1.000  H
  H37      1.0000 0.17550  0.33330  0.93920  Biso   1.000  H
  H38      1.0000 0.24050  0.44880  0.87850  Biso   1.000  H
  H39      1.0000 0.14850  0.47480  0.75340  Biso   1.000  H
  H40      1.0000 0.70300  0.39100  0.53900  Biso   1.000  H
  H41      1.0000 0.73500  0.61700  0.77100  Biso   1.000  H
  H42      1.0000 0.87800  0.57800  0.73400  Biso   1.000  H
  H43      1.0000 0.05420  0.74740  0.73620  Biso   1.000  H
  H44      1.0000 0.82450  0.93920  0.66670  Biso   1.000  H
  H45      1.0000 0.75950  0.87850  0.55120  Biso   1.000  H
  H46      1.0000 0.85150  0.75340  0.52520  Biso   1.000  H
  H47      1.0000 0.29700  0.53900  0.60900  Biso   1.000  H
  H48      1.0000 0.26500  0.77100  0.38300  Biso   1.000  H
  H49      1.0000 0.12200  0.73400  0.42200  Biso   1.000  H
  H50      1.0000 0.05420  0.25260  0.26380  Biso   1.000  H
  H51      1.0000 0.82450  0.06080  0.33330  Biso   1.000  H
  H52      1.0000 0.75950  0.12150  0.44880  Biso   1.000  H
  H53      1.0000 0.85150  0.24660  0.47480  Biso   1.000  H
  H54      1.0000 0.29700  0.46100  0.39100  Biso   1.000  H
  H55      1.0000 0.26500  0.22900  0.61700  Biso   1.000  H
  H56      1.0000 0.12200  0.26600  0.57800  Biso   1.000  H
  C1       1.0000 0.45830  0.87140  0.76110  Biso   1.000  C
  C2       1.0000 0.49620  0.80110  0.72580  Biso   1.000  C
  C3       1.0000 0.44650  0.78710  0.65010  Biso   1.000  C
  C4       1.0000 0.48940  0.71280  0.61010  Biso   1.000  C
  C5       1.0000 0.35840  0.84270  0.61140  Biso   1.000  C
  C6       1.0000 0.32050  0.91220  0.64750  Biso   1.000  C
  C7       1.0000 0.37340  0.92740  0.72270  Biso   1.000  C
  C8       1.0000 0.45830  0.12860  0.23890  Biso   1.000  C
  C9       1.0000 0.49620  0.19890  0.27420  Biso   1.000  C
  C10      1.0000 0.44650  0.21290  0.34990  Biso   1.000  C
  C11      1.0000 0.48940  0.28720  0.38990  Biso   1.000  C
  C12      1.0000 0.35840  0.15730  0.38860  Biso   1.000  C
  C13      1.0000 0.32050  0.08780  0.35250  Biso   1.000  C
  C14      1.0000 0.37340  0.07260  0.27730  Biso   1.000  C
  C15      1.0000 0.54170  0.76110  0.12860  Biso   1.000  C
  C16      1.0000 0.50380  0.72580  0.19890  Biso   1.000  C
  C17      1.0000 0.55350  0.65010  0.21290  Biso   1.000  C
  C18      1.0000 0.51060  0.61010  0.28720  Biso   1.000  C
  C19      1.0000 0.64160  0.61140  0.15730  Biso   1.000  C
  C20      1.0000 0.67950  0.64750  0.08780  Biso   1.000  C
  C21      1.0000 0.62660  0.72270  0.07260  Biso   1.000  C
  C22      1.0000 0.54170  0.23890  0.87140  Biso   1.000  C
  C23      1.0000 0.50380  0.27420  0.80110  Biso   1.000  C
  C24      1.0000 0.55350  0.34990  0.78710  Biso   1.000  C
  C25      1.0000 0.51060  0.38990  0.71280  Biso   1.000  C
  C26      1.0000 0.64160  0.38860  0.84270  Biso   1.000  C
  C27      1.0000 0.67950  0.35250  0.91220  Biso   1.000  C
  C28      1.0000 0.62660  0.27730  0.92740  Biso   1.000  C
  C29      1.0000 0.04170  0.62860  0.26110  Biso   1.000  C
  C30      1.0000 0.00380  0.69890  0.22580  Biso   1.000  C
  C31      1.0000 0.05350  0.71290  0.15010  Biso   1.000  C
  C32      1.0000 0.01060  0.78720  0.11010  Biso   1.000  C
  C33      1.0000 0.14160  0.65730  0.11140  Biso   1.000  C
  C34      1.0000 0.17950  0.58780  0.14750  Biso   1.000  C
  C35      1.0000 0.12660  0.57260  0.22270  Biso   1.000  C
  C36      1.0000 0.04170  0.37140  0.73890  Biso   1.000  C
  C37      1.0000 0.00380  0.30110  0.77420  Biso   1.000  C
  C38      1.0000 0.05350  0.28710  0.84990  Biso   1.000  C
  C39      1.0000 0.01060  0.21280  0.88990  Biso   1.000  C
  C40      1.0000 0.14160  0.34270  0.88860  Biso   1.000  C
  C41      1.0000 0.17950  0.41220  0.85250  Biso   1.000  C
  C42      1.0000 0.12660  0.42740  0.77730  Biso   1.000  C
  C43      1.0000 0.95830  0.73890  0.62860  Biso   1.000  C
  C44      1.0000 0.99620  0.77420  0.69890  Biso   1.000  C
  C45      1.0000 0.94650  0.84990  0.71290  Biso   1.000  C
  C46      1.0000 0.98940  0.88990  0.78720  Biso   1.000  C
  C47      1.0000 0.85840  0.88860  0.65730  Biso   1.000  C
  C48      1.0000 0.82050  0.85250  0.58780  Biso   1.000  C
  C49      1.0000 0.87340  0.77730  0.57260  Biso   1.000  C
  C50      1.0000 0.95830  0.26110  0.37140  Biso   1.000  C
  C51      1.0000 0.99620  0.22580  0.30110  Biso   1.000  C
  C52      1.0000 0.94650  0.15010  0.28710  Biso   1.000  C
  C53      1.0000 0.98940  0.11010  0.21280  Biso   1.000  C
  C54      1.0000 0.85840  0.11140  0.34270  Biso   1.000  C
  C55      1.0000 0.82050  0.14750  0.41220  Biso   1.000  C
  C56      1.0000 0.87340  0.22270  0.42740  Biso   1.000  C
  S1       1.0000 0.52366  0.89177  0.85686  Biso   1.000  S
  S2       1.0000 0.52366  0.10823  0.14314  Biso   1.000  S
  S3       1.0000 0.47634  0.85686  0.10823  Biso   1.000  S
  S4       1.0000 0.47634  0.14314  0.89177  Biso   1.000  S
  S5       1.0000 0.97634  0.60823  0.35686  Biso   1.000  S
  S6       1.0000 0.97634  0.39177  0.64314  Biso   1.000  S
  S7       1.0000 0.02366  0.64314  0.60823  Biso   1.000  S
  S8       1.0000 0.02366  0.35686  0.39177  Biso   1.000  S
  O1       1.0000 0.64700  0.94954  0.84898  Biso   1.000  O
  O2       1.0000 0.38650  0.92447  0.89637  Biso   1.000  O
  O3       1.0000 0.58170  0.82028  0.89171  Biso   1.000  O
  O4       1.0000 0.54290  0.65785  0.64919  Biso   1.000  O
  O5       1.0000 0.46920  0.71013  0.53603  Biso   1.000  O
  O6       1.0000 0.87810  0.92633  0.97401  Biso   1.000  O
  O7       1.0000 0.73310  0.07880  0.76333  Biso   1.000  O
  O8       1.0000 0.64700  0.05046  0.15102  Biso   1.000  O
  O9       1.0000 0.38650  0.07553  0.10363  Biso   1.000  O
  O10      1.0000 0.58170  0.17972  0.10829  Biso   1.000  O
  O11      1.0000 0.54290  0.34215  0.35081  Biso   1.000  O
  O12      1.0000 0.46920  0.28987  0.46397  Biso   1.000  O
  O13      1.0000 0.87810  0.07367  0.02599  Biso   1.000  O
  O14      1.0000 0.73310  0.92120  0.23667  Biso   1.000  O
  O15      1.0000 0.35300  0.84898  0.05046  Biso   1.000  O
  O16      1.0000 0.61350  0.89637  0.07553  Biso   1.000  O
  O17      1.0000 0.41830  0.89171  0.17972  Biso   1.000  O
  O18      1.0000 0.45710  0.64919  0.34215  Biso   1.000  O
  O19      1.0000 0.53080  0.53603  0.28987  Biso   1.000  O
  O20      1.0000 0.12190  0.97401  0.07367  Biso   1.000  O
  O21      1.0000 0.26690  0.76333  0.92120  Biso   1.000  O
  O22      1.0000 0.35300  0.15102  0.94954  Biso   1.000  O
  O23      1.0000 0.61350  0.10363  0.92447  Biso   1.000  O
  O24      1.0000 0.41830  0.10829  0.82028  Biso   1.000  O
  O25      1.0000 0.45710  0.35081  0.65785  Biso   1.000  O
  O26      1.0000 0.53080  0.46397  0.71013  Biso   1.000  O
  O27      1.0000 0.12190  0.02599  0.92633  Biso   1.000  O
  O28      1.0000 0.26690  0.23667  0.07880  Biso   1.000  O
  O29      1.0000 0.85300  0.55046  0.34898  Biso   1.000  O
  O30      1.0000 0.11350  0.57553  0.39637  Biso   1.000  O
  O31      1.0000 0.91830  0.67972  0.39171  Biso   1.000  O
  O32      1.0000 0.95710  0.84215  0.14919  Biso   1.000  O
  O33      1.0000 0.03080  0.78987  0.03603  Biso   1.000  O
  O34      1.0000 0.62190  0.57367  0.47401  Biso   1.000  O
  O35      1.0000 0.76690  0.42120  0.26333  Biso   1.000  O
  O36      1.0000 0.85300  0.44954  0.65102  Biso   1.000  O
  O37      1.0000 0.11350  0.42447  0.60363  Biso   1.000  O
  O38      1.0000 0.91830  0.32028  0.60829  Biso   1.000  O
  O39      1.0000 0.95710  0.15785  0.85081  Biso   1.000  O
  O40      1.0000 0.03080  0.21013  0.96397  Biso   1.000  O
  O41      1.0000 0.62190  0.42633  0.52599  Biso   1.000  O
  O42      1.0000 0.76690  0.57880  0.73667  Biso   1.000  O
  O43      1.0000 0.14700  0.65102  0.55046  Biso   1.000  O
  O44      1.0000 0.88650  0.60363  0.57553  Biso   1.000  O
  O45      1.0000 0.08170  0.60829  0.67972  Biso   1.000  O
  O46      1.0000 0.04290  0.85081  0.84215  Biso   1.000  O
  O47      1.0000 0.96920  0.96397  0.78987  Biso   1.000  O
  O48      1.0000 0.37810  0.52599  0.57367  Biso   1.000  O
  O49      1.0000 0.23310  0.73667  0.42120  Biso   1.000  O
  O50      1.0000 0.14700  0.34898  0.44954  Biso   1.000  O
  O51      1.0000 0.88650  0.39637  0.42447  Biso   1.000  O
  O52      1.0000 0.08170  0.39171  0.32028  Biso   1.000  O
  O53      1.0000 0.04290  0.14919  0.15785  Biso   1.000  O
  O54      1.0000 0.96920  0.03603  0.21013  Biso   1.000  O
  O55      1.0000 0.37810  0.47401  0.42633  Biso   1.000  O
  O56      1.0000 0.23310  0.26333  0.57880  Biso   1.000  O
