data_image0
_cell_length_a       11.45
_cell_length_b       11.467
_cell_length_c       20.944
_cell_angle_alpha    90
_cell_angle_beta     90
_cell_angle_gamma    90

_symmetry_space_group_name_H-M    "P 1"
_symmetry_int_tables_number       1

loop_
  _symmetry_equiv_pos_as_xyz
  'x, y, z'

loop_
  _atom_site_label
  _atom_site_occupancy
  _atom_site_fract_x
  _atom_site_fract_y
  _atom_site_fract_z
  _atom_site_thermal_displace_type
  _atom_site_B_iso_or_equiv
  _atom_site_type_symbol
  C1       1.0000 0.03930  0.74740  0.70010  Biso   1.000  C
  C2       1.0000 0.03830  0.62750  0.69720  Biso   1.000  C
  C3       1.0000 0.74850  0.95490  0.70270  Biso   1.000  C
  C4       1.0000 0.62830  0.95550  0.70050  Biso   1.000  C
  H1       1.0000 0.06880  0.78810  0.66550  Biso   1.000  H
  H2       1.0000 0.06420  0.58930  0.66030  Biso   1.000  H
  H3       1.0000 0.79000  0.91920  0.66900  Biso   1.000  H
  H4       1.0000 0.59030  0.92280  0.66530  Biso   1.000  H
  C5       1.0000 0.96070  0.25260  0.70010  Biso   1.000  C
  C6       1.0000 0.96170  0.37250  0.69720  Biso   1.000  C
  C7       1.0000 0.25150  0.04510  0.70270  Biso   1.000  C
  C8       1.0000 0.37170  0.04450  0.70050  Biso   1.000  C
  H5       1.0000 0.93120  0.21190  0.66550  Biso   1.000  H
  H6       1.0000 0.93580  0.41070  0.66030  Biso   1.000  H
  H7       1.0000 0.21000  0.08080  0.66900  Biso   1.000  H
  H8       1.0000 0.40970  0.07720  0.66530  Biso   1.000  H
  C9       1.0000 0.96070  0.74740  0.79990  Biso   1.000  C
  C10      1.0000 0.96170  0.62750  0.80280  Biso   1.000  C
  C11      1.0000 0.25150  0.95490  0.79730  Biso   1.000  C
  C12      1.0000 0.37170  0.95550  0.79950  Biso   1.000  C
  H9       1.0000 0.93120  0.78810  0.83450  Biso   1.000  H
  H10      1.0000 0.93580  0.58930  0.83970  Biso   1.000  H
  H11      1.0000 0.21000  0.91920  0.83100  Biso   1.000  H
  H12      1.0000 0.40970  0.92280  0.83470  Biso   1.000  H
  C13      1.0000 0.03930  0.25260  0.79990  Biso   1.000  C
  C14      1.0000 0.03830  0.37250  0.80280  Biso   1.000  C
  C15      1.0000 0.74850  0.04510  0.79730  Biso   1.000  C
  C16      1.0000 0.62830  0.04450  0.79950  Biso   1.000  C
  H13      1.0000 0.06880  0.21190  0.83450  Biso   1.000  H
  H14      1.0000 0.06420  0.41070  0.83970  Biso   1.000  H
  H15      1.0000 0.79000  0.08080  0.83100  Biso   1.000  H
  H16      1.0000 0.59030  0.07720  0.83470  Biso   1.000  H
  C17      1.0000 0.96070  0.25260  0.29990  Biso   1.000  C
  C18      1.0000 0.96170  0.37250  0.30280  Biso   1.000  C
  C19      1.0000 0.25150  0.04510  0.29730  Biso   1.000  C
  C20      1.0000 0.37170  0.04450  0.29950  Biso   1.000  C
  H17      1.0000 0.93120  0.21190  0.33450  Biso   1.000  H
  H18      1.0000 0.93580  0.41070  0.33970  Biso   1.000  H
  H19      1.0000 0.21000  0.08080  0.33100  Biso   1.000  H
  H20      1.0000 0.40970  0.07720  0.33470  Biso   1.000  H
  C21      1.0000 0.03930  0.74740  0.29990  Biso   1.000  C
  C22      1.0000 0.03830  0.62750  0.30280  Biso   1.000  C
  C23      1.0000 0.74850  0.95490  0.29730  Biso   1.000  C
  C24      1.0000 0.62830  0.95550  0.29950  Biso   1.000  C
  H21      1.0000 0.06880  0.78810  0.33450  Biso   1.000  H
  H22      1.0000 0.06420  0.58930  0.33970  Biso   1.000  H
  H23      1.0000 0.79000  0.91920  0.33100  Biso   1.000  H
  H24      1.0000 0.59030  0.92280  0.33470  Biso   1.000  H
  C25      1.0000 0.03930  0.25260  0.20010  Biso   1.000  C
  C26      1.0000 0.03830  0.37250  0.19720  Biso   1.000  C
  C27      1.0000 0.74850  0.04510  0.20270  Biso   1.000  C
  C28      1.0000 0.62830  0.04450  0.20050  Biso   1.000  C
  H25      1.0000 0.06880  0.21190  0.16550  Biso   1.000  H
  H26      1.0000 0.06420  0.41070  0.16030  Biso   1.000  H
  H27      1.0000 0.79000  0.08080  0.16900  Biso   1.000  H
  H28      1.0000 0.59030  0.07720  0.16530  Biso   1.000  H
  C29      1.0000 0.96070  0.74740  0.20010  Biso   1.000  C
  C30      1.0000 0.96170  0.62750  0.19720  Biso   1.000  C
  C31      1.0000 0.25150  0.95490  0.20270  Biso   1.000  C
  C32      1.0000 0.37170  0.95550  0.20050  Biso   1.000  C
  H29      1.0000 0.93120  0.78810  0.16550  Biso   1.000  H
  H30      1.0000 0.93580  0.58930  0.16030  Biso   1.000  H
  H31      1.0000 0.21000  0.91920  0.16900  Biso   1.000  H
  H32      1.0000 0.40970  0.92280  0.16530  Biso   1.000  H
  Au1      1.0000 0.00000  0.00000  0.50000  Biso   1.000  Au
  Au2      1.0000 0.00000  0.00000  0.00000  Biso   1.000  Au
  Br1      1.0000 0.06060  0.79633  0.50000  Biso   1.000  Br
  Br2      1.0000 0.93940  0.20367  0.50000  Biso   1.000  Br
  Br3      1.0000 0.93940  0.79633  0.00000  Biso   1.000  Br
  Br4      1.0000 0.06060  0.20367  0.00000  Biso   1.000  Br
  Co1      1.0000 0.00000  0.00000  0.75000  Biso   1.000  Co
  Co2      1.0000 0.00000  0.00000  0.25000  Biso   1.000  Co
  N1       1.0000 0.00000  0.00000  0.64930  Biso   1.000  N
  C33      1.0000 0.00000  0.00000  0.59450  Biso   1.000  C
  N2       1.0000 0.00000  0.00000  0.85070  Biso   1.000  N
  C34      1.0000 0.00000  0.00000  0.90550  Biso   1.000  C
  N3       1.0000 0.00000  0.00000  0.35070  Biso   1.000  N
  C35      1.0000 0.00000  0.00000  0.40550  Biso   1.000  C
  N4       1.0000 0.00000  0.00000  0.14930  Biso   1.000  N
  C36      1.0000 0.00000  0.00000  0.09450  Biso   1.000  C
  N5       1.0000 0.00000  0.81140  0.75000  Biso   1.000  N
  C37      1.0000 0.00000  0.56450  0.75000  Biso   1.000  C
  N6       1.0000 0.00000  0.18860  0.75000  Biso   1.000  N
  C38      1.0000 0.00000  0.43550  0.75000  Biso   1.000  C
  N7       1.0000 0.00000  0.18860  0.25000  Biso   1.000  N
  C39      1.0000 0.00000  0.43550  0.25000  Biso   1.000  C
  N8       1.0000 0.00000  0.81140  0.25000  Biso   1.000  N
  C40      1.0000 0.00000  0.56450  0.25000  Biso   1.000  C
  N9       1.0000 0.81010  0.00000  0.75000  Biso   1.000  N
  C41      1.0000 0.56440  0.00000  0.75000  Biso   1.000  C
  N10      1.0000 0.18990  0.00000  0.75000  Biso   1.000  N
  C42      1.0000 0.43560  0.00000  0.75000  Biso   1.000  C
  N11      1.0000 0.18990  0.00000  0.25000  Biso   1.000  N
  C43      1.0000 0.43560  0.00000  0.25000  Biso   1.000  C
  N12      1.0000 0.81010  0.00000  0.25000  Biso   1.000  N
  C44      1.0000 0.56440  0.00000  0.25000  Biso   1.000  C
  C45      1.0000 0.60000  0.43200  0.29250  Biso   1.000  C
  C46      1.0000 0.55100  0.35900  0.32890  Biso   1.000  C
  C47      1.0000 0.66230  0.28300  0.36310  Biso   1.000  C
  C48      1.0000 0.61100  0.22600  0.41170  Biso   1.000  C
  H33      1.0000 0.64010  0.48580  0.31930  Biso   1.000  H
  H34      1.0000 0.65450  0.39470  0.26510  Biso   1.000  H
  H35      1.0000 0.50020  0.39580  0.35850  Biso   1.000  H
  H36      1.0000 0.50780  0.30700  0.30280  Biso   1.000  H
  H37      1.0000 0.71860  0.33600  0.37910  Biso   1.000  H
  H38      1.0000 0.69940  0.22830  0.33550  Biso   1.000  H
  H39      1.0000 0.66660  0.18380  0.43590  Biso   1.000  H
  H40      1.0000 0.57340  0.28190  0.43850  Biso   1.000  H
  H41      1.0000 0.55430  0.17420  0.39480  Biso   1.000  H
  C49      1.0000 0.40000  0.56800  0.29250  Biso   1.000  C
  C50      1.0000 0.44900  0.64100  0.32890  Biso   1.000  C
  C51      1.0000 0.33770  0.71700  0.36310  Biso   1.000  C
  C52      1.0000 0.38900  0.77400  0.41170  Biso   1.000  C
  H42      1.0000 0.35990  0.51420  0.31930  Biso   1.000  H
  H43      1.0000 0.34550  0.60530  0.26510  Biso   1.000  H
  H44      1.0000 0.49980  0.60420  0.35850  Biso   1.000  H
  H45      1.0000 0.49220  0.69300  0.30280  Biso   1.000  H
  H46      1.0000 0.28140  0.66400  0.37910  Biso   1.000  H
  H47      1.0000 0.30060  0.77170  0.33550  Biso   1.000  H
  H48      1.0000 0.33340  0.81620  0.43590  Biso   1.000  H
  H49      1.0000 0.42660  0.71810  0.43850  Biso   1.000  H
  H50      1.0000 0.44570  0.82580  0.39480  Biso   1.000  H
  C53      1.0000 0.40000  0.43200  0.20750  Biso   1.000  C
  C54      1.0000 0.44900  0.35900  0.17110  Biso   1.000  C
  C55      1.0000 0.33770  0.28300  0.13690  Biso   1.000  C
  C56      1.0000 0.38900  0.22600  0.08830  Biso   1.000  C
  H51      1.0000 0.35990  0.48580  0.18070  Biso   1.000  H
  H52      1.0000 0.34550  0.39470  0.23490  Biso   1.000  H
  H53      1.0000 0.49980  0.39580  0.14150  Biso   1.000  H
  H54      1.0000 0.49220  0.30700  0.19720  Biso   1.000  H
  H55      1.0000 0.28140  0.33600  0.12090  Biso   1.000  H
  H56      1.0000 0.30060  0.22830  0.16450  Biso   1.000  H
  H57      1.0000 0.33340  0.18380  0.06410  Biso   1.000  H
  H58      1.0000 0.42660  0.28190  0.06150  Biso   1.000  H
  H59      1.0000 0.44570  0.17420  0.10520  Biso   1.000  H
  C57      1.0000 0.60000  0.56800  0.20750  Biso   1.000  C
  C58      1.0000 0.55100  0.64100  0.17110  Biso   1.000  C
  C59      1.0000 0.66230  0.71700  0.13690  Biso   1.000  C
  C60      1.0000 0.61100  0.77400  0.08830  Biso   1.000  C
  H60      1.0000 0.64010  0.51420  0.18070  Biso   1.000  H
  H61      1.0000 0.65450  0.60530  0.23490  Biso   1.000  H
  H62      1.0000 0.50020  0.60420  0.14150  Biso   1.000  H
  H63      1.0000 0.50780  0.69300  0.19720  Biso   1.000  H
  H64      1.0000 0.71860  0.66400  0.12090  Biso   1.000  H
  H65      1.0000 0.69940  0.77170  0.16450  Biso   1.000  H
  H66      1.0000 0.66660  0.81620  0.06410  Biso   1.000  H
  H67      1.0000 0.57340  0.71810  0.06150  Biso   1.000  H
  H68      1.0000 0.55430  0.82580  0.10520  Biso   1.000  H
  N13      1.0000 0.50000  0.50000  0.25000  Biso   1.000  N
  C61      1.0000 0.40000  0.56800  0.70750  Biso   1.000  C
  C62      1.0000 0.44900  0.64100  0.67110  Biso   1.000  C
  C63      1.0000 0.33770  0.71700  0.63690  Biso   1.000  C
  C64      1.0000 0.38900  0.77400  0.58830  Biso   1.000  C
  H69      1.0000 0.35990  0.51420  0.68070  Biso   1.000  H
  H70      1.0000 0.34550  0.60530  0.73490  Biso   1.000  H
  H71      1.0000 0.49980  0.60420  0.64150  Biso   1.000  H
  H72      1.0000 0.49220  0.69300  0.69720  Biso   1.000  H
  H73      1.0000 0.28140  0.66400  0.62090  Biso   1.000  H
  H74      1.0000 0.30060  0.77170  0.66450  Biso   1.000  H
  H75      1.0000 0.33340  0.81620  0.56410  Biso   1.000  H
  H76      1.0000 0.42660  0.71810  0.56150  Biso   1.000  H
  H77      1.0000 0.44570  0.82580  0.60520  Biso   1.000  H
  C65      1.0000 0.60000  0.43200  0.70750  Biso   1.000  C
  C66      1.0000 0.55100  0.35900  0.67110  Biso   1.000  C
  C67      1.0000 0.66230  0.28300  0.63690  Biso   1.000  C
  C68      1.0000 0.61100  0.22600  0.58830  Biso   1.000  C
  H78      1.0000 0.64010  0.48580  0.68070  Biso   1.000  H
  H79      1.0000 0.65450  0.39470  0.73490  Biso   1.000  H
  H80      1.0000 0.50020  0.39580  0.64150  Biso   1.000  H
  H81      1.0000 0.50780  0.30700  0.69720  Biso   1.000  H
  H82      1.0000 0.71860  0.33600  0.62090  Biso   1.000  H
  H83      1.0000 0.69940  0.22830  0.66450  Biso   1.000  H
  H84      1.0000 0.66660  0.18380  0.56410  Biso   1.000  H
  H85      1.0000 0.57340  0.28190  0.56150  Biso   1.000  H
  H86      1.0000 0.55430  0.17420  0.60520  Biso   1.000  H
  C69      1.0000 0.60000  0.56800  0.79250  Biso   1.000  C
  C70      1.0000 0.55100  0.64100  0.82890  Biso   1.000  C
  C71      1.0000 0.66230  0.71700  0.86310  Biso   1.000  C
  C72      1.0000 0.61100  0.77400  0.91170  Biso   1.000  C
  H87      1.0000 0.64010  0.51420  0.81930  Biso   1.000  H
  H88      1.0000 0.65450  0.60530  0.76510  Biso   1.000  H
  H89      1.0000 0.50020  0.60420  0.85850  Biso   1.000  H
  H90      1.0000 0.50780  0.69300  0.80280  Biso   1.000  H
  H91      1.0000 0.71860  0.66400  0.87910  Biso   1.000  H
  H92      1.0000 0.69940  0.77170  0.83550  Biso   1.000  H
  H93      1.0000 0.66660  0.81620  0.93590  Biso   1.000  H
  H94      1.0000 0.57340  0.71810  0.93850  Biso   1.000  H
  H95      1.0000 0.55430  0.82580  0.89480  Biso   1.000  H
  C73      1.0000 0.40000  0.43200  0.79250  Biso   1.000  C
  C74      1.0000 0.44900  0.35900  0.82890  Biso   1.000  C
  C75      1.0000 0.33770  0.28300  0.86310  Biso   1.000  C
  C76      1.0000 0.38900  0.22600  0.91170  Biso   1.000  C
  H96      1.0000 0.35990  0.48580  0.81930  Biso   1.000  H
  H97      1.0000 0.34550  0.39470  0.76510  Biso   1.000  H
  H98      1.0000 0.49980  0.39580  0.85850  Biso   1.000  H
  H99      1.0000 0.49220  0.30700  0.80280  Biso   1.000  H
  H100     1.0000 0.28140  0.33600  0.87910  Biso   1.000  H
  H101     1.0000 0.30060  0.22830  0.83550  Biso   1.000  H
  H102     1.0000 0.33340  0.18380  0.93590  Biso   1.000  H
  H103     1.0000 0.42660  0.28190  0.93850  Biso   1.000  H
  H104     1.0000 0.44570  0.17420  0.89480  Biso   1.000  H
  N14      1.0000 0.50000  0.50000  0.75000  Biso   1.000  N
