data_image0
_cell_length_a       23.342
_cell_length_b       20.685
_cell_length_c       12.5402
_cell_angle_alpha    90
_cell_angle_beta     97.97
_cell_angle_gamma    90

_symmetry_space_group_name_H-M    "P 1"
_symmetry_int_tables_number       1

loop_
  _symmetry_equiv_pos_as_xyz
  'x, y, z'

loop_
  _atom_site_label
  _atom_site_occupancy
  _atom_site_fract_x
  _atom_site_fract_y
  _atom_site_fract_z
  _atom_site_thermal_displace_type
  _atom_site_B_iso_or_equiv
  _atom_site_type_symbol
  Ag1      1.0000 0.26320  0.92350  0.56500  Biso   1.000  Ag
  N1       1.0000 0.33300  0.95000  0.48300  Biso   1.000  N
  N2       1.0000 0.18380  0.88700  0.46200  Biso   1.000  N
  N3       1.0000 0.50060  0.53380  0.09500  Biso   1.000  N
  N4       1.0000 0.08200  0.84400  0.34500  Biso   1.000  N
  C1       1.0000 0.47600  0.73000  0.32000  Biso   1.000  C
  H1       1.0000 0.45850  0.70800  0.37150  Biso   1.000  H
  C2       1.0000 0.15300  0.92100  0.38700  Biso   1.000  C
  H2       1.0000 0.16600  0.96270  0.37750  Biso   1.000  H
  C3       1.0000 0.47600  0.79800  0.32100  Biso   1.000  C
  H3       1.0000 0.45900  0.82060  0.37190  Biso   1.000  H
  C4       1.0000 0.54800  0.50900  0.06800  Biso   1.000  C
  H4       1.0000 0.58280  0.51540  0.11310  Biso   1.000  H
  C5       1.0000 0.45300  0.52600  0.02700  Biso   1.000  C
  H5       1.0000 0.41890  0.54440  0.04270  Biso   1.000  H
  C6       1.0000 0.39200  0.93700  0.51600  Biso   1.000  C
  H6       1.0000 0.40410  0.92500  0.58640  Biso   1.000  H
  C7       1.0000 0.10800  0.90300  0.32600  Biso   1.000  C
  H7       1.0000 0.09160  0.92880  0.27000  Biso   1.000  H
  C8       1.0000 0.11600  0.80700  0.41500  Biso   1.000  C
  H8       1.0000 0.10270  0.76590  0.42810  Biso   1.000  H
  C9       1.0000 0.37000  0.97900  0.31500  Biso   1.000  C
  H9       1.0000 0.36130  0.99440  0.24500  Biso   1.000  H
  N5       1.0000 0.42500  0.96100  0.35300  Biso   1.000  N
  C10      1.0000 0.43000  0.94200  0.44700  Biso   1.000  C
  H10      1.0000 0.46740  0.92950  0.47560  Biso   1.000  H
  C11      1.0000 0.16800  0.82500  0.46800  Biso   1.000  C
  H11      1.0000 0.19190  0.79530  0.50810  Biso   1.000  H
  C12      1.0000 0.33000  0.97600  0.37700  Biso   1.000  C
  H12      1.0000 0.29380  0.99360  0.34830  Biso   1.000  H
  C13      1.0000 0.97800  0.66000  0.33000  Biso   1.000  C
  H13      1.0000 0.96610  0.68160  0.38820  Biso   1.000  H
  C14      1.0000 0.97300  0.59800  0.32800  Biso   1.000  C
  H14      1.0000 0.95290  0.57780  0.37690  Biso   1.000  H
  Ag2      1.0000 0.76320  0.42350  0.56500  Biso   1.000  Ag
  N6       1.0000 0.83300  0.45000  0.48300  Biso   1.000  N
  N7       1.0000 0.68380  0.38700  0.46200  Biso   1.000  N
  N8       1.0000 0.00060  0.03380  0.09500  Biso   1.000  N
  N9       1.0000 0.58200  0.34400  0.34500  Biso   1.000  N
  C15      1.0000 0.97600  0.23000  0.32000  Biso   1.000  C
  H15      1.0000 0.95850  0.20800  0.37150  Biso   1.000  H
  C16      1.0000 0.65300  0.42100  0.38700  Biso   1.000  C
  H16      1.0000 0.66600  0.46270  0.37750  Biso   1.000  H
  C17      1.0000 0.97600  0.29800  0.32100  Biso   1.000  C
  H17      1.0000 0.95900  0.32060  0.37190  Biso   1.000  H
  C18      1.0000 0.04800  0.00900  0.06800  Biso   1.000  C
  H18      1.0000 0.08280  0.01540  0.11310  Biso   1.000  H
  C19      1.0000 0.95300  0.02600  0.02700  Biso   1.000  C
  H19      1.0000 0.91890  0.04440  0.04270  Biso   1.000  H
  C20      1.0000 0.89200  0.43700  0.51600  Biso   1.000  C
  H20      1.0000 0.90410  0.42500  0.58640  Biso   1.000  H
  C21      1.0000 0.60800  0.40300  0.32600  Biso   1.000  C
  H21      1.0000 0.59160  0.42880  0.27000  Biso   1.000  H
  C22      1.0000 0.61600  0.30700  0.41500  Biso   1.000  C
  H22      1.0000 0.60270  0.26590  0.42810  Biso   1.000  H
  C23      1.0000 0.87000  0.47900  0.31500  Biso   1.000  C
  H23      1.0000 0.86130  0.49440  0.24500  Biso   1.000  H
  N10      1.0000 0.92500  0.46100  0.35300  Biso   1.000  N
  C24      1.0000 0.93000  0.44200  0.44700  Biso   1.000  C
  H24      1.0000 0.96740  0.42950  0.47560  Biso   1.000  H
  C25      1.0000 0.66800  0.32500  0.46800  Biso   1.000  C
  H25      1.0000 0.69190  0.29530  0.50810  Biso   1.000  H
  C26      1.0000 0.83000  0.47600  0.37700  Biso   1.000  C
  H26      1.0000 0.79380  0.49360  0.34830  Biso   1.000  H
  C27      1.0000 0.47800  0.16000  0.33000  Biso   1.000  C
  H27      1.0000 0.46610  0.18160  0.38820  Biso   1.000  H
  C28      1.0000 0.47300  0.09800  0.32800  Biso   1.000  C
  H28      1.0000 0.45290  0.07780  0.37690  Biso   1.000  H
  Ag3      1.0000 0.73680  0.92350  0.93500  Biso   1.000  Ag
  N11      1.0000 0.66700  0.95000  0.01700  Biso   1.000  N
  N12      1.0000 0.81620  0.88700  0.03800  Biso   1.000  N
  N13      1.0000 0.49940  0.53380  0.40500  Biso   1.000  N
  N14      1.0000 0.91800  0.84400  0.15500  Biso   1.000  N
  C29      1.0000 0.52400  0.73000  0.18000  Biso   1.000  C
  H29      1.0000 0.54150  0.70800  0.12850  Biso   1.000  H
  C30      1.0000 0.84700  0.92100  0.11300  Biso   1.000  C
  H30      1.0000 0.83400  0.96270  0.12250  Biso   1.000  H
  C31      1.0000 0.52400  0.79800  0.17900  Biso   1.000  C
  H31      1.0000 0.54100  0.82060  0.12810  Biso   1.000  H
  C32      1.0000 0.45200  0.50900  0.43200  Biso   1.000  C
  H32      1.0000 0.41720  0.51540  0.38690  Biso   1.000  H
  C33      1.0000 0.54700  0.52600  0.47300  Biso   1.000  C
  H33      1.0000 0.58110  0.54440  0.45730  Biso   1.000  H
  C34      1.0000 0.60800  0.93700  0.98400  Biso   1.000  C
  H34      1.0000 0.59590  0.92500  0.91360  Biso   1.000  H
  C35      1.0000 0.89200  0.90300  0.17400  Biso   1.000  C
  H35      1.0000 0.90840  0.92880  0.23000  Biso   1.000  H
  C36      1.0000 0.88400  0.80700  0.08500  Biso   1.000  C
  H36      1.0000 0.89730  0.76590  0.07190  Biso   1.000  H
  C37      1.0000 0.63000  0.97900  0.18500  Biso   1.000  C
  H37      1.0000 0.63870  0.99440  0.25500  Biso   1.000  H
  N15      1.0000 0.57500  0.96100  0.14700  Biso   1.000  N
  C38      1.0000 0.57000  0.94200  0.05300  Biso   1.000  C
  H38      1.0000 0.53260  0.92950  0.02440  Biso   1.000  H
  C39      1.0000 0.83200  0.82500  0.03200  Biso   1.000  C
  H39      1.0000 0.80810  0.79530  0.99190  Biso   1.000  H
  C40      1.0000 0.67000  0.97600  0.12300  Biso   1.000  C
  H40      1.0000 0.70620  0.99360  0.15170  Biso   1.000  H
  C41      1.0000 0.02200  0.66000  0.17000  Biso   1.000  C
  H41      1.0000 0.03390  0.68160  0.11180  Biso   1.000  H
  C42      1.0000 0.02700  0.59800  0.17200  Biso   1.000  C
  H42      1.0000 0.04710  0.57780  0.12310  Biso   1.000  H
  Ag4      1.0000 0.23680  0.42350  0.93500  Biso   1.000  Ag
  N16      1.0000 0.16700  0.45000  0.01700  Biso   1.000  N
  N17      1.0000 0.31620  0.38700  0.03800  Biso   1.000  N
  N18      1.0000 0.99940  0.03380  0.40500  Biso   1.000  N
  N19      1.0000 0.41800  0.34400  0.15500  Biso   1.000  N
  C43      1.0000 0.02400  0.23000  0.18000  Biso   1.000  C
  H43      1.0000 0.04150  0.20800  0.12850  Biso   1.000  H
  C44      1.0000 0.34700  0.42100  0.11300  Biso   1.000  C
  H44      1.0000 0.33400  0.46270  0.12250  Biso   1.000  H
  C45      1.0000 0.02400  0.29800  0.17900  Biso   1.000  C
  H45      1.0000 0.04100  0.32060  0.12810  Biso   1.000  H
  C46      1.0000 0.95200  0.00900  0.43200  Biso   1.000  C
  H46      1.0000 0.91720  0.01540  0.38690  Biso   1.000  H
  C47      1.0000 0.04700  0.02600  0.47300  Biso   1.000  C
  H47      1.0000 0.08110  0.04440  0.45730  Biso   1.000  H
  C48      1.0000 0.10800  0.43700  0.98400  Biso   1.000  C
  H48      1.0000 0.09590  0.42500  0.91360  Biso   1.000  H
  C49      1.0000 0.39200  0.40300  0.17400  Biso   1.000  C
  H49      1.0000 0.40840  0.42880  0.23000  Biso   1.000  H
  C50      1.0000 0.38400  0.30700  0.08500  Biso   1.000  C
  H50      1.0000 0.39730  0.26590  0.07190  Biso   1.000  H
  C51      1.0000 0.13000  0.47900  0.18500  Biso   1.000  C
  H51      1.0000 0.13870  0.49440  0.25500  Biso   1.000  H
  N20      1.0000 0.07500  0.46100  0.14700  Biso   1.000  N
  C52      1.0000 0.07000  0.44200  0.05300  Biso   1.000  C
  H52      1.0000 0.03260  0.42950  0.02440  Biso   1.000  H
  C53      1.0000 0.33200  0.32500  0.03200  Biso   1.000  C
  H53      1.0000 0.30810  0.29530  0.99190  Biso   1.000  H
  C54      1.0000 0.17000  0.47600  0.12300  Biso   1.000  C
  H54      1.0000 0.20620  0.49360  0.15170  Biso   1.000  H
  C55      1.0000 0.52200  0.16000  0.17000  Biso   1.000  C
  H55      1.0000 0.53390  0.18160  0.11180  Biso   1.000  H
  C56      1.0000 0.52700  0.09800  0.17200  Biso   1.000  C
  H56      1.0000 0.54710  0.07780  0.12310  Biso   1.000  H
  Ag5      1.0000 0.73680  0.07650  0.43500  Biso   1.000  Ag
  N21      1.0000 0.66700  0.05000  0.51700  Biso   1.000  N
  N22      1.0000 0.81620  0.11300  0.53800  Biso   1.000  N
  N23      1.0000 0.49940  0.46620  0.90500  Biso   1.000  N
  N24      1.0000 0.91800  0.15600  0.65500  Biso   1.000  N
  C57      1.0000 0.52400  0.27000  0.68000  Biso   1.000  C
  H57      1.0000 0.54150  0.29200  0.62850  Biso   1.000  H
  C58      1.0000 0.84700  0.07900  0.61300  Biso   1.000  C
  H58      1.0000 0.83400  0.03730  0.62250  Biso   1.000  H
  C59      1.0000 0.52400  0.20200  0.67900  Biso   1.000  C
  H59      1.0000 0.54100  0.17940  0.62810  Biso   1.000  H
  C60      1.0000 0.45200  0.49100  0.93200  Biso   1.000  C
  H60      1.0000 0.41720  0.48460  0.88690  Biso   1.000  H
  C61      1.0000 0.54700  0.47400  0.97300  Biso   1.000  C
  H61      1.0000 0.58110  0.45560  0.95730  Biso   1.000  H
  C62      1.0000 0.60800  0.06300  0.48400  Biso   1.000  C
  H62      1.0000 0.59590  0.07500  0.41360  Biso   1.000  H
  C63      1.0000 0.89200  0.09700  0.67400  Biso   1.000  C
  H63      1.0000 0.90840  0.07120  0.73000  Biso   1.000  H
  C64      1.0000 0.88400  0.19300  0.58500  Biso   1.000  C
  H64      1.0000 0.89730  0.23410  0.57190  Biso   1.000  H
  C65      1.0000 0.63000  0.02100  0.68500  Biso   1.000  C
  H65      1.0000 0.63870  0.00560  0.75500  Biso   1.000  H
  N25      1.0000 0.57500  0.03900  0.64700  Biso   1.000  N
  C66      1.0000 0.57000  0.05800  0.55300  Biso   1.000  C
  H66      1.0000 0.53260  0.07050  0.52440  Biso   1.000  H
  C67      1.0000 0.83200  0.17500  0.53200  Biso   1.000  C
  H67      1.0000 0.80810  0.20470  0.49190  Biso   1.000  H
  C68      1.0000 0.67000  0.02400  0.62300  Biso   1.000  C
  H68      1.0000 0.70620  0.00640  0.65170  Biso   1.000  H
  C69      1.0000 0.02200  0.34000  0.67000  Biso   1.000  C
  H69      1.0000 0.03390  0.31840  0.61180  Biso   1.000  H
  C70      1.0000 0.02700  0.40200  0.67200  Biso   1.000  C
  H70      1.0000 0.04710  0.42220  0.62310  Biso   1.000  H
  Ag6      1.0000 0.23680  0.57650  0.43500  Biso   1.000  Ag
  N26      1.0000 0.16700  0.55000  0.51700  Biso   1.000  N
  N27      1.0000 0.31620  0.61300  0.53800  Biso   1.000  N
  N28      1.0000 0.99940  0.96620  0.90500  Biso   1.000  N
  N29      1.0000 0.41800  0.65600  0.65500  Biso   1.000  N
  C71      1.0000 0.02400  0.77000  0.68000  Biso   1.000  C
  H71      1.0000 0.04150  0.79200  0.62850  Biso   1.000  H
  C72      1.0000 0.34700  0.57900  0.61300  Biso   1.000  C
  H72      1.0000 0.33400  0.53730  0.62250  Biso   1.000  H
  C73      1.0000 0.02400  0.70200  0.67900  Biso   1.000  C
  H73      1.0000 0.04100  0.67940  0.62810  Biso   1.000  H
  C74      1.0000 0.95200  0.99100  0.93200  Biso   1.000  C
  H74      1.0000 0.91720  0.98460  0.88690  Biso   1.000  H
  C75      1.0000 0.04700  0.97400  0.97300  Biso   1.000  C
  H75      1.0000 0.08110  0.95560  0.95730  Biso   1.000  H
  C76      1.0000 0.10800  0.56300  0.48400  Biso   1.000  C
  H76      1.0000 0.09590  0.57500  0.41360  Biso   1.000  H
  C77      1.0000 0.39200  0.59700  0.67400  Biso   1.000  C
  H77      1.0000 0.40840  0.57120  0.73000  Biso   1.000  H
  C78      1.0000 0.38400  0.69300  0.58500  Biso   1.000  C
  H78      1.0000 0.39730  0.73410  0.57190  Biso   1.000  H
  C79      1.0000 0.13000  0.52100  0.68500  Biso   1.000  C
  H79      1.0000 0.13870  0.50560  0.75500  Biso   1.000  H
  N30      1.0000 0.07500  0.53900  0.64700  Biso   1.000  N
  C80      1.0000 0.07000  0.55800  0.55300  Biso   1.000  C
  H80      1.0000 0.03260  0.57050  0.52440  Biso   1.000  H
  C81      1.0000 0.33200  0.67500  0.53200  Biso   1.000  C
  H81      1.0000 0.30810  0.70470  0.49190  Biso   1.000  H
  C82      1.0000 0.17000  0.52400  0.62300  Biso   1.000  C
  H82      1.0000 0.20620  0.50640  0.65170  Biso   1.000  H
  C83      1.0000 0.52200  0.84000  0.67000  Biso   1.000  C
  H83      1.0000 0.53390  0.81840  0.61180  Biso   1.000  H
  C84      1.0000 0.52700  0.90200  0.67200  Biso   1.000  C
  H84      1.0000 0.54710  0.92220  0.62310  Biso   1.000  H
  Ag7      1.0000 0.26320  0.07650  0.06500  Biso   1.000  Ag
  N31      1.0000 0.33300  0.05000  0.98300  Biso   1.000  N
  N32      1.0000 0.18380  0.11300  0.96200  Biso   1.000  N
  N33      1.0000 0.50060  0.46620  0.59500  Biso   1.000  N
  N34      1.0000 0.08200  0.15600  0.84500  Biso   1.000  N
  C85      1.0000 0.47600  0.27000  0.82000  Biso   1.000  C
  H85      1.0000 0.45850  0.29200  0.87150  Biso   1.000  H
  C86      1.0000 0.15300  0.07900  0.88700  Biso   1.000  C
  H86      1.0000 0.16600  0.03730  0.87750  Biso   1.000  H
  C87      1.0000 0.47600  0.20200  0.82100  Biso   1.000  C
  H87      1.0000 0.45900  0.17940  0.87190  Biso   1.000  H
  C88      1.0000 0.54800  0.49100  0.56800  Biso   1.000  C
  H88      1.0000 0.58280  0.48460  0.61310  Biso   1.000  H
  C89      1.0000 0.45300  0.47400  0.52700  Biso   1.000  C
  H89      1.0000 0.41890  0.45560  0.54270  Biso   1.000  H
  C90      1.0000 0.39200  0.06300  0.01600  Biso   1.000  C
  H90      1.0000 0.40410  0.07500  0.08640  Biso   1.000  H
  C91      1.0000 0.10800  0.09700  0.82600  Biso   1.000  C
  H91      1.0000 0.09160  0.07120  0.77000  Biso   1.000  H
  C92      1.0000 0.11600  0.19300  0.91500  Biso   1.000  C
  H92      1.0000 0.10270  0.23410  0.92810  Biso   1.000  H
  C93      1.0000 0.37000  0.02100  0.81500  Biso   1.000  C
  H93      1.0000 0.36130  0.00560  0.74500  Biso   1.000  H
  N35      1.0000 0.42500  0.03900  0.85300  Biso   1.000  N
  C94      1.0000 0.43000  0.05800  0.94700  Biso   1.000  C
  H94      1.0000 0.46740  0.07050  0.97560  Biso   1.000  H
  C95      1.0000 0.16800  0.17500  0.96800  Biso   1.000  C
  H95      1.0000 0.19190  0.20470  0.00810  Biso   1.000  H
  C96      1.0000 0.33000  0.02400  0.87700  Biso   1.000  C
  H96      1.0000 0.29380  0.00640  0.84830  Biso   1.000  H
  C97      1.0000 0.97800  0.34000  0.83000  Biso   1.000  C
  H97      1.0000 0.96610  0.31840  0.88820  Biso   1.000  H
  C98      1.0000 0.97300  0.40200  0.82800  Biso   1.000  C
  H98      1.0000 0.95290  0.42220  0.87690  Biso   1.000  H
  Ag8      1.0000 0.76320  0.57650  0.06500  Biso   1.000  Ag
  N36      1.0000 0.83300  0.55000  0.98300  Biso   1.000  N
  N37      1.0000 0.68380  0.61300  0.96200  Biso   1.000  N
  N38      1.0000 0.00060  0.96620  0.59500  Biso   1.000  N
  N39      1.0000 0.58200  0.65600  0.84500  Biso   1.000  N
  C99      1.0000 0.97600  0.77000  0.82000  Biso   1.000  C
  H99      1.0000 0.95850  0.79200  0.87150  Biso   1.000  H
  C100     1.0000 0.65300  0.57900  0.88700  Biso   1.000  C
  H100     1.0000 0.66600  0.53730  0.87750  Biso   1.000  H
  C101     1.0000 0.97600  0.70200  0.82100  Biso   1.000  C
  H101     1.0000 0.95900  0.67940  0.87190  Biso   1.000  H
  C102     1.0000 0.04800  0.99100  0.56800  Biso   1.000  C
  H102     1.0000 0.08280  0.98460  0.61310  Biso   1.000  H
  C103     1.0000 0.95300  0.97400  0.52700  Biso   1.000  C
  H103     1.0000 0.91890  0.95560  0.54270  Biso   1.000  H
  C104     1.0000 0.89200  0.56300  0.01600  Biso   1.000  C
  H104     1.0000 0.90410  0.57500  0.08640  Biso   1.000  H
  C105     1.0000 0.60800  0.59700  0.82600  Biso   1.000  C
  H105     1.0000 0.59160  0.57120  0.77000  Biso   1.000  H
  C106     1.0000 0.61600  0.69300  0.91500  Biso   1.000  C
  H106     1.0000 0.60270  0.73410  0.92810  Biso   1.000  H
  C107     1.0000 0.87000  0.52100  0.81500  Biso   1.000  C
  H107     1.0000 0.86130  0.50560  0.74500  Biso   1.000  H
  N40      1.0000 0.92500  0.53900  0.85300  Biso   1.000  N
  C108     1.0000 0.93000  0.55800  0.94700  Biso   1.000  C
  H108     1.0000 0.96740  0.57050  0.97560  Biso   1.000  H
  C109     1.0000 0.66800  0.67500  0.96800  Biso   1.000  C
  H109     1.0000 0.69190  0.70470  0.00810  Biso   1.000  H
  C110     1.0000 0.83000  0.52400  0.87700  Biso   1.000  C
  H110     1.0000 0.79380  0.50640  0.84830  Biso   1.000  H
  C111     1.0000 0.47800  0.84000  0.83000  Biso   1.000  C
  H111     1.0000 0.46610  0.81840  0.88820  Biso   1.000  H
  C112     1.0000 0.47300  0.90200  0.82800  Biso   1.000  C
  H112     1.0000 0.45290  0.92220  0.87690  Biso   1.000  H
  Ag9      1.0000 0.50000  0.59000  0.25000  Biso   1.000  Ag
  Ag10     1.0000 0.50000  0.94590  0.25000  Biso   1.000  Ag
  N41      1.0000 0.50000  0.82900  0.25000  Biso   1.000  N
  N42      1.0000 0.50000  0.69700  0.25000  Biso   1.000  N
  Ag11     1.0000 0.00000  0.09000  0.25000  Biso   1.000  Ag
  Ag12     1.0000 0.00000  0.44590  0.25000  Biso   1.000  Ag
  N43      1.0000 0.00000  0.32900  0.25000  Biso   1.000  N
  N44      1.0000 0.00000  0.19700  0.25000  Biso   1.000  N
  Ag13     1.0000 0.50000  0.41000  0.75000  Biso   1.000  Ag
  Ag14     1.0000 0.50000  0.05410  0.75000  Biso   1.000  Ag
  N45      1.0000 0.50000  0.17100  0.75000  Biso   1.000  N
  N46      1.0000 0.50000  0.30300  0.75000  Biso   1.000  N
  Ag15     1.0000 0.00000  0.91000  0.75000  Biso   1.000  Ag
  Ag16     1.0000 0.00000  0.55410  0.75000  Biso   1.000  Ag
  N47      1.0000 0.00000  0.67100  0.75000  Biso   1.000  N
  N48      1.0000 0.00000  0.80300  0.75000  Biso   1.000  N
  Ag17     1.0000 0.00000  0.80750  0.25000  Biso   1.000  Ag
  N49      1.0000 0.00000  0.69800  0.25000  Biso   1.000  N
  N50      1.0000 0.00000  0.55700  0.25000  Biso   1.000  N
  Ag18     1.0000 0.50000  0.30750  0.25000  Biso   1.000  Ag
  N51      1.0000 0.50000  0.19800  0.25000  Biso   1.000  N
  N52      1.0000 0.50000  0.05700  0.25000  Biso   1.000  N
  Ag19     1.0000 0.00000  0.19250  0.75000  Biso   1.000  Ag
  N53      1.0000 0.00000  0.30200  0.75000  Biso   1.000  N
  N54      1.0000 0.00000  0.44300  0.75000  Biso   1.000  N
  Ag20     1.0000 0.50000  0.69250  0.75000  Biso   1.000  Ag
  N55      1.0000 0.50000  0.80200  0.75000  Biso   1.000  N
  N56      1.0000 0.50000  0.94300  0.75000  Biso   1.000  N
