data_image0
_cell_length_a       7.358
_cell_length_b       9.99696
_cell_length_c       15.0578
_cell_angle_alpha    109.387
_cell_angle_beta     98.498
_cell_angle_gamma    90

_symmetry_space_group_name_H-M    P 1
_symmetry_int_tables_number       1

loop_
  _symmetry_equiv_pos_as_xyz
  'x, y, z'

loop_
  _atom_site_label
  _atom_site_occupancy
  _atom_site_fract_x
  _atom_site_fract_y
  _atom_site_fract_z
  _atom_site_thermal_displace_type
  _atom_site_B_iso_or_equiv
  _atom_site_type_symbol
  Cd1      1.0000 0.00000  0.50000  0.50000  Biso   1.000  Cd
  Cd2      1.0000 0.50000  0.00000  0.50000  Biso   1.000  Cd
  H1       1.0000 0.82380  0.47440  0.67640  Biso   1.000  H
  H2       1.0000 0.75970  0.59490  0.82540  Biso   1.000  H
  H3       1.0000 0.87620  0.95820  0.78400  Biso   1.000  H
  H4       1.0000 0.94380  0.82690  0.63700  Biso   1.000  H
  H5       1.0000 0.67620  0.79800  0.32360  Biso   1.000  H
  H6       1.0000 0.74030  0.76950  0.17460  Biso   1.000  H
  H7       1.0000 0.62380  0.17420  0.21600  Biso   1.000  H
  H8       1.0000 0.55620  0.18990  0.36300  Biso   1.000  H
  H9       1.0000 0.17620  0.52560  0.32360  Biso   1.000  H
  H10      1.0000 0.24030  0.40510  0.17460  Biso   1.000  H
  H11      1.0000 0.12380  0.04180  0.21600  Biso   1.000  H
  H12      1.0000 0.05620  0.17310  0.36300  Biso   1.000  H
  H13      1.0000 0.32380  0.20200  0.67640  Biso   1.000  H
  H14      1.0000 0.25970  0.23050  0.82540  Biso   1.000  H
  H15      1.0000 0.37620  0.82580  0.78400  Biso   1.000  H
  H16      1.0000 0.44380  0.81010  0.63700  Biso   1.000  H
  C1       1.0000 0.83900  0.57299  0.69918  Biso   1.000  C
  C2       1.0000 0.79860  0.64464  0.78868  Biso   1.000  C
  C3       1.0000 0.81670  0.79181  0.82342  Biso   1.000  C
  C4       1.0000 0.86820  0.85958  0.76456  Biso   1.000  C
  C5       1.0000 0.90840  0.77942  0.67584  Biso   1.000  C
  C6       1.0000 0.77990  0.87035  0.92050  Biso   1.000  C
  C7       1.0000 0.60650  0.65007  0.44314  Biso   1.000  C
  C8       1.0000 0.66100  0.87381  0.30082  Biso   1.000  C
  C9       1.0000 0.70140  0.85596  0.21132  Biso   1.000  C
  C10      1.0000 0.68330  0.96839  0.17658  Biso   1.000  C
  C11      1.0000 0.63180  0.09502  0.23544  Biso   1.000  C
  C12      1.0000 0.59160  0.10358  0.32416  Biso   1.000  C
  C13      1.0000 0.72010  0.94985  0.07950  Biso   1.000  C
  C14      1.0000 0.89350  0.20693  0.55686  Biso   1.000  C
  C15      1.0000 0.16100  0.42701  0.30082  Biso   1.000  C
  C16      1.0000 0.20140  0.35536  0.21132  Biso   1.000  C
  C17      1.0000 0.18330  0.20819  0.17658  Biso   1.000  C
  C18      1.0000 0.13180  0.14042  0.23544  Biso   1.000  C
  C19      1.0000 0.09160  0.22058  0.32416  Biso   1.000  C
  C20      1.0000 0.22010  0.12965  0.07950  Biso   1.000  C
  C21      1.0000 0.39350  0.34993  0.55686  Biso   1.000  C
  C22      1.0000 0.33900  0.12619  0.69918  Biso   1.000  C
  C23      1.0000 0.29860  0.14404  0.78868  Biso   1.000  C
  C24      1.0000 0.31670  0.03161  0.82342  Biso   1.000  C
  C25      1.0000 0.36820  0.90498  0.76456  Biso   1.000  C
  C26      1.0000 0.40840  0.89642  0.67584  Biso   1.000  C
  C27      1.0000 0.27990  0.05015  0.92050  Biso   1.000  C
  C28      1.0000 0.10650  0.79307  0.44314  Biso   1.000  C
  S1       1.0000 0.65913  0.48379  0.39684  Biso   1.000  S
  S2       1.0000 0.84087  0.08695  0.60316  Biso   1.000  S
  S3       1.0000 0.34087  0.51621  0.60316  Biso   1.000  S
  S4       1.0000 0.15913  0.91305  0.39684  Biso   1.000  S
  S5       1.0000 0.75000  0.78587  0.00000  Biso   1.000  S
  S6       1.0000 0.25000  0.21413  1.00000  Biso   1.000  S
  N1       1.0000 0.89870  0.63745  0.64330  Biso   1.000  N
  N2       1.0000 0.76710  0.00685  0.95370  Biso   1.000  N
  N3       1.0000 0.57040  0.76649  0.47518  Biso   1.000  N
  N4       1.0000 0.60130  0.99415  0.35670  Biso   1.000  N
  N5       1.0000 0.73290  0.05315  0.04630  Biso   1.000  N
  N6       1.0000 0.92960  0.29131  0.52482  Biso   1.000  N
  N7       1.0000 0.10130  0.36255  0.35670  Biso   1.000  N
  N8       1.0000 0.23290  0.99315  0.04630  Biso   1.000  N
  N9       1.0000 0.42960  0.23351  0.52482  Biso   1.000  N
  N10      1.0000 0.39870  0.00585  0.64330  Biso   1.000  N
  N11      1.0000 0.26710  0.94685  0.95370  Biso   1.000  N
  N12      1.0000 0.07040  0.70869  0.47518  Biso   1.000  N
