data_image0
_cell_length_a       21.6492
_cell_length_b       9.9528
_cell_length_c       8.4146
_cell_angle_alpha    90
_cell_angle_beta     105.597
_cell_angle_gamma    90

_symmetry_space_group_name_H-M    "P 1"
_symmetry_int_tables_number       1

loop_
  _symmetry_equiv_pos_as_xyz
  'x, y, z'

loop_
  _atom_site_label
  _atom_site_occupancy
  _atom_site_fract_x
  _atom_site_fract_y
  _atom_site_fract_z
  _atom_site_thermal_displace_type
  _atom_site_B_iso_or_equiv
  _atom_site_type_symbol
  H1       1.0000 0.57050  0.16300  0.83100  Biso   1.000  H
  C1       1.0000 0.61871  0.32820  0.62500  Biso   1.000  C
  C2       1.0000 0.64279  0.27730  0.79720  Biso   1.000  C
  H2       1.0000 0.67000  0.34460  0.86500  Biso   1.000  H
  H3       1.0000 0.66830  0.19700  0.79790  Biso   1.000  H
  C3       1.0000 0.66168  0.13030  0.10650  Biso   1.000  C
  C4       1.0000 0.61081  0.23670  0.04900  Biso   1.000  C
  H4       1.0000 0.57460  0.21640  0.09240  Biso   1.000  H
  H5       1.0000 0.62800  0.32300  0.09310  Biso   1.000  H
  N1       1.0000 0.56326  0.39210  0.57080  Biso   1.000  N
  N2       1.0000 0.56148  0.43270  0.41680  Biso   1.000  N
  N3       1.0000 0.61359  0.39400  0.38030  Biso   1.000  N
  N4       1.0000 0.65041  0.32650  0.50890  Biso   1.000  N
  N5       1.0000 0.66227  0.01650  0.02390  Biso   1.000  N
  N6       1.0000 0.71588  0.95250  0.10960  Biso   1.000  N
  N7       1.0000 0.74545  0.02290  0.23820  Biso   1.000  N
  N8       1.0000 0.71189  0.13780  0.23880  Biso   1.000  N
  N9       1.0000 0.58815  0.24590  0.86680  Biso   1.000  N
  H6       1.0000 0.07050  0.66300  0.83100  Biso   1.000  H
  C5       1.0000 0.11871  0.82820  0.62500  Biso   1.000  C
  C6       1.0000 0.14279  0.77730  0.79720  Biso   1.000  C
  H7       1.0000 0.17000  0.84460  0.86500  Biso   1.000  H
  H8       1.0000 0.16830  0.69700  0.79790  Biso   1.000  H
  C7       1.0000 0.16168  0.63030  0.10650  Biso   1.000  C
  C8       1.0000 0.11081  0.73670  0.04900  Biso   1.000  C
  H9       1.0000 0.07460  0.71640  0.09240  Biso   1.000  H
  H10      1.0000 0.12800  0.82300  0.09310  Biso   1.000  H
  N10      1.0000 0.06326  0.89210  0.57080  Biso   1.000  N
  N11      1.0000 0.06148  0.93270  0.41680  Biso   1.000  N
  N12      1.0000 0.11359  0.89400  0.38030  Biso   1.000  N
  N13      1.0000 0.15041  0.82650  0.50890  Biso   1.000  N
  N14      1.0000 0.16227  0.51650  0.02390  Biso   1.000  N
  N15      1.0000 0.21588  0.45250  0.10960  Biso   1.000  N
  N16      1.0000 0.24545  0.52290  0.23820  Biso   1.000  N
  N17      1.0000 0.21189  0.63780  0.23880  Biso   1.000  N
  N18      1.0000 0.08815  0.74590  0.86680  Biso   1.000  N
  H11      1.0000 0.42950  0.16300  0.66900  Biso   1.000  H
  C9       1.0000 0.38129  0.32820  0.87500  Biso   1.000  C
  C10      1.0000 0.35721  0.27730  0.70280  Biso   1.000  C
  H12      1.0000 0.33000  0.34460  0.63500  Biso   1.000  H
  H13      1.0000 0.33170  0.19700  0.70210  Biso   1.000  H
  C11      1.0000 0.33832  0.13030  0.39350  Biso   1.000  C
  C12      1.0000 0.38919  0.23670  0.45100  Biso   1.000  C
  H14      1.0000 0.42540  0.21640  0.40760  Biso   1.000  H
  H15      1.0000 0.37200  0.32300  0.40690  Biso   1.000  H
  N19      1.0000 0.43674  0.39210  0.92920  Biso   1.000  N
  N20      1.0000 0.43852  0.43270  0.08320  Biso   1.000  N
  N21      1.0000 0.38641  0.39400  0.11970  Biso   1.000  N
  N22      1.0000 0.34959  0.32650  0.99110  Biso   1.000  N
  N23      1.0000 0.33773  0.01650  0.47610  Biso   1.000  N
  N24      1.0000 0.28412  0.95250  0.39040  Biso   1.000  N
  N25      1.0000 0.25455  0.02290  0.26180  Biso   1.000  N
  N26      1.0000 0.28811  0.13780  0.26120  Biso   1.000  N
  N27      1.0000 0.41185  0.24590  0.63320  Biso   1.000  N
  H16      1.0000 0.92950  0.66300  0.66900  Biso   1.000  H
  C13      1.0000 0.88129  0.82820  0.87500  Biso   1.000  C
  C14      1.0000 0.85721  0.77730  0.70280  Biso   1.000  C
  H17      1.0000 0.83000  0.84460  0.63500  Biso   1.000  H
  H18      1.0000 0.83170  0.69700  0.70210  Biso   1.000  H
  C15      1.0000 0.83832  0.63030  0.39350  Biso   1.000  C
  C16      1.0000 0.88919  0.73670  0.45100  Biso   1.000  C
  H19      1.0000 0.92540  0.71640  0.40760  Biso   1.000  H
  H20      1.0000 0.87200  0.82300  0.40690  Biso   1.000  H
  N28      1.0000 0.93674  0.89210  0.92920  Biso   1.000  N
  N29      1.0000 0.93852  0.93270  0.08320  Biso   1.000  N
  N30      1.0000 0.88641  0.89400  0.11970  Biso   1.000  N
  N31      1.0000 0.84959  0.82650  0.99110  Biso   1.000  N
  N32      1.0000 0.83773  0.51650  0.47610  Biso   1.000  N
  N33      1.0000 0.78412  0.45250  0.39040  Biso   1.000  N
  N34      1.0000 0.75455  0.52290  0.26180  Biso   1.000  N
  N35      1.0000 0.78811  0.63780  0.26120  Biso   1.000  N
  N36      1.0000 0.91185  0.74590  0.63320  Biso   1.000  N
  H21      1.0000 0.42950  0.83700  0.16900  Biso   1.000  H
  C17      1.0000 0.38129  0.67180  0.37500  Biso   1.000  C
  C18      1.0000 0.35721  0.72270  0.20280  Biso   1.000  C
  H22      1.0000 0.33000  0.65540  0.13500  Biso   1.000  H
  H23      1.0000 0.33170  0.80300  0.20210  Biso   1.000  H
  C19      1.0000 0.33832  0.86970  0.89350  Biso   1.000  C
  C20      1.0000 0.38919  0.76330  0.95100  Biso   1.000  C
  H24      1.0000 0.42540  0.78360  0.90760  Biso   1.000  H
  H25      1.0000 0.37200  0.67700  0.90690  Biso   1.000  H
  N37      1.0000 0.43674  0.60790  0.42920  Biso   1.000  N
  N38      1.0000 0.43852  0.56730  0.58320  Biso   1.000  N
  N39      1.0000 0.38641  0.60600  0.61970  Biso   1.000  N
  N40      1.0000 0.34959  0.67350  0.49110  Biso   1.000  N
  N41      1.0000 0.33773  0.98350  0.97610  Biso   1.000  N
  N42      1.0000 0.28412  0.04750  0.89040  Biso   1.000  N
  N43      1.0000 0.25455  0.97710  0.76180  Biso   1.000  N
  N44      1.0000 0.28811  0.86220  0.76120  Biso   1.000  N
  N45      1.0000 0.41185  0.75410  0.13320  Biso   1.000  N
  H26      1.0000 0.92950  0.33700  0.16900  Biso   1.000  H
  C21      1.0000 0.88129  0.17180  0.37500  Biso   1.000  C
  C22      1.0000 0.85721  0.22270  0.20280  Biso   1.000  C
  H27      1.0000 0.83000  0.15540  0.13500  Biso   1.000  H
  H28      1.0000 0.83170  0.30300  0.20210  Biso   1.000  H
  C23      1.0000 0.83832  0.36970  0.89350  Biso   1.000  C
  C24      1.0000 0.88919  0.26330  0.95100  Biso   1.000  C
  H29      1.0000 0.92540  0.28360  0.90760  Biso   1.000  H
  H30      1.0000 0.87200  0.17700  0.90690  Biso   1.000  H
  N46      1.0000 0.93674  0.10790  0.42920  Biso   1.000  N
  N47      1.0000 0.93852  0.06730  0.58320  Biso   1.000  N
  N48      1.0000 0.88641  0.10600  0.61970  Biso   1.000  N
  N49      1.0000 0.84959  0.17350  0.49110  Biso   1.000  N
  N50      1.0000 0.83773  0.48350  0.97610  Biso   1.000  N
  N51      1.0000 0.78412  0.54750  0.89040  Biso   1.000  N
  N52      1.0000 0.75455  0.47710  0.76180  Biso   1.000  N
  N53      1.0000 0.78811  0.36220  0.76120  Biso   1.000  N
  N54      1.0000 0.91185  0.25410  0.13320  Biso   1.000  N
  H31      1.0000 0.57050  0.83700  0.33100  Biso   1.000  H
  C25      1.0000 0.61871  0.67180  0.12500  Biso   1.000  C
  C26      1.0000 0.64279  0.72270  0.29720  Biso   1.000  C
  H32      1.0000 0.67000  0.65540  0.36500  Biso   1.000  H
  H33      1.0000 0.66830  0.80300  0.29790  Biso   1.000  H
  C27      1.0000 0.66168  0.86970  0.60650  Biso   1.000  C
  C28      1.0000 0.61081  0.76330  0.54900  Biso   1.000  C
  H34      1.0000 0.57460  0.78360  0.59240  Biso   1.000  H
  H35      1.0000 0.62800  0.67700  0.59310  Biso   1.000  H
  N55      1.0000 0.56326  0.60790  0.07080  Biso   1.000  N
  N56      1.0000 0.56148  0.56730  0.91680  Biso   1.000  N
  N57      1.0000 0.61359  0.60600  0.88030  Biso   1.000  N
  N58      1.0000 0.65041  0.67350  0.00890  Biso   1.000  N
  N59      1.0000 0.66227  0.98350  0.52390  Biso   1.000  N
  N60      1.0000 0.71588  0.04750  0.60960  Biso   1.000  N
  N61      1.0000 0.74545  0.97710  0.73820  Biso   1.000  N
  N62      1.0000 0.71189  0.86220  0.73880  Biso   1.000  N
  N63      1.0000 0.58815  0.75410  0.36680  Biso   1.000  N
  H36      1.0000 0.07050  0.33700  0.33100  Biso   1.000  H
  C29      1.0000 0.11871  0.17180  0.12500  Biso   1.000  C
  C30      1.0000 0.14279  0.22270  0.29720  Biso   1.000  C
  H37      1.0000 0.17000  0.15540  0.36500  Biso   1.000  H
  H38      1.0000 0.16830  0.30300  0.29790  Biso   1.000  H
  C31      1.0000 0.16168  0.36970  0.60650  Biso   1.000  C
  C32      1.0000 0.11081  0.26330  0.54900  Biso   1.000  C
  H39      1.0000 0.07460  0.28360  0.59240  Biso   1.000  H
  H40      1.0000 0.12800  0.17700  0.59310  Biso   1.000  H
  N64      1.0000 0.06326  0.10790  0.07080  Biso   1.000  N
  N65      1.0000 0.06148  0.06730  0.91680  Biso   1.000  N
  N66      1.0000 0.11359  0.10600  0.88030  Biso   1.000  N
  N67      1.0000 0.15041  0.17350  0.00890  Biso   1.000  N
  N68      1.0000 0.16227  0.48350  0.52390  Biso   1.000  N
  N69      1.0000 0.21588  0.54750  0.60960  Biso   1.000  N
  N70      1.0000 0.24545  0.47710  0.73820  Biso   1.000  N
  N71      1.0000 0.21189  0.36220  0.73880  Biso   1.000  N
  N72      1.0000 0.08815  0.25410  0.36680  Biso   1.000  N
  Cd1      1.0000 0.75000  0.75000  0.00000  Biso   1.000  Cd
  Cd2      1.0000 0.25000  0.75000  0.50000  Biso   1.000  Cd
  Cd3      1.0000 0.25000  0.25000  0.00000  Biso   1.000  Cd
  Cd4      1.0000 0.75000  0.25000  0.50000  Biso   1.000  Cd
  Cd5      1.0000 0.50000  0.40325  0.75000  Biso   1.000  Cd
  Cd6      1.0000 0.00000  0.90325  0.75000  Biso   1.000  Cd
  Cd7      1.0000 0.50000  0.59675  0.25000  Biso   1.000  Cd
  Cd8      1.0000 0.00000  0.09675  0.25000  Biso   1.000  Cd
