data_image0
_cell_length_a       27.148
_cell_length_b       27.148
_cell_length_c       9.957
_cell_angle_alpha    90
_cell_angle_beta     90
_cell_angle_gamma    120

_symmetry_space_group_name_H-M    "P 1"
_symmetry_int_tables_number       1

loop_
  _symmetry_equiv_pos_as_xyz
  'x, y, z'

loop_
  _atom_site_label
  _atom_site_occupancy
  _atom_site_fract_x
  _atom_site_fract_y
  _atom_site_fract_z
  _atom_site_thermal_displace_type
  _atom_site_B_iso_or_equiv
  _atom_site_type_symbol
  C1       1.0000 0.94928  0.55590  0.72730  Biso   1.000  C
  C2       1.0000 0.92454  0.50656  0.81930  Biso   1.000  C
  H1       1.0000 0.90450  0.47160  0.76820  Biso   1.000  H
  H2       1.0000 0.95450  0.50560  0.87010  Biso   1.000  H
  C3       1.0000 0.87010  0.47292  0.02580  Biso   1.000  C
  H3       1.0000 0.86720  0.43740  0.99690  Biso   1.000  H
  H4       1.0000 0.83360  0.46460  0.06240  Biso   1.000  H
  C4       1.0000 0.91483  0.50008  0.12970  Biso   1.000  C
  Cd1      1.0000 0.92990  0.61188  0.99263  Biso   1.000  Cd
  Cl1      1.0000 0.83016  0.57144  0.10575  Biso   1.000  Cl
  H5       1.0000 0.84610  0.49900  0.86900  Biso   1.000  H
  N1       1.0000 0.95216  0.60445  0.75800  Biso   1.000  N
  N2       1.0000 0.88491  0.51177  0.91130  Biso   1.000  N
  N3       1.0000 0.94913  0.55582  0.13960  Biso   1.000  N
  N4       1.0000 0.98102  0.56379  0.24710  Biso   1.000  N
  N5       1.0000 0.98018  0.63907  0.65460  Biso   1.000  N
  N6       1.0000 0.99349  0.61221  0.56680  Biso   1.000  N
  N7       1.0000 0.97437  0.55917  0.61030  Biso   1.000  N
  N8       1.0000 0.96634  0.51411  0.29900  Biso   1.000  N
  N9       1.0000 0.92490  0.47314  0.22750  Biso   1.000  N
  C5       1.0000 0.61595  0.88923  0.06063  Biso   1.000  C
  C6       1.0000 0.59121  0.83989  0.15263  Biso   1.000  C
  H6       1.0000 0.57117  0.80493  0.10153  Biso   1.000  H
  H7       1.0000 0.62117  0.83893  0.20343  Biso   1.000  H
  C7       1.0000 0.53677  0.80625  0.35913  Biso   1.000  C
  H8       1.0000 0.53387  0.77073  0.33023  Biso   1.000  H
  H9       1.0000 0.50027  0.79793  0.39573  Biso   1.000  H
  C8       1.0000 0.58150  0.83341  0.46303  Biso   1.000  C
  Cd2      1.0000 0.59656  0.94521  0.32596  Biso   1.000  Cd
  Cl2      1.0000 0.49683  0.90477  0.43908  Biso   1.000  Cl
  H10      1.0000 0.51277  0.83233  0.20233  Biso   1.000  H
  N10      1.0000 0.61883  0.93778  0.09133  Biso   1.000  N
  N11      1.0000 0.55158  0.84510  0.24463  Biso   1.000  N
  N12      1.0000 0.61580  0.88915  0.47293  Biso   1.000  N
  N13      1.0000 0.64769  0.89712  0.58043  Biso   1.000  N
  N14      1.0000 0.64685  0.97240  0.98793  Biso   1.000  N
  N15      1.0000 0.66016  0.94554  0.90013  Biso   1.000  N
  N16      1.0000 0.64104  0.89250  0.94363  Biso   1.000  N
  N17      1.0000 0.63301  0.84744  0.63233  Biso   1.000  N
  N18      1.0000 0.59157  0.80647  0.56083  Biso   1.000  N
  C9       1.0000 0.28261  0.22257  0.39397  Biso   1.000  C
  C10      1.0000 0.25787  0.17323  0.48597  Biso   1.000  C
  H11      1.0000 0.23783  0.13827  0.43487  Biso   1.000  H
  H12      1.0000 0.28783  0.17227  0.53677  Biso   1.000  H
  C11      1.0000 0.20343  0.13959  0.69247  Biso   1.000  C
  H13      1.0000 0.20053  0.10407  0.66357  Biso   1.000  H
  H14      1.0000 0.16693  0.13127  0.72907  Biso   1.000  H
  C12      1.0000 0.24816  0.16675  0.79637  Biso   1.000  C
  Cd3      1.0000 0.26323  0.27855  0.65930  Biso   1.000  Cd
  Cl3      1.0000 0.16349  0.23811  0.77242  Biso   1.000  Cl
  H15      1.0000 0.17943  0.16567  0.53567  Biso   1.000  H
  N19      1.0000 0.28549  0.27112  0.42467  Biso   1.000  N
  N20      1.0000 0.21824  0.17844  0.57797  Biso   1.000  N
  N21      1.0000 0.28246  0.22249  0.80627  Biso   1.000  N
  N22      1.0000 0.31435  0.23046  0.91377  Biso   1.000  N
  N23      1.0000 0.31351  0.30574  0.32127  Biso   1.000  N
  N24      1.0000 0.32682  0.27888  0.23347  Biso   1.000  N
  N25      1.0000 0.30770  0.22584  0.27697  Biso   1.000  N
  N26      1.0000 0.29967  0.18078  0.96567  Biso   1.000  N
  N27      1.0000 0.25823  0.13981  0.89417  Biso   1.000  N
  C13      1.0000 0.44410  0.39338  0.72730  Biso   1.000  C
  C14      1.0000 0.49344  0.41798  0.81930  Biso   1.000  C
  H16      1.0000 0.52840  0.43290  0.76820  Biso   1.000  H
  H17      1.0000 0.49440  0.44890  0.87010  Biso   1.000  H
  C15      1.0000 0.52708  0.39718  0.02580  Biso   1.000  C
  H18      1.0000 0.56260  0.42980  0.99690  Biso   1.000  H
  H19      1.0000 0.53540  0.36900  0.06240  Biso   1.000  H
  C16      1.0000 0.49992  0.41475  0.12970  Biso   1.000  C
  Cd4      1.0000 0.38812  0.31802  0.99263  Biso   1.000  Cd
  Cl4      1.0000 0.42856  0.25872  0.10575  Biso   1.000  Cl
  H20      1.0000 0.50100  0.34710  0.86900  Biso   1.000  H
  N28      1.0000 0.39555  0.34771  0.75800  Biso   1.000  N
  N29      1.0000 0.48823  0.37314  0.91130  Biso   1.000  N
  N30      1.0000 0.44418  0.39331  0.13960  Biso   1.000  N
  N31      1.0000 0.43621  0.41723  0.24710  Biso   1.000  N
  N32      1.0000 0.36093  0.34111  0.65460  Biso   1.000  N
  N33      1.0000 0.38779  0.38128  0.56680  Biso   1.000  N
  N34      1.0000 0.44083  0.41520  0.61030  Biso   1.000  N
  N35      1.0000 0.48589  0.45223  0.29900  Biso   1.000  N
  N36      1.0000 0.52686  0.45176  0.22750  Biso   1.000  N
  C17      1.0000 0.11077  0.72671  0.06063  Biso   1.000  C
  C18      1.0000 0.16011  0.75131  0.15263  Biso   1.000  C
  H21      1.0000 0.19507  0.76623  0.10153  Biso   1.000  H
  H22      1.0000 0.16107  0.78223  0.20343  Biso   1.000  H
  C19      1.0000 0.19375  0.73051  0.35913  Biso   1.000  C
  H23      1.0000 0.22927  0.76313  0.33023  Biso   1.000  H
  H24      1.0000 0.20207  0.70233  0.39573  Biso   1.000  H
  C20      1.0000 0.16659  0.74808  0.46303  Biso   1.000  C
  Cd5      1.0000 0.05479  0.65135  0.32596  Biso   1.000  Cd
  Cl5      1.0000 0.09523  0.59205  0.43908  Biso   1.000  Cl
  H25      1.0000 0.16767  0.68043  0.20233  Biso   1.000  H
  N37      1.0000 0.06222  0.68104  0.09133  Biso   1.000  N
  N38      1.0000 0.15490  0.70647  0.24463  Biso   1.000  N
  N39      1.0000 0.11085  0.72664  0.47293  Biso   1.000  N
  N40      1.0000 0.10288  0.75056  0.58043  Biso   1.000  N
  N41      1.0000 0.02760  0.67444  0.98793  Biso   1.000  N
  N42      1.0000 0.05446  0.71461  0.90013  Biso   1.000  N
  N43      1.0000 0.10750  0.74853  0.94363  Biso   1.000  N
  N44      1.0000 0.15256  0.78556  0.63233  Biso   1.000  N
  N45      1.0000 0.19353  0.78509  0.56083  Biso   1.000  N
  C21      1.0000 0.77743  0.06005  0.39397  Biso   1.000  C
  C22      1.0000 0.82677  0.08465  0.48597  Biso   1.000  C
  H26      1.0000 0.86173  0.09957  0.43487  Biso   1.000  H
  H27      1.0000 0.82773  0.11557  0.53677  Biso   1.000  H
  C23      1.0000 0.86041  0.06385  0.69247  Biso   1.000  C
  H28      1.0000 0.89593  0.09647  0.66357  Biso   1.000  H
  H29      1.0000 0.86873  0.03567  0.72907  Biso   1.000  H
  C24      1.0000 0.83325  0.08142  0.79637  Biso   1.000  C
  Cd6      1.0000 0.72145  0.98468  0.65930  Biso   1.000  Cd
  Cl6      1.0000 0.76189  0.92539  0.77242  Biso   1.000  Cl
  H30      1.0000 0.83433  0.01377  0.53567  Biso   1.000  H
  N46      1.0000 0.72888  0.01438  0.42467  Biso   1.000  N
  N47      1.0000 0.82156  0.03981  0.57797  Biso   1.000  N
  N48      1.0000 0.77751  0.05998  0.80627  Biso   1.000  N
  N49      1.0000 0.76954  0.08390  0.91377  Biso   1.000  N
  N50      1.0000 0.69426  0.00778  0.32127  Biso   1.000  N
  N51      1.0000 0.72112  0.04795  0.23347  Biso   1.000  N
  N52      1.0000 0.77416  0.08187  0.27697  Biso   1.000  N
  N53      1.0000 0.81922  0.11890  0.96567  Biso   1.000  N
  N54      1.0000 0.86019  0.11843  0.89417  Biso   1.000  N
  C25      1.0000 0.60662  0.05072  0.72730  Biso   1.000  C
  C26      1.0000 0.58202  0.07546  0.81930  Biso   1.000  C
  H31      1.0000 0.56710  0.09550  0.76820  Biso   1.000  H
  H32      1.0000 0.55110  0.04550  0.87010  Biso   1.000  H
  C27      1.0000 0.60282  0.12990  0.02580  Biso   1.000  C
  H33      1.0000 0.57020  0.13280  0.99690  Biso   1.000  H
  H34      1.0000 0.63100  0.16640  0.06240  Biso   1.000  H
  C28      1.0000 0.58525  0.08517  0.12970  Biso   1.000  C
  Cd7      1.0000 0.68199  0.07010  0.99263  Biso   1.000  Cd
  Cl7      1.0000 0.74128  0.16984  0.10575  Biso   1.000  Cl
  H35      1.0000 0.65290  0.15390  0.86900  Biso   1.000  H
  N55      1.0000 0.65229  0.04784  0.75800  Biso   1.000  N
  N56      1.0000 0.62686  0.11509  0.91130  Biso   1.000  N
  N57      1.0000 0.60669  0.05087  0.13960  Biso   1.000  N
  N58      1.0000 0.58277  0.01898  0.24710  Biso   1.000  N
  N59      1.0000 0.65889  0.01982  0.65460  Biso   1.000  N
  N60      1.0000 0.61872  0.00651  0.56680  Biso   1.000  N
  N61      1.0000 0.58480  0.02563  0.61030  Biso   1.000  N
  N62      1.0000 0.54777  0.03366  0.29900  Biso   1.000  N
  N63      1.0000 0.54824  0.07510  0.22750  Biso   1.000  N
  C29      1.0000 0.27329  0.38405  0.06063  Biso   1.000  C
  C30      1.0000 0.24869  0.40879  0.15263  Biso   1.000  C
  H36      1.0000 0.23377  0.42883  0.10153  Biso   1.000  H
  H37      1.0000 0.21777  0.37883  0.20343  Biso   1.000  H
  C31      1.0000 0.26949  0.46323  0.35913  Biso   1.000  C
  H38      1.0000 0.23687  0.46613  0.33023  Biso   1.000  H
  H39      1.0000 0.29767  0.49973  0.39573  Biso   1.000  H
  C32      1.0000 0.25192  0.41850  0.46303  Biso   1.000  C
  Cd8      1.0000 0.34865  0.40344  0.32596  Biso   1.000  Cd
  Cl8      1.0000 0.40795  0.50317  0.43908  Biso   1.000  Cl
  H40      1.0000 0.31957  0.48723  0.20233  Biso   1.000  H
  N64      1.0000 0.31896  0.38117  0.09133  Biso   1.000  N
  N65      1.0000 0.29353  0.44842  0.24463  Biso   1.000  N
  N66      1.0000 0.27336  0.38420  0.47293  Biso   1.000  N
  N67      1.0000 0.24944  0.35231  0.58043  Biso   1.000  N
  N68      1.0000 0.32556  0.35315  0.98793  Biso   1.000  N
  N69      1.0000 0.28539  0.33984  0.90013  Biso   1.000  N
  N70      1.0000 0.25147  0.35896  0.94363  Biso   1.000  N
  N71      1.0000 0.21444  0.36699  0.63233  Biso   1.000  N
  N72      1.0000 0.21491  0.40843  0.56083  Biso   1.000  N
  C33      1.0000 0.93995  0.71739  0.39397  Biso   1.000  C
  C34      1.0000 0.91535  0.74213  0.48597  Biso   1.000  C
  H41      1.0000 0.90043  0.76217  0.43487  Biso   1.000  H
  H42      1.0000 0.88443  0.71217  0.53677  Biso   1.000  H
  C35      1.0000 0.93615  0.79657  0.69247  Biso   1.000  C
  H43      1.0000 0.90353  0.79947  0.66357  Biso   1.000  H
  H44      1.0000 0.96433  0.83307  0.72907  Biso   1.000  H
  C36      1.0000 0.91858  0.75184  0.79637  Biso   1.000  C
  Cd9      1.0000 0.01532  0.73677  0.65930  Biso   1.000  Cd
  Cl9      1.0000 0.07461  0.83651  0.77242  Biso   1.000  Cl
  H45      1.0000 0.98623  0.82057  0.53567  Biso   1.000  H
  N73      1.0000 0.98562  0.71451  0.42467  Biso   1.000  N
  N74      1.0000 0.96019  0.78176  0.57797  Biso   1.000  N
  N75      1.0000 0.94002  0.71754  0.80627  Biso   1.000  N
  N76      1.0000 0.91610  0.68565  0.91377  Biso   1.000  N
  N77      1.0000 0.99222  0.68649  0.32127  Biso   1.000  N
  N78      1.0000 0.95205  0.67318  0.23347  Biso   1.000  N
  N79      1.0000 0.91813  0.69230  0.27697  Biso   1.000  N
  N80      1.0000 0.88110  0.70033  0.96567  Biso   1.000  N
  N81      1.0000 0.88157  0.74177  0.89417  Biso   1.000  N
  C37      1.0000 0.05072  0.44410  0.27270  Biso   1.000  C
  C38      1.0000 0.07546  0.49344  0.18070  Biso   1.000  C
  H46      1.0000 0.09550  0.52840  0.23180  Biso   1.000  H
  H47      1.0000 0.04550  0.49440  0.12990  Biso   1.000  H
  C39      1.0000 0.12990  0.52708  0.97420  Biso   1.000  C
  H48      1.0000 0.13280  0.56260  0.00310  Biso   1.000  H
  H49      1.0000 0.16640  0.53540  0.93760  Biso   1.000  H
  C40      1.0000 0.08517  0.49992  0.87030  Biso   1.000  C
  Cd10     1.0000 0.07010  0.38812  0.00737  Biso   1.000  Cd
  Cl10     1.0000 0.16984  0.42856  0.89425  Biso   1.000  Cl
  H50      1.0000 0.15390  0.50100  0.13100  Biso   1.000  H
  N82      1.0000 0.04784  0.39555  0.24200  Biso   1.000  N
  N83      1.0000 0.11509  0.48823  0.08870  Biso   1.000  N
  N84      1.0000 0.05087  0.44418  0.86040  Biso   1.000  N
  N85      1.0000 0.01898  0.43621  0.75290  Biso   1.000  N
  N86      1.0000 0.01982  0.36093  0.34540  Biso   1.000  N
  N87      1.0000 0.00651  0.38779  0.43320  Biso   1.000  N
  N88      1.0000 0.02563  0.44083  0.38970  Biso   1.000  N
  N89      1.0000 0.03366  0.48589  0.70100  Biso   1.000  N
  N90      1.0000 0.07510  0.52686  0.77250  Biso   1.000  N
  C41      1.0000 0.71739  0.77743  0.60603  Biso   1.000  C
  C42      1.0000 0.74213  0.82677  0.51403  Biso   1.000  C
  H51      1.0000 0.76217  0.86173  0.56513  Biso   1.000  H
  H52      1.0000 0.71217  0.82773  0.46323  Biso   1.000  H
  C43      1.0000 0.79657  0.86041  0.30753  Biso   1.000  C
  H53      1.0000 0.79947  0.89593  0.33643  Biso   1.000  H
  H54      1.0000 0.83307  0.86873  0.27093  Biso   1.000  H
  C44      1.0000 0.75184  0.83325  0.20363  Biso   1.000  C
  Cd11     1.0000 0.73677  0.72145  0.34070  Biso   1.000  Cd
  Cl11     1.0000 0.83651  0.76189  0.22758  Biso   1.000  Cl
  H55      1.0000 0.82057  0.83433  0.46433  Biso   1.000  H
  N91      1.0000 0.71451  0.72888  0.57533  Biso   1.000  N
  N92      1.0000 0.78176  0.82156  0.42203  Biso   1.000  N
  N93      1.0000 0.71754  0.77751  0.19373  Biso   1.000  N
  N94      1.0000 0.68565  0.76954  0.08623  Biso   1.000  N
  N95      1.0000 0.68649  0.69426  0.67873  Biso   1.000  N
  N96      1.0000 0.67318  0.72112  0.76653  Biso   1.000  N
  N97      1.0000 0.69230  0.77416  0.72303  Biso   1.000  N
  N98      1.0000 0.70033  0.81922  0.03433  Biso   1.000  N
  N99      1.0000 0.74177  0.86019  0.10583  Biso   1.000  N
  C45      1.0000 0.38405  0.11077  0.93937  Biso   1.000  C
  C46      1.0000 0.40879  0.16011  0.84737  Biso   1.000  C
  H56      1.0000 0.42883  0.19507  0.89847  Biso   1.000  H
  H57      1.0000 0.37883  0.16107  0.79657  Biso   1.000  H
  C47      1.0000 0.46323  0.19375  0.64087  Biso   1.000  C
  H58      1.0000 0.46613  0.22927  0.66977  Biso   1.000  H
  H59      1.0000 0.49973  0.20207  0.60427  Biso   1.000  H
  C48      1.0000 0.41850  0.16659  0.53697  Biso   1.000  C
  Cd12     1.0000 0.40344  0.05479  0.67404  Biso   1.000  Cd
  Cl12     1.0000 0.50317  0.09523  0.56092  Biso   1.000  Cl
  H60      1.0000 0.48723  0.16767  0.79767  Biso   1.000  H
  N100     1.0000 0.38117  0.06222  0.90867  Biso   1.000  N
  N101     1.0000 0.44842  0.15490  0.75537  Biso   1.000  N
  N102     1.0000 0.38420  0.11085  0.52707  Biso   1.000  N
  N103     1.0000 0.35231  0.10288  0.41957  Biso   1.000  N
  N104     1.0000 0.35315  0.02760  0.01207  Biso   1.000  N
  N105     1.0000 0.33984  0.05446  0.09987  Biso   1.000  N
  N106     1.0000 0.35896  0.10750  0.05637  Biso   1.000  N
  N107     1.0000 0.36699  0.15256  0.36767  Biso   1.000  N
  N108     1.0000 0.40843  0.19353  0.43917  Biso   1.000  N
  C49      1.0000 0.55590  0.60662  0.27270  Biso   1.000  C
  C50      1.0000 0.50656  0.58202  0.18070  Biso   1.000  C
  H61      1.0000 0.47160  0.56710  0.23180  Biso   1.000  H
  H62      1.0000 0.50560  0.55110  0.12990  Biso   1.000  H
  C51      1.0000 0.47292  0.60282  0.97420  Biso   1.000  C
  H63      1.0000 0.43740  0.57020  0.00310  Biso   1.000  H
  H64      1.0000 0.46460  0.63100  0.93760  Biso   1.000  H
  C52      1.0000 0.50008  0.58525  0.87030  Biso   1.000  C
  Cd13     1.0000 0.61188  0.68199  0.00737  Biso   1.000  Cd
  Cl13     1.0000 0.57144  0.74128  0.89425  Biso   1.000  Cl
  H65      1.0000 0.49900  0.65290  0.13100  Biso   1.000  H
  N109     1.0000 0.60445  0.65229  0.24200  Biso   1.000  N
  N110     1.0000 0.51177  0.62686  0.08870  Biso   1.000  N
  N111     1.0000 0.55582  0.60669  0.86040  Biso   1.000  N
  N112     1.0000 0.56379  0.58277  0.75290  Biso   1.000  N
  N113     1.0000 0.63907  0.65889  0.34540  Biso   1.000  N
  N114     1.0000 0.61221  0.61872  0.43320  Biso   1.000  N
  N115     1.0000 0.55917  0.58480  0.38970  Biso   1.000  N
  N116     1.0000 0.51411  0.54777  0.70100  Biso   1.000  N
  N117     1.0000 0.47314  0.54824  0.77250  Biso   1.000  N
  C53      1.0000 0.22257  0.93995  0.60603  Biso   1.000  C
  C54      1.0000 0.17323  0.91535  0.51403  Biso   1.000  C
  H66      1.0000 0.13827  0.90043  0.56513  Biso   1.000  H
  H67      1.0000 0.17227  0.88443  0.46323  Biso   1.000  H
  C55      1.0000 0.13959  0.93615  0.30753  Biso   1.000  C
  H68      1.0000 0.10407  0.90353  0.33643  Biso   1.000  H
  H69      1.0000 0.13127  0.96433  0.27093  Biso   1.000  H
  C56      1.0000 0.16675  0.91858  0.20363  Biso   1.000  C
  Cd14     1.0000 0.27855  0.01532  0.34070  Biso   1.000  Cd
  Cl14     1.0000 0.23811  0.07461  0.22758  Biso   1.000  Cl
  H70      1.0000 0.16567  0.98623  0.46433  Biso   1.000  H
  N118     1.0000 0.27112  0.98562  0.57533  Biso   1.000  N
  N119     1.0000 0.17844  0.96019  0.42203  Biso   1.000  N
  N120     1.0000 0.22249  0.94002  0.19373  Biso   1.000  N
  N121     1.0000 0.23046  0.91610  0.08623  Biso   1.000  N
  N122     1.0000 0.30574  0.99222  0.67873  Biso   1.000  N
  N123     1.0000 0.27888  0.95205  0.76653  Biso   1.000  N
  N124     1.0000 0.22584  0.91813  0.72303  Biso   1.000  N
  N125     1.0000 0.18078  0.88110  0.03433  Biso   1.000  N
  N126     1.0000 0.13981  0.88157  0.10583  Biso   1.000  N
  C57      1.0000 0.88923  0.27329  0.93937  Biso   1.000  C
  C58      1.0000 0.83989  0.24869  0.84737  Biso   1.000  C
  H71      1.0000 0.80493  0.23377  0.89847  Biso   1.000  H
  H72      1.0000 0.83893  0.21777  0.79657  Biso   1.000  H
  C59      1.0000 0.80625  0.26949  0.64087  Biso   1.000  C
  H73      1.0000 0.77073  0.23687  0.66977  Biso   1.000  H
  H74      1.0000 0.79793  0.29767  0.60427  Biso   1.000  H
  C60      1.0000 0.83341  0.25192  0.53697  Biso   1.000  C
  Cd15     1.0000 0.94521  0.34865  0.67404  Biso   1.000  Cd
  Cl15     1.0000 0.90477  0.40795  0.56092  Biso   1.000  Cl
  H75      1.0000 0.83233  0.31957  0.79767  Biso   1.000  H
  N127     1.0000 0.93778  0.31896  0.90867  Biso   1.000  N
  N128     1.0000 0.84510  0.29353  0.75537  Biso   1.000  N
  N129     1.0000 0.88915  0.27336  0.52707  Biso   1.000  N
  N130     1.0000 0.89712  0.24944  0.41957  Biso   1.000  N
  N131     1.0000 0.97240  0.32556  0.01207  Biso   1.000  N
  N132     1.0000 0.94554  0.28539  0.09987  Biso   1.000  N
  N133     1.0000 0.89250  0.25147  0.05637  Biso   1.000  N
  N134     1.0000 0.84744  0.21444  0.36767  Biso   1.000  N
  N135     1.0000 0.80647  0.21491  0.43917  Biso   1.000  N
  C61      1.0000 0.39338  0.94928  0.27270  Biso   1.000  C
  C62      1.0000 0.41798  0.92454  0.18070  Biso   1.000  C
  H76      1.0000 0.43290  0.90450  0.23180  Biso   1.000  H
  H77      1.0000 0.44890  0.95450  0.12990  Biso   1.000  H
  C63      1.0000 0.39718  0.87010  0.97420  Biso   1.000  C
  H78      1.0000 0.42980  0.86720  0.00310  Biso   1.000  H
  H79      1.0000 0.36900  0.83360  0.93760  Biso   1.000  H
  C64      1.0000 0.41475  0.91483  0.87030  Biso   1.000  C
  Cd16     1.0000 0.31802  0.92990  0.00737  Biso   1.000  Cd
  Cl16     1.0000 0.25872  0.83016  0.89425  Biso   1.000  Cl
  H80      1.0000 0.34710  0.84610  0.13100  Biso   1.000  H
  N136     1.0000 0.34771  0.95216  0.24200  Biso   1.000  N
  N137     1.0000 0.37314  0.88491  0.08870  Biso   1.000  N
  N138     1.0000 0.39331  0.94913  0.86040  Biso   1.000  N
  N139     1.0000 0.41723  0.98102  0.75290  Biso   1.000  N
  N140     1.0000 0.34111  0.98018  0.34540  Biso   1.000  N
  N141     1.0000 0.38128  0.99349  0.43320  Biso   1.000  N
  N142     1.0000 0.41520  0.97437  0.38970  Biso   1.000  N
  N143     1.0000 0.45223  0.96634  0.70100  Biso   1.000  N
  N144     1.0000 0.45176  0.92490  0.77250  Biso   1.000  N
  C65      1.0000 0.06005  0.28261  0.60603  Biso   1.000  C
  C66      1.0000 0.08465  0.25787  0.51403  Biso   1.000  C
  H81      1.0000 0.09957  0.23783  0.56513  Biso   1.000  H
  H82      1.0000 0.11557  0.28783  0.46323  Biso   1.000  H
  C67      1.0000 0.06385  0.20343  0.30753  Biso   1.000  C
  H83      1.0000 0.09647  0.20053  0.33643  Biso   1.000  H
  H84      1.0000 0.03567  0.16693  0.27093  Biso   1.000  H
  C68      1.0000 0.08142  0.24816  0.20363  Biso   1.000  C
  Cd17     1.0000 0.98468  0.26323  0.34070  Biso   1.000  Cd
  Cl17     1.0000 0.92539  0.16349  0.22758  Biso   1.000  Cl
  H85      1.0000 0.01377  0.17943  0.46433  Biso   1.000  H
  N145     1.0000 0.01438  0.28549  0.57533  Biso   1.000  N
  N146     1.0000 0.03981  0.21824  0.42203  Biso   1.000  N
  N147     1.0000 0.05998  0.28246  0.19373  Biso   1.000  N
  N148     1.0000 0.08390  0.31435  0.08623  Biso   1.000  N
  N149     1.0000 0.00778  0.31351  0.67873  Biso   1.000  N
  N150     1.0000 0.04795  0.32682  0.76653  Biso   1.000  N
  N151     1.0000 0.08187  0.30770  0.72303  Biso   1.000  N
  N152     1.0000 0.11890  0.29967  0.03433  Biso   1.000  N
  N153     1.0000 0.11843  0.25823  0.10583  Biso   1.000  N
  C69      1.0000 0.72671  0.61595  0.93937  Biso   1.000  C
  C70      1.0000 0.75131  0.59121  0.84737  Biso   1.000  C
  H86      1.0000 0.76623  0.57117  0.89847  Biso   1.000  H
  H87      1.0000 0.78223  0.62117  0.79657  Biso   1.000  H
  C71      1.0000 0.73051  0.53677  0.64087  Biso   1.000  C
  H88      1.0000 0.76313  0.53387  0.66977  Biso   1.000  H
  H89      1.0000 0.70233  0.50027  0.60427  Biso   1.000  H
  C72      1.0000 0.74808  0.58150  0.53697  Biso   1.000  C
  Cd18     1.0000 0.65135  0.59656  0.67404  Biso   1.000  Cd
  Cl18     1.0000 0.59205  0.49683  0.56092  Biso   1.000  Cl
  H90      1.0000 0.68043  0.51277  0.79767  Biso   1.000  H
  N154     1.0000 0.68104  0.61883  0.90867  Biso   1.000  N
  N155     1.0000 0.70647  0.55158  0.75537  Biso   1.000  N
  N156     1.0000 0.72664  0.61580  0.52707  Biso   1.000  N
  N157     1.0000 0.75056  0.64769  0.41957  Biso   1.000  N
  N158     1.0000 0.67444  0.64685  0.01207  Biso   1.000  N
  N159     1.0000 0.71461  0.66016  0.09987  Biso   1.000  N
  N160     1.0000 0.74853  0.64104  0.05637  Biso   1.000  N
  N161     1.0000 0.78556  0.63301  0.36767  Biso   1.000  N
  N162     1.0000 0.78509  0.59157  0.43917  Biso   1.000  N
  Cd19     1.0000 0.83333  0.66667  0.16667  Biso   1.000  Cd
  Cd20     1.0000 0.50000  0.00000  0.50000  Biso   1.000  Cd
  Cd21     1.0000 0.33333  0.16667  0.16667  Biso   1.000  Cd
  Cd22     1.0000 0.00000  0.50000  0.50000  Biso   1.000  Cd
  Cd23     1.0000 0.83333  0.16667  0.16667  Biso   1.000  Cd
  Cd24     1.0000 0.50000  0.50000  0.50000  Biso   1.000  Cd
  Cd25     1.0000 0.16667  0.33333  0.83333  Biso   1.000  Cd
  Cd26     1.0000 0.66667  0.83333  0.83333  Biso   1.000  Cd
  Cd27     1.0000 0.16667  0.83333  0.83333  Biso   1.000  Cd
