data_image0
_cell_length_a       11.6695
_cell_length_b       16.3235
_cell_length_c       16.3235
_cell_angle_alpha    90
_cell_angle_beta     90
_cell_angle_gamma    90

_symmetry_space_group_name_H-M    P 1
_symmetry_int_tables_number       1

loop_
  _symmetry_equiv_pos_as_xyz
  'x, y, z'

loop_
  _atom_site_label
  _atom_site_occupancy
  _atom_site_fract_x
  _atom_site_fract_y
  _atom_site_fract_z
  _atom_site_thermal_displace_type
  _atom_site_B_iso_or_equiv
  _atom_site_type_symbol
  Zn1      1.0000 0.13561  0.38610  0.34743  Biso   1.000  Zn
  Zn2      1.0000 0.13561  0.61390  0.65257  Biso   1.000  Zn
  Zn3      1.0000 0.13561  0.65257  0.38610  Biso   1.000  Zn
  Zn4      1.0000 0.13561  0.34743  0.61390  Biso   1.000  Zn
  Zn5      1.0000 0.36439  0.11390  0.84743  Biso   1.000  Zn
  Zn6      1.0000 0.36439  0.88610  0.15257  Biso   1.000  Zn
  Zn7      1.0000 0.36439  0.84743  0.88610  Biso   1.000  Zn
  Zn8      1.0000 0.36439  0.15257  0.11390  Biso   1.000  Zn
  Zn9      1.0000 0.86439  0.61390  0.65257  Biso   1.000  Zn
  Zn10     1.0000 0.86439  0.38610  0.34743  Biso   1.000  Zn
  Zn11     1.0000 0.86439  0.34743  0.61390  Biso   1.000  Zn
  Zn12     1.0000 0.86439  0.65257  0.38610  Biso   1.000  Zn
  Zn13     1.0000 0.63561  0.88610  0.15257  Biso   1.000  Zn
  Zn14     1.0000 0.63561  0.11390  0.84743  Biso   1.000  Zn
  Zn15     1.0000 0.63561  0.15257  0.11390  Biso   1.000  Zn
  Zn16     1.0000 0.63561  0.84743  0.88610  Biso   1.000  Zn
  H1       1.0000 0.17200  0.15200  0.24000  Biso   1.000  H
  H2       1.0000 0.17200  0.84800  0.76000  Biso   1.000  H
  H3       1.0000 0.17200  0.76000  0.15200  Biso   1.000  H
  H4       1.0000 0.17200  0.24000  0.84800  Biso   1.000  H
  H5       1.0000 0.32800  0.34800  0.74000  Biso   1.000  H
  H6       1.0000 0.32800  0.65200  0.26000  Biso   1.000  H
  H7       1.0000 0.32800  0.74000  0.65200  Biso   1.000  H
  H8       1.0000 0.32800  0.26000  0.34800  Biso   1.000  H
  H9       1.0000 0.82800  0.84800  0.76000  Biso   1.000  H
  H10      1.0000 0.82800  0.15200  0.24000  Biso   1.000  H
  H11      1.0000 0.82800  0.24000  0.84800  Biso   1.000  H
  H12      1.0000 0.82800  0.76000  0.15200  Biso   1.000  H
  H13      1.0000 0.67200  0.65200  0.26000  Biso   1.000  H
  H14      1.0000 0.67200  0.34800  0.74000  Biso   1.000  H
  H15      1.0000 0.67200  0.26000  0.34800  Biso   1.000  H
  H16      1.0000 0.67200  0.74000  0.65200  Biso   1.000  H
  H17      1.0000 0.00000  0.48300  0.40100  Biso   1.000  H
  H18      1.0000 0.00000  0.95000  0.17100  Biso   1.000  H
  H19      1.0000 0.00000  0.51700  0.59900  Biso   1.000  H
  H20      1.0000 0.00000  0.05000  0.82900  Biso   1.000  H
  H21      1.0000 0.00000  0.59900  0.48300  Biso   1.000  H
  H22      1.0000 0.00000  0.82900  0.95000  Biso   1.000  H
  H23      1.0000 0.00000  0.40100  0.51700  Biso   1.000  H
  H24      1.0000 0.00000  0.17100  0.05000  Biso   1.000  H
  H25      1.0000 0.50000  0.01700  0.90100  Biso   1.000  H
  H26      1.0000 0.50000  0.55000  0.67100  Biso   1.000  H
  H27      1.0000 0.50000  0.98300  0.09900  Biso   1.000  H
  H28      1.0000 0.50000  0.45000  0.32900  Biso   1.000  H
  H29      1.0000 0.50000  0.90100  0.98300  Biso   1.000  H
  H30      1.0000 0.50000  0.67100  0.45000  Biso   1.000  H
  H31      1.0000 0.50000  0.09900  0.01700  Biso   1.000  H
  H32      1.0000 0.50000  0.32900  0.55000  Biso   1.000  H
  C1       1.0000 0.10280  0.12500  0.23280  Biso   1.000  C
  C2       1.0000 0.10350  0.04530  0.20280  Biso   1.000  C
  C3       1.0000 0.21430  0.00260  0.18470  Biso   1.000  C
  C4       1.0000 0.10280  0.87500  0.76720  Biso   1.000  C
  C5       1.0000 0.10350  0.95470  0.79720  Biso   1.000  C
  C6       1.0000 0.21430  0.99740  0.81530  Biso   1.000  C
  C7       1.0000 0.10280  0.76720  0.12500  Biso   1.000  C
  C8       1.0000 0.10350  0.79720  0.04530  Biso   1.000  C
  C9       1.0000 0.21430  0.81530  0.00260  Biso   1.000  C
  C10      1.0000 0.10280  0.23280  0.87500  Biso   1.000  C
  C11      1.0000 0.10350  0.20280  0.95470  Biso   1.000  C
  C12      1.0000 0.21430  0.18470  0.99740  Biso   1.000  C
  C13      1.0000 0.39720  0.37500  0.73280  Biso   1.000  C
  C14      1.0000 0.39650  0.45470  0.70280  Biso   1.000  C
  C15      1.0000 0.28570  0.49740  0.68470  Biso   1.000  C
  C16      1.0000 0.39720  0.62500  0.26720  Biso   1.000  C
  C17      1.0000 0.39650  0.54530  0.29720  Biso   1.000  C
  C18      1.0000 0.28570  0.50260  0.31530  Biso   1.000  C
  C19      1.0000 0.39720  0.73280  0.62500  Biso   1.000  C
  C20      1.0000 0.39650  0.70280  0.54530  Biso   1.000  C
  C21      1.0000 0.28570  0.68470  0.50260  Biso   1.000  C
  C22      1.0000 0.39720  0.26720  0.37500  Biso   1.000  C
  C23      1.0000 0.39650  0.29720  0.45470  Biso   1.000  C
  C24      1.0000 0.28570  0.31530  0.49740  Biso   1.000  C
  C25      1.0000 0.89720  0.87500  0.76720  Biso   1.000  C
  C26      1.0000 0.89650  0.95470  0.79720  Biso   1.000  C
  C27      1.0000 0.78570  0.99740  0.81530  Biso   1.000  C
  C28      1.0000 0.89720  0.12500  0.23280  Biso   1.000  C
  C29      1.0000 0.89650  0.04530  0.20280  Biso   1.000  C
  C30      1.0000 0.78570  0.00260  0.18470  Biso   1.000  C
  C31      1.0000 0.89720  0.23280  0.87500  Biso   1.000  C
  C32      1.0000 0.89650  0.20280  0.95470  Biso   1.000  C
  C33      1.0000 0.78570  0.18470  0.99740  Biso   1.000  C
  C34      1.0000 0.89720  0.76720  0.12500  Biso   1.000  C
  C35      1.0000 0.89650  0.79720  0.04530  Biso   1.000  C
  C36      1.0000 0.78570  0.81530  0.00260  Biso   1.000  C
  C37      1.0000 0.60280  0.62500  0.26720  Biso   1.000  C
  C38      1.0000 0.60350  0.54530  0.29720  Biso   1.000  C
  C39      1.0000 0.71430  0.50260  0.31530  Biso   1.000  C
  C40      1.0000 0.60280  0.37500  0.73280  Biso   1.000  C
  C41      1.0000 0.60350  0.45470  0.70280  Biso   1.000  C
  C42      1.0000 0.71430  0.49740  0.68470  Biso   1.000  C
  C43      1.0000 0.60280  0.26720  0.37500  Biso   1.000  C
  C44      1.0000 0.60350  0.29720  0.45470  Biso   1.000  C
  C45      1.0000 0.71430  0.31530  0.49740  Biso   1.000  C
  C46      1.0000 0.60280  0.73280  0.62500  Biso   1.000  C
  C47      1.0000 0.60350  0.70280  0.54530  Biso   1.000  C
  C48      1.0000 0.71430  0.68470  0.50260  Biso   1.000  C
  C49      1.0000 0.00000  0.16420  0.24960  Biso   1.000  C
  C50      1.0000 0.00000  0.00480  0.18980  Biso   1.000  C
  C51      1.0000 0.00000  0.24840  0.28530  Biso   1.000  C
  C52      1.0000 0.00000  0.83580  0.75040  Biso   1.000  C
  C53      1.0000 0.00000  0.99520  0.81020  Biso   1.000  C
  C54      1.0000 0.00000  0.75160  0.71470  Biso   1.000  C
  C55      1.0000 0.00000  0.75040  0.16420  Biso   1.000  C
  C56      1.0000 0.00000  0.81020  0.00480  Biso   1.000  C
  C57      1.0000 0.00000  0.71470  0.24840  Biso   1.000  C
  C58      1.0000 0.00000  0.24960  0.83580  Biso   1.000  C
  C59      1.0000 0.00000  0.18980  0.99520  Biso   1.000  C
  C60      1.0000 0.00000  0.28530  0.75160  Biso   1.000  C
  C61      1.0000 0.50000  0.33580  0.74960  Biso   1.000  C
  C62      1.0000 0.50000  0.49520  0.68980  Biso   1.000  C
  C63      1.0000 0.50000  0.25160  0.78530  Biso   1.000  C
  C64      1.0000 0.50000  0.66420  0.25040  Biso   1.000  C
  C65      1.0000 0.50000  0.50480  0.31020  Biso   1.000  C
  C66      1.0000 0.50000  0.74840  0.21470  Biso   1.000  C
  C67      1.0000 0.50000  0.74960  0.66420  Biso   1.000  C
  C68      1.0000 0.50000  0.68980  0.50480  Biso   1.000  C
  C69      1.0000 0.50000  0.78530  0.74840  Biso   1.000  C
  C70      1.0000 0.50000  0.25040  0.33580  Biso   1.000  C
  C71      1.0000 0.50000  0.31020  0.49520  Biso   1.000  C
  C72      1.0000 0.50000  0.21470  0.25160  Biso   1.000  C
  O1       1.0000 0.09570  0.27990  0.30010  Biso   1.000  O
  O2       1.0000 0.30110  0.04220  0.16590  Biso   1.000  O
  O3       1.0000 0.21540  0.92570  0.18990  Biso   1.000  O
  O4       1.0000 0.09570  0.72010  0.69990  Biso   1.000  O
  O5       1.0000 0.30110  0.95780  0.83410  Biso   1.000  O
  O6       1.0000 0.21540  0.07430  0.81010  Biso   1.000  O
  O7       1.0000 0.09570  0.69990  0.27990  Biso   1.000  O
  O8       1.0000 0.30110  0.83410  0.04220  Biso   1.000  O
  O9       1.0000 0.21540  0.81010  0.92570  Biso   1.000  O
  O10      1.0000 0.09570  0.30010  0.72010  Biso   1.000  O
  O11      1.0000 0.30110  0.16590  0.95780  Biso   1.000  O
  O12      1.0000 0.21540  0.18990  0.07430  Biso   1.000  O
  O13      1.0000 0.40430  0.22010  0.80010  Biso   1.000  O
  O14      1.0000 0.19890  0.45780  0.66590  Biso   1.000  O
  O15      1.0000 0.28460  0.57430  0.68990  Biso   1.000  O
  O16      1.0000 0.40430  0.77990  0.19990  Biso   1.000  O
  O17      1.0000 0.19890  0.54220  0.33410  Biso   1.000  O
  O18      1.0000 0.28460  0.42570  0.31010  Biso   1.000  O
  O19      1.0000 0.40430  0.80010  0.77990  Biso   1.000  O
  O20      1.0000 0.19890  0.66590  0.54220  Biso   1.000  O
  O21      1.0000 0.28460  0.68990  0.42570  Biso   1.000  O
  O22      1.0000 0.40430  0.19990  0.22010  Biso   1.000  O
  O23      1.0000 0.19890  0.33410  0.45780  Biso   1.000  O
  O24      1.0000 0.28460  0.31010  0.57430  Biso   1.000  O
  O25      1.0000 0.90430  0.72010  0.69990  Biso   1.000  O
  O26      1.0000 0.69890  0.95780  0.83410  Biso   1.000  O
  O27      1.0000 0.78460  0.07430  0.81010  Biso   1.000  O
  O28      1.0000 0.90430  0.27990  0.30010  Biso   1.000  O
  O29      1.0000 0.69890  0.04220  0.16590  Biso   1.000  O
  O30      1.0000 0.78460  0.92570  0.18990  Biso   1.000  O
  O31      1.0000 0.90430  0.30010  0.72010  Biso   1.000  O
  O32      1.0000 0.69890  0.16590  0.95780  Biso   1.000  O
  O33      1.0000 0.78460  0.18990  0.07430  Biso   1.000  O
  O34      1.0000 0.90430  0.69990  0.27990  Biso   1.000  O
  O35      1.0000 0.69890  0.83410  0.04220  Biso   1.000  O
  O36      1.0000 0.78460  0.81010  0.92570  Biso   1.000  O
  O37      1.0000 0.59570  0.77990  0.19990  Biso   1.000  O
  O38      1.0000 0.80110  0.54220  0.33410  Biso   1.000  O
  O39      1.0000 0.71540  0.42570  0.31010  Biso   1.000  O
  O40      1.0000 0.59570  0.22010  0.80010  Biso   1.000  O
  O41      1.0000 0.80110  0.45780  0.66590  Biso   1.000  O
  O42      1.0000 0.71540  0.57430  0.68990  Biso   1.000  O
  O43      1.0000 0.59570  0.19990  0.22010  Biso   1.000  O
  O44      1.0000 0.80110  0.33410  0.45780  Biso   1.000  O
  O45      1.0000 0.71540  0.31010  0.57430  Biso   1.000  O
  O46      1.0000 0.59570  0.80010  0.77990  Biso   1.000  O
  O47      1.0000 0.80110  0.66590  0.54220  Biso   1.000  O
  O48      1.0000 0.71540  0.68990  0.42570  Biso   1.000  O
  O49      1.0000 0.00000  0.43100  0.39550  Biso   1.000  O
  O50      1.0000 0.00000  0.56900  0.60450  Biso   1.000  O
  O51      1.0000 0.00000  0.60450  0.43100  Biso   1.000  O
  O52      1.0000 0.00000  0.39550  0.56900  Biso   1.000  O
  O53      1.0000 0.50000  0.06900  0.89550  Biso   1.000  O
  O54      1.0000 0.50000  0.93100  0.10450  Biso   1.000  O
  O55      1.0000 0.50000  0.89550  0.93100  Biso   1.000  O
  O56      1.0000 0.50000  0.10450  0.06900  Biso   1.000  O
