data_image0
_cell_length_a       7.2776
_cell_length_b       22.06
_cell_length_c       15.0234
_cell_angle_alpha    90
_cell_angle_beta     98.687
_cell_angle_gamma    90

_symmetry_space_group_name_H-M    "P 1"
_symmetry_int_tables_number       1

loop_
  _symmetry_equiv_pos_as_xyz
  'x, y, z'

loop_
  _atom_site_label
  _atom_site_occupancy
  _atom_site_fract_x
  _atom_site_fract_y
  _atom_site_fract_z
  _atom_site_thermal_displace_type
  _atom_site_B_iso_or_equiv
  _atom_site_type_symbol
  C1       1.0000 0.29320  0.47520  0.16870  Biso   1.000  C
  C2       1.0000 0.34730  0.45700  0.26520  Biso   1.000  C
  C3       1.0000 0.52150  0.47310  0.31080  Biso   1.000  C
  H1       1.0000 0.60210  0.49590  0.28180  Biso   1.000  H
  C4       1.0000 0.22620  0.42280  0.30930  Biso   1.000  C
  H2       1.0000 0.10760  0.41310  0.28060  Biso   1.000  H
  C5       1.0000 0.57520  0.45520  0.39970  Biso   1.000  C
  C6       1.0000 0.45670  0.42090  0.44350  Biso   1.000  C
  H3       1.0000 0.49070  0.40950  0.50330  Biso   1.000  H
  C7       1.0000 0.28640  0.40380  0.39590  Biso   1.000  C
  C8       1.0000 0.35090  0.27850  0.43780  Biso   1.000  C
  H4       1.0000 0.45210  0.30050  0.42420  Biso   1.000  H
  C9       1.0000 0.19210  0.30780  0.44530  Biso   1.000  C
  C10      1.0000 0.36710  0.21720  0.44970  Biso   1.000  C
  H5       1.0000 0.47810  0.19800  0.44320  Biso   1.000  H
  C11      1.0000 0.04310  0.27340  0.46480  Biso   1.000  C
  C12      1.0000 0.76270  0.47370  0.44490  Biso   1.000  C
  C13      1.0000 0.21990  0.18350  0.47140  Biso   1.000  C
  C14      1.0000 0.23340  0.11620  0.48510  Biso   1.000  C
  C15      1.0000 0.05230  0.21240  0.47650  Biso   1.000  C
  H6       1.0000 0.94900  0.19050  0.48770  Biso   1.000  H
  N1       1.0000 0.85970  0.30210  0.46100  Biso   1.000  N
  O1       1.0000 0.23140  0.47110  0.94590  Biso   1.000  O
  H7       1.0000 0.17020  0.45360  0.89130  Biso   1.000  H
  O2       1.0000 0.13080  0.46920  0.13410  Biso   1.000  O
  O3       1.0000 0.42100  0.49630  0.13200  Biso   1.000  O
  O4       1.0000 0.16230  0.36950  0.43920  Biso   1.000  O
  O5       1.0000 0.80660  0.45640  0.52640  Biso   1.000  O
  H8       1.0000 0.91470  0.46590  0.54470  Biso   1.000  H
  O6       1.0000 0.86460  0.50380  0.40310  Biso   1.000  O
  O7       1.0000 0.38040  0.09040  0.47500  Biso   1.000  O
  O8       1.0000 0.09260  0.09180  0.51040  Biso   1.000  O
  O9       1.0000 0.78100  0.29280  0.52720  Biso   1.000  O
  O10      1.0000 0.79800  0.33440  0.40120  Biso   1.000  O
  C16      1.0000 0.20680  0.97520  0.33130  Biso   1.000  C
  C17      1.0000 0.15270  0.95700  0.23480  Biso   1.000  C
  C18      1.0000 0.97850  0.97310  0.18920  Biso   1.000  C
  H9       1.0000 0.89790  0.99590  0.21820  Biso   1.000  H
  C19      1.0000 0.27380  0.92280  0.19070  Biso   1.000  C
  H10      1.0000 0.39240  0.91310  0.21940  Biso   1.000  H
  C20      1.0000 0.92480  0.95520  0.10030  Biso   1.000  C
  C21      1.0000 0.04330  0.92090  0.05650  Biso   1.000  C
  H11      1.0000 0.00930  0.90950  0.99670  Biso   1.000  H
  C22      1.0000 0.21360  0.90380  0.10410  Biso   1.000  C
  C23      1.0000 0.14910  0.77850  0.06220  Biso   1.000  C
  H12      1.0000 0.04790  0.80050  0.07580  Biso   1.000  H
  C24      1.0000 0.30790  0.80780  0.05470  Biso   1.000  C
  C25      1.0000 0.13290  0.71720  0.05030  Biso   1.000  C
  H13      1.0000 0.02190  0.69800  0.05680  Biso   1.000  H
  C26      1.0000 0.45690  0.77340  0.03520  Biso   1.000  C
  C27      1.0000 0.73730  0.97370  0.05510  Biso   1.000  C
  C28      1.0000 0.28010  0.68350  0.02860  Biso   1.000  C
  C29      1.0000 0.26660  0.61620  0.01490  Biso   1.000  C
  C30      1.0000 0.44770  0.71240  0.02350  Biso   1.000  C
  H14      1.0000 0.55100  0.69050  0.01230  Biso   1.000  H
  N2       1.0000 0.64030  0.80210  0.03900  Biso   1.000  N
  O11      1.0000 0.26860  0.97110  0.55410  Biso   1.000  O
  H15      1.0000 0.32980  0.95360  0.60870  Biso   1.000  H
  O12      1.0000 0.36920  0.96920  0.36590  Biso   1.000  O
  O13      1.0000 0.07900  0.99630  0.36800  Biso   1.000  O
  O14      1.0000 0.33770  0.86950  0.06080  Biso   1.000  O
  O15      1.0000 0.69340  0.95640  0.97360  Biso   1.000  O
  H16      1.0000 0.58530  0.96590  0.95530  Biso   1.000  H
  O16      1.0000 0.63540  0.00380  0.09690  Biso   1.000  O
  O17      1.0000 0.11960  0.59040  0.02500  Biso   1.000  O
  O18      1.0000 0.40740  0.59180  0.98960  Biso   1.000  O
  O19      1.0000 0.71900  0.79280  0.97280  Biso   1.000  O
  O20      1.0000 0.70200  0.83440  0.09880  Biso   1.000  O
  C31      1.0000 0.70680  0.52480  0.83130  Biso   1.000  C
  C32      1.0000 0.65270  0.54300  0.73480  Biso   1.000  C
  C33      1.0000 0.47850  0.52690  0.68920  Biso   1.000  C
  H17      1.0000 0.39790  0.50410  0.71820  Biso   1.000  H
  C34      1.0000 0.77380  0.57720  0.69070  Biso   1.000  C
  H18      1.0000 0.89240  0.58690  0.71940  Biso   1.000  H
  C35      1.0000 0.42480  0.54480  0.60030  Biso   1.000  C
  C36      1.0000 0.54330  0.57910  0.55650  Biso   1.000  C
  H19      1.0000 0.50930  0.59050  0.49670  Biso   1.000  H
  C37      1.0000 0.71360  0.59620  0.60410  Biso   1.000  C
  C38      1.0000 0.64910  0.72150  0.56220  Biso   1.000  C
  H20      1.0000 0.54790  0.69950  0.57580  Biso   1.000  H
  C39      1.0000 0.80790  0.69220  0.55470  Biso   1.000  C
  C40      1.0000 0.63290  0.78280  0.55030  Biso   1.000  C
  H21      1.0000 0.52190  0.80200  0.55680  Biso   1.000  H
  C41      1.0000 0.95690  0.72660  0.53520  Biso   1.000  C
  C42      1.0000 0.23730  0.52630  0.55510  Biso   1.000  C
  C43      1.0000 0.78010  0.81650  0.52860  Biso   1.000  C
  C44      1.0000 0.76660  0.88380  0.51490  Biso   1.000  C
  C45      1.0000 0.94770  0.78760  0.52350  Biso   1.000  C
  H22      1.0000 0.05100  0.80950  0.51230  Biso   1.000  H
  N3       1.0000 0.14030  0.69790  0.53900  Biso   1.000  N
  O21      1.0000 0.76860  0.52890  0.05410  Biso   1.000  O
  H23      1.0000 0.82980  0.54640  0.10870  Biso   1.000  H
  O22      1.0000 0.86920  0.53080  0.86590  Biso   1.000  O
  O23      1.0000 0.57900  0.50370  0.86800  Biso   1.000  O
  O24      1.0000 0.83770  0.63050  0.56080  Biso   1.000  O
  O25      1.0000 0.19340  0.54360  0.47360  Biso   1.000  O
  H24      1.0000 0.08530  0.53410  0.45530  Biso   1.000  H
  O26      1.0000 0.13540  0.49620  0.59690  Biso   1.000  O
  O27      1.0000 0.61960  0.90960  0.52500  Biso   1.000  O
  O28      1.0000 0.90740  0.90820  0.48960  Biso   1.000  O
  O29      1.0000 0.21900  0.70720  0.47280  Biso   1.000  O
  O30      1.0000 0.20200  0.66560  0.59880  Biso   1.000  O
  C46      1.0000 0.79320  0.02480  0.66870  Biso   1.000  C
  C47      1.0000 0.84730  0.04300  0.76520  Biso   1.000  C
  C48      1.0000 0.02150  0.02690  0.81080  Biso   1.000  C
  H25      1.0000 0.10210  0.00410  0.78180  Biso   1.000  H
  C49      1.0000 0.72620  0.07720  0.80930  Biso   1.000  C
  H26      1.0000 0.60760  0.08690  0.78060  Biso   1.000  H
  C50      1.0000 0.07520  0.04480  0.89970  Biso   1.000  C
  C51      1.0000 0.95670  0.07910  0.94350  Biso   1.000  C
  H27      1.0000 0.99070  0.09050  0.00330  Biso   1.000  H
  C52      1.0000 0.78640  0.09620  0.89590  Biso   1.000  C
  C53      1.0000 0.85090  0.22150  0.93780  Biso   1.000  C
  H28      1.0000 0.95210  0.19950  0.92420  Biso   1.000  H
  C54      1.0000 0.69210  0.19220  0.94530  Biso   1.000  C
  C55      1.0000 0.86710  0.28280  0.94970  Biso   1.000  C
  H29      1.0000 0.97810  0.30200  0.94320  Biso   1.000  H
  C56      1.0000 0.54310  0.22660  0.96480  Biso   1.000  C
  C57      1.0000 0.26270  0.02630  0.94490  Biso   1.000  C
  C58      1.0000 0.71990  0.31650  0.97140  Biso   1.000  C
  C59      1.0000 0.73340  0.38380  0.98510  Biso   1.000  C
  C60      1.0000 0.55230  0.28760  0.97650  Biso   1.000  C
  H30      1.0000 0.44900  0.30950  0.98770  Biso   1.000  H
  N4       1.0000 0.35970  0.19790  0.96100  Biso   1.000  N
  O31      1.0000 0.73140  0.02890  0.44590  Biso   1.000  O
  H31      1.0000 0.67020  0.04640  0.39130  Biso   1.000  H
  O32      1.0000 0.63080  0.03080  0.63410  Biso   1.000  O
  O33      1.0000 0.92100  0.00370  0.63200  Biso   1.000  O
  O34      1.0000 0.66230  0.13050  0.93920  Biso   1.000  O
  O35      1.0000 0.30660  0.04360  0.02640  Biso   1.000  O
  H32      1.0000 0.41470  0.03410  0.04470  Biso   1.000  H
  O36      1.0000 0.36460  0.99620  0.90310  Biso   1.000  O
  O37      1.0000 0.88040  0.40960  0.97500  Biso   1.000  O
  O38      1.0000 0.59260  0.40820  0.01040  Biso   1.000  O
  O39      1.0000 0.28100  0.20720  0.02720  Biso   1.000  O
  O40      1.0000 0.29800  0.16560  0.90120  Biso   1.000  O
  In1      1.0000 0.00000  0.50000  0.00000  Biso   1.000  In
  In2      1.0000 0.50000  0.00000  0.50000  Biso   1.000  In
  In3      1.0000 0.50000  0.50000  0.00000  Biso   1.000  In
  In4      1.0000 0.00000  0.00000  0.50000  Biso   1.000  In
