data_image0
_cell_length_a       27.6213
_cell_length_b       9.1189
_cell_length_c       9.9954
_cell_angle_alpha    90
_cell_angle_beta     92.211
_cell_angle_gamma    90

_symmetry_space_group_name_H-M    "P 1"
_symmetry_int_tables_number       1

loop_
  _symmetry_equiv_pos_as_xyz
  'x, y, z'

loop_
  _atom_site_label
  _atom_site_occupancy
  _atom_site_fract_x
  _atom_site_fract_y
  _atom_site_fract_z
  _atom_site_thermal_displace_type
  _atom_site_B_iso_or_equiv
  _atom_site_type_symbol
  Zn1      1.0000 0.04954  0.32200  0.09595  Biso   1.000  Zn
  Zn2      1.0000 0.45165  0.32169  0.08788  Biso   1.000  Zn
  P1       1.0000 0.02663  0.41946  0.80461  Biso   1.000  P
  P2       1.0000 0.47664  0.42296  0.80132  Biso   1.000  P
  O1       1.0000 0.03338  0.29710  0.90510  Biso   1.000  O
  O2       1.0000 0.02171  0.35720  0.66210  Biso   1.000  O
  O3       1.0000 0.98362  0.51480  0.82820  Biso   1.000  O
  O4       1.0000 0.07394  0.51890  0.81320  Biso   1.000  O
  O5       1.0000 0.46738  0.30290  0.90120  Biso   1.000  O
  O6       1.0000 0.52475  0.50100  0.82630  Biso   1.000  O
  O7       1.0000 0.43551  0.54140  0.81130  Biso   1.000  O
  O8       1.0000 0.47657  0.36260  0.65930  Biso   1.000  O
  O9       1.0000 0.11821  0.36680  0.11960  Biso   1.000  O
  O10      1.0000 0.14355  0.19440  0.26430  Biso   1.000  O
  O11      1.0000 0.35655  0.45990  0.93420  Biso   1.000  O
  O12      1.0000 0.38197  0.33400  0.11550  Biso   1.000  O
  C1       1.0000 0.20219  0.33480  0.15450  Biso   1.000  C
  C2       1.0000 0.24007  0.26620  0.22680  Biso   1.000  C
  C3       1.0000 0.21277  0.42940  0.05130  Biso   1.000  C
  C4       1.0000 0.28789  0.29060  0.19320  Biso   1.000  C
  C5       1.0000 0.26060  0.45270  0.01810  Biso   1.000  C
  C6       1.0000 0.29827  0.38070  0.08690  Biso   1.000  C
  C7       1.0000 0.34974  0.39440  0.03940  Biso   1.000  C
  C8       1.0000 0.15037  0.29530  0.18400  Biso   1.000  C
  H1       1.0000 0.26880  0.52190  0.93740  Biso   1.000  H
  H2       1.0000 0.18950  0.48960  0.00420  Biso   1.000  H
  H3       1.0000 0.23360  0.21170  0.29890  Biso   1.000  H
  H4       1.0000 0.31480  0.23320  0.24050  Biso   1.000  H
  H5       1.0000 0.09900  0.45090  0.82390  Biso   1.000  H
  H6       1.0000 0.42030  0.53130  0.87740  Biso   1.000  H
  Zn3      1.0000 0.95046  0.82200  0.40405  Biso   1.000  Zn
  Zn4      1.0000 0.54835  0.82169  0.41212  Biso   1.000  Zn
  P3       1.0000 0.97337  0.91946  0.69539  Biso   1.000  P
  P4       1.0000 0.52336  0.92296  0.69868  Biso   1.000  P
  O13      1.0000 0.96662  0.79710  0.59490  Biso   1.000  O
  O14      1.0000 0.97829  0.85720  0.83790  Biso   1.000  O
  O15      1.0000 0.01638  0.01480  0.67180  Biso   1.000  O
  O16      1.0000 0.92606  0.01890  0.68680  Biso   1.000  O
  O17      1.0000 0.53262  0.80290  0.59880  Biso   1.000  O
  O18      1.0000 0.47525  0.00100  0.67370  Biso   1.000  O
  O19      1.0000 0.56449  0.04140  0.68870  Biso   1.000  O
  O20      1.0000 0.52343  0.86260  0.84070  Biso   1.000  O
  O21      1.0000 0.88179  0.86680  0.38040  Biso   1.000  O
  O22      1.0000 0.85645  0.69440  0.23570  Biso   1.000  O
  O23      1.0000 0.64345  0.95990  0.56580  Biso   1.000  O
  O24      1.0000 0.61803  0.83400  0.38450  Biso   1.000  O
  C9       1.0000 0.79781  0.83480  0.34550  Biso   1.000  C
  C10      1.0000 0.75993  0.76620  0.27320  Biso   1.000  C
  C11      1.0000 0.78723  0.92940  0.44870  Biso   1.000  C
  C12      1.0000 0.71211  0.79060  0.30680  Biso   1.000  C
  C13      1.0000 0.73940  0.95270  0.48190  Biso   1.000  C
  C14      1.0000 0.70173  0.88070  0.41310  Biso   1.000  C
  C15      1.0000 0.65026  0.89440  0.46060  Biso   1.000  C
  C16      1.0000 0.84963  0.79530  0.31600  Biso   1.000  C
  H7       1.0000 0.73120  0.02190  0.56260  Biso   1.000  H
  H8       1.0000 0.81050  0.98960  0.49580  Biso   1.000  H
  H9       1.0000 0.76640  0.71170  0.20110  Biso   1.000  H
  H10      1.0000 0.68520  0.73320  0.25950  Biso   1.000  H
  H11      1.0000 0.90100  0.95090  0.67610  Biso   1.000  H
  H12      1.0000 0.57970  0.03130  0.62260  Biso   1.000  H
  Zn5      1.0000 0.95046  0.67800  0.90405  Biso   1.000  Zn
  Zn6      1.0000 0.54835  0.67831  0.91212  Biso   1.000  Zn
  P5       1.0000 0.97337  0.58054  0.19539  Biso   1.000  P
  P6       1.0000 0.52336  0.57704  0.19868  Biso   1.000  P
  O25      1.0000 0.96662  0.70290  0.09490  Biso   1.000  O
  O26      1.0000 0.97829  0.64280  0.33790  Biso   1.000  O
  O27      1.0000 0.01638  0.48520  0.17180  Biso   1.000  O
  O28      1.0000 0.92606  0.48110  0.18680  Biso   1.000  O
  O29      1.0000 0.53262  0.69710  0.09880  Biso   1.000  O
  O30      1.0000 0.47525  0.49900  0.17370  Biso   1.000  O
  O31      1.0000 0.56449  0.45860  0.18870  Biso   1.000  O
  O32      1.0000 0.52343  0.63740  0.34070  Biso   1.000  O
  O33      1.0000 0.88179  0.63320  0.88040  Biso   1.000  O
  O34      1.0000 0.85645  0.80560  0.73570  Biso   1.000  O
  O35      1.0000 0.64345  0.54010  0.06580  Biso   1.000  O
  O36      1.0000 0.61803  0.66600  0.88450  Biso   1.000  O
  C17      1.0000 0.79781  0.66520  0.84550  Biso   1.000  C
  C18      1.0000 0.75993  0.73380  0.77320  Biso   1.000  C
  C19      1.0000 0.78723  0.57060  0.94870  Biso   1.000  C
  C20      1.0000 0.71211  0.70940  0.80680  Biso   1.000  C
  C21      1.0000 0.73940  0.54730  0.98190  Biso   1.000  C
  C22      1.0000 0.70173  0.61930  0.91310  Biso   1.000  C
  C23      1.0000 0.65026  0.60560  0.96060  Biso   1.000  C
  C24      1.0000 0.84963  0.70470  0.81600  Biso   1.000  C
  H13      1.0000 0.73120  0.47810  0.06260  Biso   1.000  H
  H14      1.0000 0.81050  0.51040  0.99580  Biso   1.000  H
  H15      1.0000 0.76640  0.78830  0.70110  Biso   1.000  H
  H16      1.0000 0.68520  0.76680  0.75950  Biso   1.000  H
  H17      1.0000 0.90100  0.54910  0.17610  Biso   1.000  H
  H18      1.0000 0.57970  0.46870  0.12260  Biso   1.000  H
  Zn7      1.0000 0.04954  0.17800  0.59595  Biso   1.000  Zn
  Zn8      1.0000 0.45165  0.17831  0.58788  Biso   1.000  Zn
  P7       1.0000 0.02663  0.08054  0.30461  Biso   1.000  P
  P8       1.0000 0.47664  0.07704  0.30132  Biso   1.000  P
  O37      1.0000 0.03338  0.20290  0.40510  Biso   1.000  O
  O38      1.0000 0.02171  0.14280  0.16210  Biso   1.000  O
  O39      1.0000 0.98362  0.98520  0.32820  Biso   1.000  O
  O40      1.0000 0.07394  0.98110  0.31320  Biso   1.000  O
  O41      1.0000 0.46738  0.19710  0.40120  Biso   1.000  O
  O42      1.0000 0.52475  0.99900  0.32630  Biso   1.000  O
  O43      1.0000 0.43551  0.95860  0.31130  Biso   1.000  O
  O44      1.0000 0.47657  0.13740  0.15930  Biso   1.000  O
  O45      1.0000 0.11821  0.13320  0.61960  Biso   1.000  O
  O46      1.0000 0.14355  0.30560  0.76430  Biso   1.000  O
  O47      1.0000 0.35655  0.04010  0.43420  Biso   1.000  O
  O48      1.0000 0.38197  0.16600  0.61550  Biso   1.000  O
  C25      1.0000 0.20219  0.16520  0.65450  Biso   1.000  C
  C26      1.0000 0.24007  0.23380  0.72680  Biso   1.000  C
  C27      1.0000 0.21277  0.07060  0.55130  Biso   1.000  C
  C28      1.0000 0.28789  0.20940  0.69320  Biso   1.000  C
  C29      1.0000 0.26060  0.04730  0.51810  Biso   1.000  C
  C30      1.0000 0.29827  0.11930  0.58690  Biso   1.000  C
  C31      1.0000 0.34974  0.10560  0.53940  Biso   1.000  C
  C32      1.0000 0.15037  0.20470  0.68400  Biso   1.000  C
  H19      1.0000 0.26880  0.97810  0.43740  Biso   1.000  H
  H20      1.0000 0.18950  0.01040  0.50420  Biso   1.000  H
  H21      1.0000 0.23360  0.28830  0.79890  Biso   1.000  H
  H22      1.0000 0.31480  0.26680  0.74050  Biso   1.000  H
  H23      1.0000 0.09900  0.04910  0.32390  Biso   1.000  H
  H24      1.0000 0.42030  0.96870  0.37740  Biso   1.000  H
