data_image0
_cell_length_a       9.154
_cell_length_b       9.239
_cell_length_c       9.345
_cell_angle_alpha    78.231
_cell_angle_beta     87.485
_cell_angle_gamma    87.179

_symmetry_space_group_name_H-M    "P 1"
_symmetry_int_tables_number       1

loop_
  _symmetry_equiv_pos_as_xyz
  'x, y, z'

loop_
  _atom_site_label
  _atom_site_occupancy
  _atom_site_fract_x
  _atom_site_fract_y
  _atom_site_fract_z
  _atom_site_thermal_displace_type
  _atom_site_B_iso_or_equiv
  _atom_site_type_symbol
  P1       1.0000 0.61700  0.86030  0.67860  Biso   1.000  P
  P2       1.0000 0.81260  0.11110  0.10540  Biso   1.000  P
  P3       1.0000 0.64870  0.66940  0.13810  Biso   1.000  P
  Al1      1.0000 0.63070  0.89680  0.33970  Biso   1.000  Al
  Al2      1.0000 0.83710  0.86730  0.92680  Biso   1.000  Al
  Al3      1.0000 0.43850  0.63160  0.90800  Biso   1.000  Al
  F1       1.0000 0.60530  0.50230  0.91950  Biso   1.000  F
  O1       1.0000 0.53600  0.73480  0.02610  Biso   1.000  O
  O2       1.0000 0.78750  0.03510  0.97770  Biso   1.000  O
  O3       1.0000 0.64840  0.50220  0.18700  Biso   1.000  O
  O4       1.0000 0.73100  0.25800  0.08710  Biso   1.000  O
  O5       1.0000 0.76800  0.00940  0.24970  Biso   1.000  O
  O6       1.0000 0.51450  0.73560  0.73390  Biso   1.000  O
  O7       1.0000 0.97680  0.13530  0.11200  Biso   1.000  O
  O8       1.0000 0.80150  0.71860  0.07090  Biso   1.000  O
  O9       1.0000 0.75260  0.85090  0.77080  Biso   1.000  O
  O10      1.0000 0.67400  0.85100  0.52340  Biso   1.000  O
  O11      1.0000 0.62500  0.73530  0.27700  Biso   1.000  O
  O12      1.0000 0.53920  0.01040  0.67520  Biso   1.000  O
  P4       1.0000 0.38300  0.13970  0.32140  Biso   1.000  P
  P5       1.0000 0.18740  0.88890  0.89460  Biso   1.000  P
  P6       1.0000 0.35130  0.33060  0.86190  Biso   1.000  P
  Al4      1.0000 0.36930  0.10320  0.66030  Biso   1.000  Al
  Al5      1.0000 0.16290  0.13270  0.07320  Biso   1.000  Al
  Al6      1.0000 0.56150  0.36840  0.09200  Biso   1.000  Al
  F2       1.0000 0.39470  0.49770  0.08050  Biso   1.000  F
  O13      1.0000 0.46400  0.26520  0.97390  Biso   1.000  O
  O14      1.0000 0.21250  0.96490  0.02230  Biso   1.000  O
  O15      1.0000 0.35160  0.49780  0.81300  Biso   1.000  O
  O16      1.0000 0.26900  0.74200  0.91290  Biso   1.000  O
  O17      1.0000 0.23200  0.99060  0.75030  Biso   1.000  O
  O18      1.0000 0.48550  0.26440  0.26610  Biso   1.000  O
  O19      1.0000 0.02320  0.86470  0.88800  Biso   1.000  O
  O20      1.0000 0.19850  0.28140  0.92910  Biso   1.000  O
  O21      1.0000 0.24740  0.14910  0.22920  Biso   1.000  O
  O22      1.0000 0.32600  0.14900  0.47660  Biso   1.000  O
  O23      1.0000 0.37500  0.26470  0.72300  Biso   1.000  O
  O24      1.0000 0.46080  0.98960  0.32480  Biso   1.000  O
