data_image0
_cell_length_a       17.8531
_cell_length_b       12.6225
_cell_length_c       11.1909
_cell_angle_alpha    90
_cell_angle_beta     94.8394
_cell_angle_gamma    90

_symmetry_space_group_name_H-M    "P 1"
_symmetry_int_tables_number       1

loop_
  _symmetry_equiv_pos_as_xyz
  'x, y, z'

loop_
  _atom_site_label
  _atom_site_occupancy
  _atom_site_fract_x
  _atom_site_fract_y
  _atom_site_fract_z
  _atom_site_thermal_displace_type
  _atom_site_B_iso_or_equiv
  _atom_site_type_symbol
  Co1      1.0000 0.42133  0.55929  0.50051  Biso   1.000  Co
  N1       1.0000 0.87397  0.93480  0.16230  Biso   1.000  N
  N2       1.0000 0.91086  0.98290  0.25610  Biso   1.000  N
  N3       1.0000 0.87731  0.97050  0.35620  Biso   1.000  N
  C1       1.0000 0.81189  0.88740  0.20540  Biso   1.000  C
  C2       1.0000 0.81485  0.91090  0.32810  Biso   1.000  C
  C3       1.0000 0.75980  0.87360  0.40060  Biso   1.000  C
  H1       1.0000 0.76220  0.88850  0.48310  Biso   1.000  H
  C4       1.0000 0.70280  0.81470  0.34520  Biso   1.000  C
  H2       1.0000 0.66520  0.78840  0.39110  Biso   1.000  H
  C5       1.0000 0.69862  0.79190  0.22040  Biso   1.000  C
  C6       1.0000 0.75280  0.82740  0.14910  Biso   1.000  C
  H3       1.0000 0.75030  0.81210  0.06660  Biso   1.000  H
  C7       1.0000 0.63320  0.72640  0.16850  Biso   1.000  C
  O1       1.0000 0.52018  0.58038  0.43210  Biso   1.000  O
  H4       1.0000 0.54300  0.64100  0.46700  Biso   1.000  H
  O2       1.0000 0.63586  0.69020  0.06320  Biso   1.000  O
  O3       1.0000 0.58102  0.71240  0.23500  Biso   1.000  O
  Co2      1.0000 0.92133  0.05929  0.50051  Biso   1.000  Co
  N4       1.0000 0.37397  0.43480  0.16230  Biso   1.000  N
  N5       1.0000 0.41086  0.48290  0.25610  Biso   1.000  N
  N6       1.0000 0.37731  0.47050  0.35620  Biso   1.000  N
  C8       1.0000 0.31189  0.38740  0.20540  Biso   1.000  C
  C9       1.0000 0.31485  0.41090  0.32810  Biso   1.000  C
  C10      1.0000 0.25980  0.37360  0.40060  Biso   1.000  C
  H5       1.0000 0.26220  0.38850  0.48310  Biso   1.000  H
  C11      1.0000 0.20280  0.31470  0.34520  Biso   1.000  C
  H6       1.0000 0.16520  0.28840  0.39110  Biso   1.000  H
  C12      1.0000 0.19862  0.29190  0.22040  Biso   1.000  C
  C13      1.0000 0.25280  0.32740  0.14910  Biso   1.000  C
  H7       1.0000 0.25030  0.31210  0.06660  Biso   1.000  H
  C14      1.0000 0.13320  0.22640  0.16850  Biso   1.000  C
  O4       1.0000 0.02018  0.08038  0.43210  Biso   1.000  O
  H8       1.0000 0.04300  0.14100  0.46700  Biso   1.000  H
  O5       1.0000 0.13586  0.19020  0.06320  Biso   1.000  O
  O6       1.0000 0.08102  0.21240  0.23500  Biso   1.000  O
  Co3      1.0000 0.57867  0.55929  0.99949  Biso   1.000  Co
  N7       1.0000 0.12603  0.93480  0.33770  Biso   1.000  N
  N8       1.0000 0.08914  0.98290  0.24390  Biso   1.000  N
  N9       1.0000 0.12269  0.97050  0.14380  Biso   1.000  N
  C15      1.0000 0.18811  0.88740  0.29460  Biso   1.000  C
  C16      1.0000 0.18515  0.91090  0.17190  Biso   1.000  C
  C17      1.0000 0.24020  0.87360  0.09940  Biso   1.000  C
  H9       1.0000 0.23780  0.88850  0.01690  Biso   1.000  H
  C18      1.0000 0.29720  0.81470  0.15480  Biso   1.000  C
  H10      1.0000 0.33480  0.78840  0.10890  Biso   1.000  H
  C19      1.0000 0.30138  0.79190  0.27960  Biso   1.000  C
  C20      1.0000 0.24720  0.82740  0.35090  Biso   1.000  C
  H11      1.0000 0.24970  0.81210  0.43340  Biso   1.000  H
  C21      1.0000 0.36680  0.72640  0.33150  Biso   1.000  C
  O7       1.0000 0.47982  0.58038  0.06790  Biso   1.000  O
  H12      1.0000 0.45700  0.64100  0.03300  Biso   1.000  H
  O8       1.0000 0.36414  0.69020  0.43680  Biso   1.000  O
  O9       1.0000 0.41898  0.71240  0.26500  Biso   1.000  O
  Co4      1.0000 0.07867  0.05929  0.99949  Biso   1.000  Co
  N10      1.0000 0.62603  0.43480  0.33770  Biso   1.000  N
  N11      1.0000 0.58914  0.48290  0.24390  Biso   1.000  N
  N12      1.0000 0.62269  0.47050  0.14380  Biso   1.000  N
  C22      1.0000 0.68811  0.38740  0.29460  Biso   1.000  C
  C23      1.0000 0.68515  0.41090  0.17190  Biso   1.000  C
  C24      1.0000 0.74020  0.37360  0.09940  Biso   1.000  C
  H13      1.0000 0.73780  0.38850  0.01690  Biso   1.000  H
  C25      1.0000 0.79720  0.31470  0.15480  Biso   1.000  C
  H14      1.0000 0.83480  0.28840  0.10890  Biso   1.000  H
  C26      1.0000 0.80138  0.29190  0.27960  Biso   1.000  C
  C27      1.0000 0.74720  0.32740  0.35090  Biso   1.000  C
  H15      1.0000 0.74970  0.31210  0.43340  Biso   1.000  H
  C28      1.0000 0.86680  0.22640  0.33150  Biso   1.000  C
  O10      1.0000 0.97982  0.08038  0.06790  Biso   1.000  O
  H16      1.0000 0.95700  0.14100  0.03300  Biso   1.000  H
  O11      1.0000 0.86414  0.19020  0.43680  Biso   1.000  O
  O12      1.0000 0.91898  0.21240  0.26500  Biso   1.000  O
  Co5      1.0000 0.57867  0.44071  0.49949  Biso   1.000  Co
  N13      1.0000 0.12603  0.06520  0.83770  Biso   1.000  N
  N14      1.0000 0.08914  0.01710  0.74390  Biso   1.000  N
  N15      1.0000 0.12269  0.02950  0.64380  Biso   1.000  N
  C29      1.0000 0.18811  0.11260  0.79460  Biso   1.000  C
  C30      1.0000 0.18515  0.08910  0.67190  Biso   1.000  C
  C31      1.0000 0.24020  0.12640  0.59940  Biso   1.000  C
  H17      1.0000 0.23780  0.11150  0.51690  Biso   1.000  H
  C32      1.0000 0.29720  0.18530  0.65480  Biso   1.000  C
  H18      1.0000 0.33480  0.21160  0.60890  Biso   1.000  H
  C33      1.0000 0.30138  0.20810  0.77960  Biso   1.000  C
  C34      1.0000 0.24720  0.17260  0.85090  Biso   1.000  C
  H19      1.0000 0.24970  0.18790  0.93340  Biso   1.000  H
  C35      1.0000 0.36680  0.27360  0.83150  Biso   1.000  C
  O13      1.0000 0.47982  0.41962  0.56790  Biso   1.000  O
  H20      1.0000 0.45700  0.35900  0.53300  Biso   1.000  H
  O14      1.0000 0.36414  0.30980  0.93680  Biso   1.000  O
  O15      1.0000 0.41898  0.28760  0.76500  Biso   1.000  O
  Co6      1.0000 0.07867  0.94071  0.49949  Biso   1.000  Co
  N16      1.0000 0.62603  0.56520  0.83770  Biso   1.000  N
  N17      1.0000 0.58914  0.51710  0.74390  Biso   1.000  N
  N18      1.0000 0.62269  0.52950  0.64380  Biso   1.000  N
  C36      1.0000 0.68811  0.61260  0.79460  Biso   1.000  C
  C37      1.0000 0.68515  0.58910  0.67190  Biso   1.000  C
  C38      1.0000 0.74020  0.62640  0.59940  Biso   1.000  C
  H21      1.0000 0.73780  0.61150  0.51690  Biso   1.000  H
  C39      1.0000 0.79720  0.68530  0.65480  Biso   1.000  C
  H22      1.0000 0.83480  0.71160  0.60890  Biso   1.000  H
  C40      1.0000 0.80138  0.70810  0.77960  Biso   1.000  C
  C41      1.0000 0.74720  0.67260  0.85090  Biso   1.000  C
  H23      1.0000 0.74970  0.68790  0.93340  Biso   1.000  H
  C42      1.0000 0.86680  0.77360  0.83150  Biso   1.000  C
  O16      1.0000 0.97982  0.91962  0.56790  Biso   1.000  O
  H24      1.0000 0.95700  0.85900  0.53300  Biso   1.000  H
  O17      1.0000 0.86414  0.80980  0.93680  Biso   1.000  O
  O18      1.0000 0.91898  0.78760  0.76500  Biso   1.000  O
  Co7      1.0000 0.42133  0.44071  0.00051  Biso   1.000  Co
  N19      1.0000 0.87397  0.06520  0.66230  Biso   1.000  N
  N20      1.0000 0.91086  0.01710  0.75610  Biso   1.000  N
  N21      1.0000 0.87731  0.02950  0.85620  Biso   1.000  N
  C43      1.0000 0.81189  0.11260  0.70540  Biso   1.000  C
  C44      1.0000 0.81485  0.08910  0.82810  Biso   1.000  C
  C45      1.0000 0.75980  0.12640  0.90060  Biso   1.000  C
  H25      1.0000 0.76220  0.11150  0.98310  Biso   1.000  H
  C46      1.0000 0.70280  0.18530  0.84520  Biso   1.000  C
  H26      1.0000 0.66520  0.21160  0.89110  Biso   1.000  H
  C47      1.0000 0.69862  0.20810  0.72040  Biso   1.000  C
  C48      1.0000 0.75280  0.17260  0.64910  Biso   1.000  C
  H27      1.0000 0.75030  0.18790  0.56660  Biso   1.000  H
  C49      1.0000 0.63320  0.27360  0.66850  Biso   1.000  C
  O19      1.0000 0.52018  0.41962  0.93210  Biso   1.000  O
  H28      1.0000 0.54300  0.35900  0.96700  Biso   1.000  H
  O20      1.0000 0.63586  0.30980  0.56320  Biso   1.000  O
  O21      1.0000 0.58102  0.28760  0.73500  Biso   1.000  O
  Co8      1.0000 0.92133  0.94071  0.00051  Biso   1.000  Co
  N22      1.0000 0.37397  0.56520  0.66230  Biso   1.000  N
  N23      1.0000 0.41086  0.51710  0.75610  Biso   1.000  N
  N24      1.0000 0.37731  0.52950  0.85620  Biso   1.000  N
  C50      1.0000 0.31189  0.61260  0.70540  Biso   1.000  C
  C51      1.0000 0.31485  0.58910  0.82810  Biso   1.000  C
  C52      1.0000 0.25980  0.62640  0.90060  Biso   1.000  C
  H29      1.0000 0.26220  0.61150  0.98310  Biso   1.000  H
  C53      1.0000 0.20280  0.68530  0.84520  Biso   1.000  C
  H30      1.0000 0.16520  0.71160  0.89110  Biso   1.000  H
  C54      1.0000 0.19862  0.70810  0.72040  Biso   1.000  C
  C55      1.0000 0.25280  0.67260  0.64910  Biso   1.000  C
  H31      1.0000 0.25030  0.68790  0.56660  Biso   1.000  H
  C56      1.0000 0.13320  0.77360  0.66850  Biso   1.000  C
  O22      1.0000 0.02018  0.91962  0.93210  Biso   1.000  O
  H32      1.0000 0.04300  0.85900  0.96700  Biso   1.000  H
  O23      1.0000 0.13586  0.80980  0.56320  Biso   1.000  O
  O24      1.0000 0.08102  0.78760  0.73500  Biso   1.000  O
  Co9      1.0000 0.50000  0.59580  0.25000  Biso   1.000  Co
  Co10     1.0000 0.00000  0.09580  0.25000  Biso   1.000  Co
  Co11     1.0000 0.50000  0.40420  0.75000  Biso   1.000  Co
  Co12     1.0000 0.00000  0.90420  0.75000  Biso   1.000  Co
