data_image0
_cell_length_a       17.518
_cell_length_b       13.309
_cell_length_c       11.181
_cell_angle_alpha    90
_cell_angle_beta     95.873
_cell_angle_gamma    90

_symmetry_space_group_name_H-M    "P 1"
_symmetry_int_tables_number       1

loop_
  _symmetry_equiv_pos_as_xyz
  'x, y, z'

loop_
  _atom_site_label
  _atom_site_occupancy
  _atom_site_fract_x
  _atom_site_fract_y
  _atom_site_fract_z
  _atom_site_thermal_displace_type
  _atom_site_B_iso_or_equiv
  _atom_site_type_symbol
  Co1      1.0000 0.91929  0.94188  0.99851  Biso   1.000  Co
  C1       1.0000 0.63390  0.71880  0.17020  Biso   1.000  C
  C2       1.0000 0.69720  0.79080  0.21930  Biso   1.000  C
  C3       1.0000 0.74980  0.82830  0.14730  Biso   1.000  C
  H1       1.0000 0.74650  0.81240  0.06590  Biso   1.000  H
  C4       1.0000 0.80840  0.89120  0.19960  Biso   1.000  C
  C5       1.0000 0.81100  0.91350  0.32520  Biso   1.000  C
  C6       1.0000 0.75760  0.87700  0.39850  Biso   1.000  C
  H2       1.0000 0.75960  0.89340  0.47960  Biso   1.000  H
  C7       1.0000 0.70170  0.81510  0.34320  Biso   1.000  C
  H3       1.0000 0.66540  0.78810  0.38910  Biso   1.000  H
  N1       1.0000 0.87300  0.97410  0.35310  Biso   1.000  N
  N2       1.0000 0.90730  0.98600  0.25100  Biso   1.000  N
  N3       1.0000 0.87000  0.93880  0.16020  Biso   1.000  N
  O1       1.0000 0.58230  0.70190  0.23610  Biso   1.000  O
  O2       1.0000 0.63690  0.68300  0.06340  Biso   1.000  O
  O3       1.0000 0.97810  0.07640  0.06450  Biso   1.000  O
  H4       1.0000 0.95100  0.13000  0.06100  Biso   1.000  H
  Co2      1.0000 0.41929  0.44188  0.99851  Biso   1.000  Co
  C8       1.0000 0.13390  0.21880  0.17020  Biso   1.000  C
  C9       1.0000 0.19720  0.29080  0.21930  Biso   1.000  C
  C10      1.0000 0.24980  0.32830  0.14730  Biso   1.000  C
  H5       1.0000 0.24650  0.31240  0.06590  Biso   1.000  H
  C11      1.0000 0.30840  0.39120  0.19960  Biso   1.000  C
  C12      1.0000 0.31100  0.41350  0.32520  Biso   1.000  C
  C13      1.0000 0.25760  0.37700  0.39850  Biso   1.000  C
  H6       1.0000 0.25960  0.39340  0.47960  Biso   1.000  H
  C14      1.0000 0.20170  0.31510  0.34320  Biso   1.000  C
  H7       1.0000 0.16540  0.28810  0.38910  Biso   1.000  H
  N4       1.0000 0.37300  0.47410  0.35310  Biso   1.000  N
  N5       1.0000 0.40730  0.48600  0.25100  Biso   1.000  N
  N6       1.0000 0.37000  0.43880  0.16020  Biso   1.000  N
  O4       1.0000 0.08230  0.20190  0.23610  Biso   1.000  O
  O5       1.0000 0.13690  0.18300  0.06340  Biso   1.000  O
  O6       1.0000 0.47810  0.57640  0.06450  Biso   1.000  O
  H8       1.0000 0.45100  0.63000  0.06100  Biso   1.000  H
  Co3      1.0000 0.08071  0.94188  0.50149  Biso   1.000  Co
  C15      1.0000 0.36610  0.71880  0.32980  Biso   1.000  C
  C16      1.0000 0.30280  0.79080  0.28070  Biso   1.000  C
  C17      1.0000 0.25020  0.82830  0.35270  Biso   1.000  C
  H9       1.0000 0.25350  0.81240  0.43410  Biso   1.000  H
  C18      1.0000 0.19160  0.89120  0.30040  Biso   1.000  C
  C19      1.0000 0.18900  0.91350  0.17480  Biso   1.000  C
  C20      1.0000 0.24240  0.87700  0.10150  Biso   1.000  C
  H10      1.0000 0.24040  0.89340  0.02040  Biso   1.000  H
  C21      1.0000 0.29830  0.81510  0.15680  Biso   1.000  C
  H11      1.0000 0.33460  0.78810  0.11090  Biso   1.000  H
  N7       1.0000 0.12700  0.97410  0.14690  Biso   1.000  N
  N8       1.0000 0.09270  0.98600  0.24900  Biso   1.000  N
  N9       1.0000 0.13000  0.93880  0.33980  Biso   1.000  N
  O7       1.0000 0.41770  0.70190  0.26390  Biso   1.000  O
  O8       1.0000 0.36310  0.68300  0.43660  Biso   1.000  O
  O9       1.0000 0.02190  0.07640  0.43550  Biso   1.000  O
  H12      1.0000 0.04900  0.13000  0.43900  Biso   1.000  H
  Co4      1.0000 0.58071  0.44188  0.50149  Biso   1.000  Co
  C22      1.0000 0.86610  0.21880  0.32980  Biso   1.000  C
  C23      1.0000 0.80280  0.29080  0.28070  Biso   1.000  C
  C24      1.0000 0.75020  0.32830  0.35270  Biso   1.000  C
  H13      1.0000 0.75350  0.31240  0.43410  Biso   1.000  H
  C25      1.0000 0.69160  0.39120  0.30040  Biso   1.000  C
  C26      1.0000 0.68900  0.41350  0.17480  Biso   1.000  C
  C27      1.0000 0.74240  0.37700  0.10150  Biso   1.000  C
  H14      1.0000 0.74040  0.39340  0.02040  Biso   1.000  H
  C28      1.0000 0.79830  0.31510  0.15680  Biso   1.000  C
  H15      1.0000 0.83460  0.28810  0.11090  Biso   1.000  H
  N10      1.0000 0.62700  0.47410  0.14690  Biso   1.000  N
  N11      1.0000 0.59270  0.48600  0.24900  Biso   1.000  N
  N12      1.0000 0.63000  0.43880  0.33980  Biso   1.000  N
  O10      1.0000 0.91770  0.20190  0.26390  Biso   1.000  O
  O11      1.0000 0.86310  0.18300  0.43660  Biso   1.000  O
  O12      1.0000 0.52190  0.57640  0.43550  Biso   1.000  O
  H16      1.0000 0.54900  0.63000  0.43900  Biso   1.000  H
  Co5      1.0000 0.08071  0.05812  0.00149  Biso   1.000  Co
  C29      1.0000 0.36610  0.28120  0.82980  Biso   1.000  C
  C30      1.0000 0.30280  0.20920  0.78070  Biso   1.000  C
  C31      1.0000 0.25020  0.17170  0.85270  Biso   1.000  C
  H17      1.0000 0.25350  0.18760  0.93410  Biso   1.000  H
  C32      1.0000 0.19160  0.10880  0.80040  Biso   1.000  C
  C33      1.0000 0.18900  0.08650  0.67480  Biso   1.000  C
  C34      1.0000 0.24240  0.12300  0.60150  Biso   1.000  C
  H18      1.0000 0.24040  0.10660  0.52040  Biso   1.000  H
  C35      1.0000 0.29830  0.18490  0.65680  Biso   1.000  C
  H19      1.0000 0.33460  0.21190  0.61090  Biso   1.000  H
  N13      1.0000 0.12700  0.02590  0.64690  Biso   1.000  N
  N14      1.0000 0.09270  0.01400  0.74900  Biso   1.000  N
  N15      1.0000 0.13000  0.06120  0.83980  Biso   1.000  N
  O13      1.0000 0.41770  0.29810  0.76390  Biso   1.000  O
  O14      1.0000 0.36310  0.31700  0.93660  Biso   1.000  O
  O15      1.0000 0.02190  0.92360  0.93550  Biso   1.000  O
  H20      1.0000 0.04900  0.87000  0.93900  Biso   1.000  H
  Co6      1.0000 0.58071  0.55812  0.00149  Biso   1.000  Co
  C36      1.0000 0.86610  0.78120  0.82980  Biso   1.000  C
  C37      1.0000 0.80280  0.70920  0.78070  Biso   1.000  C
  C38      1.0000 0.75020  0.67170  0.85270  Biso   1.000  C
  H21      1.0000 0.75350  0.68760  0.93410  Biso   1.000  H
  C39      1.0000 0.69160  0.60880  0.80040  Biso   1.000  C
  C40      1.0000 0.68900  0.58650  0.67480  Biso   1.000  C
  C41      1.0000 0.74240  0.62300  0.60150  Biso   1.000  C
  H22      1.0000 0.74040  0.60660  0.52040  Biso   1.000  H
  C42      1.0000 0.79830  0.68490  0.65680  Biso   1.000  C
  H23      1.0000 0.83460  0.71190  0.61090  Biso   1.000  H
  N16      1.0000 0.62700  0.52590  0.64690  Biso   1.000  N
  N17      1.0000 0.59270  0.51400  0.74900  Biso   1.000  N
  N18      1.0000 0.63000  0.56120  0.83980  Biso   1.000  N
  O16      1.0000 0.91770  0.79810  0.76390  Biso   1.000  O
  O17      1.0000 0.86310  0.81700  0.93660  Biso   1.000  O
  O18      1.0000 0.52190  0.42360  0.93550  Biso   1.000  O
  H24      1.0000 0.54900  0.37000  0.93900  Biso   1.000  H
  Co7      1.0000 0.91929  0.05812  0.49851  Biso   1.000  Co
  C43      1.0000 0.63390  0.28120  0.67020  Biso   1.000  C
  C44      1.0000 0.69720  0.20920  0.71930  Biso   1.000  C
  C45      1.0000 0.74980  0.17170  0.64730  Biso   1.000  C
  H25      1.0000 0.74650  0.18760  0.56590  Biso   1.000  H
  C46      1.0000 0.80840  0.10880  0.69960  Biso   1.000  C
  C47      1.0000 0.81100  0.08650  0.82520  Biso   1.000  C
  C48      1.0000 0.75760  0.12300  0.89850  Biso   1.000  C
  H26      1.0000 0.75960  0.10660  0.97960  Biso   1.000  H
  C49      1.0000 0.70170  0.18490  0.84320  Biso   1.000  C
  H27      1.0000 0.66540  0.21190  0.88910  Biso   1.000  H
  N19      1.0000 0.87300  0.02590  0.85310  Biso   1.000  N
  N20      1.0000 0.90730  0.01400  0.75100  Biso   1.000  N
  N21      1.0000 0.87000  0.06120  0.66020  Biso   1.000  N
  O19      1.0000 0.58230  0.29810  0.73610  Biso   1.000  O
  O20      1.0000 0.63690  0.31700  0.56340  Biso   1.000  O
  O21      1.0000 0.97810  0.92360  0.56450  Biso   1.000  O
  H28      1.0000 0.95100  0.87000  0.56100  Biso   1.000  H
  Co8      1.0000 0.41929  0.55812  0.49851  Biso   1.000  Co
  C50      1.0000 0.13390  0.78120  0.67020  Biso   1.000  C
  C51      1.0000 0.19720  0.70920  0.71930  Biso   1.000  C
  C52      1.0000 0.24980  0.67170  0.64730  Biso   1.000  C
  H29      1.0000 0.24650  0.68760  0.56590  Biso   1.000  H
  C53      1.0000 0.30840  0.60880  0.69960  Biso   1.000  C
  C54      1.0000 0.31100  0.58650  0.82520  Biso   1.000  C
  C55      1.0000 0.25760  0.62300  0.89850  Biso   1.000  C
  H30      1.0000 0.25960  0.60660  0.97960  Biso   1.000  H
  C56      1.0000 0.20170  0.68490  0.84320  Biso   1.000  C
  H31      1.0000 0.16540  0.71190  0.88910  Biso   1.000  H
  N22      1.0000 0.37300  0.52590  0.85310  Biso   1.000  N
  N23      1.0000 0.40730  0.51400  0.75100  Biso   1.000  N
  N24      1.0000 0.37000  0.56120  0.66020  Biso   1.000  N
  O22      1.0000 0.08230  0.79810  0.73610  Biso   1.000  O
  O23      1.0000 0.13690  0.81700  0.56340  Biso   1.000  O
  O24      1.0000 0.47810  0.42360  0.56450  Biso   1.000  O
  H32      1.0000 0.45100  0.37000  0.56100  Biso   1.000  H
  Co9      1.0000 0.00000  0.09134  0.25000  Biso   1.000  Co
  Co10     1.0000 0.50000  0.59134  0.25000  Biso   1.000  Co
  Co11     1.0000 0.00000  0.90866  0.75000  Biso   1.000  Co
  Co12     1.0000 0.50000  0.40866  0.75000  Biso   1.000  Co
