data_image0
_cell_length_a       17.7835
_cell_length_b       12.7818
_cell_length_c       11.2254
_cell_angle_alpha    90
_cell_angle_beta     95.18
_cell_angle_gamma    90

_symmetry_space_group_name_H-M    "P 1"
_symmetry_int_tables_number       1

loop_
  _symmetry_equiv_pos_as_xyz
  'x, y, z'

loop_
  _atom_site_label
  _atom_site_occupancy
  _atom_site_fract_x
  _atom_site_fract_y
  _atom_site_fract_z
  _atom_site_thermal_displace_type
  _atom_site_B_iso_or_equiv
  _atom_site_type_symbol
  Co1      1.0000 0.42086  0.55816  0.49986  Biso   1.000  Co
  N1       1.0000 0.87320  0.93500  0.16170  Biso   1.000  N
  N2       1.0000 0.91050  0.98310  0.25560  Biso   1.000  N
  N3       1.0000 0.87680  0.97010  0.35480  Biso   1.000  N
  C1       1.0000 0.81200  0.88700  0.20460  Biso   1.000  C
  C2       1.0000 0.81470  0.90990  0.32740  Biso   1.000  C
  C3       1.0000 0.76030  0.87260  0.39840  Biso   1.000  C
  H1       1.0000 0.76280  0.88730  0.47980  Biso   1.000  H
  C4       1.0000 0.70350  0.81380  0.34390  Biso   1.000  C
  H2       1.0000 0.66630  0.78830  0.38930  Biso   1.000  H
  C5       1.0000 0.69910  0.79020  0.21950  Biso   1.000  C
  C6       1.0000 0.75310  0.82680  0.14830  Biso   1.000  C
  H3       1.0000 0.75040  0.81220  0.06690  Biso   1.000  H
  C7       1.0000 0.63390  0.72370  0.16870  Biso   1.000  C
  O1       1.0000 0.52011  0.57990  0.43220  Biso   1.000  O
  H4       1.0000 0.54600  0.63900  0.46500  Biso   1.000  H
  O2       1.0000 0.63691  0.68760  0.06390  Biso   1.000  O
  O3       1.0000 0.58158  0.70970  0.23460  Biso   1.000  O
  Co2      1.0000 0.92086  0.05816  0.49986  Biso   1.000  Co
  N4       1.0000 0.37320  0.43500  0.16170  Biso   1.000  N
  N5       1.0000 0.41050  0.48310  0.25560  Biso   1.000  N
  N6       1.0000 0.37680  0.47010  0.35480  Biso   1.000  N
  C8       1.0000 0.31200  0.38700  0.20460  Biso   1.000  C
  C9       1.0000 0.31470  0.40990  0.32740  Biso   1.000  C
  C10      1.0000 0.26030  0.37260  0.39840  Biso   1.000  C
  H5       1.0000 0.26280  0.38730  0.47980  Biso   1.000  H
  C11      1.0000 0.20350  0.31380  0.34390  Biso   1.000  C
  H6       1.0000 0.16630  0.28830  0.38930  Biso   1.000  H
  C12      1.0000 0.19910  0.29020  0.21950  Biso   1.000  C
  C13      1.0000 0.25310  0.32680  0.14830  Biso   1.000  C
  H7       1.0000 0.25040  0.31220  0.06690  Biso   1.000  H
  C14      1.0000 0.13390  0.22370  0.16870  Biso   1.000  C
  O4       1.0000 0.02011  0.07990  0.43220  Biso   1.000  O
  H8       1.0000 0.04600  0.13900  0.46500  Biso   1.000  H
  O5       1.0000 0.13691  0.18760  0.06390  Biso   1.000  O
  O6       1.0000 0.08158  0.20970  0.23460  Biso   1.000  O
  Co3      1.0000 0.57914  0.55816  0.00014  Biso   1.000  Co
  N7       1.0000 0.12680  0.93500  0.33830  Biso   1.000  N
  N8       1.0000 0.08950  0.98310  0.24440  Biso   1.000  N
  N9       1.0000 0.12320  0.97010  0.14520  Biso   1.000  N
  C15      1.0000 0.18800  0.88700  0.29540  Biso   1.000  C
  C16      1.0000 0.18530  0.90990  0.17260  Biso   1.000  C
  C17      1.0000 0.23970  0.87260  0.10160  Biso   1.000  C
  H9       1.0000 0.23720  0.88730  0.02020  Biso   1.000  H
  C18      1.0000 0.29650  0.81380  0.15610  Biso   1.000  C
  H10      1.0000 0.33370  0.78830  0.11070  Biso   1.000  H
  C19      1.0000 0.30090  0.79020  0.28050  Biso   1.000  C
  C20      1.0000 0.24690  0.82680  0.35170  Biso   1.000  C
  H11      1.0000 0.24960  0.81220  0.43310  Biso   1.000  H
  C21      1.0000 0.36610  0.72370  0.33130  Biso   1.000  C
  O7       1.0000 0.47989  0.57990  0.06780  Biso   1.000  O
  H12      1.0000 0.45400  0.63900  0.03500  Biso   1.000  H
  O8       1.0000 0.36309  0.68760  0.43610  Biso   1.000  O
  O9       1.0000 0.41842  0.70970  0.26540  Biso   1.000  O
  Co4      1.0000 0.07914  0.05816  0.00014  Biso   1.000  Co
  N10      1.0000 0.62680  0.43500  0.33830  Biso   1.000  N
  N11      1.0000 0.58950  0.48310  0.24440  Biso   1.000  N
  N12      1.0000 0.62320  0.47010  0.14520  Biso   1.000  N
  C22      1.0000 0.68800  0.38700  0.29540  Biso   1.000  C
  C23      1.0000 0.68530  0.40990  0.17260  Biso   1.000  C
  C24      1.0000 0.73970  0.37260  0.10160  Biso   1.000  C
  H13      1.0000 0.73720  0.38730  0.02020  Biso   1.000  H
  C25      1.0000 0.79650  0.31380  0.15610  Biso   1.000  C
  H14      1.0000 0.83370  0.28830  0.11070  Biso   1.000  H
  C26      1.0000 0.80090  0.29020  0.28050  Biso   1.000  C
  C27      1.0000 0.74690  0.32680  0.35170  Biso   1.000  C
  H15      1.0000 0.74960  0.31220  0.43310  Biso   1.000  H
  C28      1.0000 0.86610  0.22370  0.33130  Biso   1.000  C
  O10      1.0000 0.97989  0.07990  0.06780  Biso   1.000  O
  H16      1.0000 0.95400  0.13900  0.03500  Biso   1.000  H
  O11      1.0000 0.86309  0.18760  0.43610  Biso   1.000  O
  O12      1.0000 0.91842  0.20970  0.26540  Biso   1.000  O
  Co5      1.0000 0.57914  0.44184  0.50014  Biso   1.000  Co
  N13      1.0000 0.12680  0.06500  0.83830  Biso   1.000  N
  N14      1.0000 0.08950  0.01690  0.74440  Biso   1.000  N
  N15      1.0000 0.12320  0.02990  0.64520  Biso   1.000  N
  C29      1.0000 0.18800  0.11300  0.79540  Biso   1.000  C
  C30      1.0000 0.18530  0.09010  0.67260  Biso   1.000  C
  C31      1.0000 0.23970  0.12740  0.60160  Biso   1.000  C
  H17      1.0000 0.23720  0.11270  0.52020  Biso   1.000  H
  C32      1.0000 0.29650  0.18620  0.65610  Biso   1.000  C
  H18      1.0000 0.33370  0.21170  0.61070  Biso   1.000  H
  C33      1.0000 0.30090  0.20980  0.78050  Biso   1.000  C
  C34      1.0000 0.24690  0.17320  0.85170  Biso   1.000  C
  H19      1.0000 0.24960  0.18780  0.93310  Biso   1.000  H
  C35      1.0000 0.36610  0.27630  0.83130  Biso   1.000  C
  O13      1.0000 0.47989  0.42010  0.56780  Biso   1.000  O
  H20      1.0000 0.45400  0.36100  0.53500  Biso   1.000  H
  O14      1.0000 0.36309  0.31240  0.93610  Biso   1.000  O
  O15      1.0000 0.41842  0.29030  0.76540  Biso   1.000  O
  Co6      1.0000 0.07914  0.94184  0.50014  Biso   1.000  Co
  N16      1.0000 0.62680  0.56500  0.83830  Biso   1.000  N
  N17      1.0000 0.58950  0.51690  0.74440  Biso   1.000  N
  N18      1.0000 0.62320  0.52990  0.64520  Biso   1.000  N
  C36      1.0000 0.68800  0.61300  0.79540  Biso   1.000  C
  C37      1.0000 0.68530  0.59010  0.67260  Biso   1.000  C
  C38      1.0000 0.73970  0.62740  0.60160  Biso   1.000  C
  H21      1.0000 0.73720  0.61270  0.52020  Biso   1.000  H
  C39      1.0000 0.79650  0.68620  0.65610  Biso   1.000  C
  H22      1.0000 0.83370  0.71170  0.61070  Biso   1.000  H
  C40      1.0000 0.80090  0.70980  0.78050  Biso   1.000  C
  C41      1.0000 0.74690  0.67320  0.85170  Biso   1.000  C
  H23      1.0000 0.74960  0.68780  0.93310  Biso   1.000  H
  C42      1.0000 0.86610  0.77630  0.83130  Biso   1.000  C
  O16      1.0000 0.97989  0.92010  0.56780  Biso   1.000  O
  H24      1.0000 0.95400  0.86100  0.53500  Biso   1.000  H
  O17      1.0000 0.86309  0.81240  0.93610  Biso   1.000  O
  O18      1.0000 0.91842  0.79030  0.76540  Biso   1.000  O
  Co7      1.0000 0.42086  0.44184  0.99986  Biso   1.000  Co
  N19      1.0000 0.87320  0.06500  0.66170  Biso   1.000  N
  N20      1.0000 0.91050  0.01690  0.75560  Biso   1.000  N
  N21      1.0000 0.87680  0.02990  0.85480  Biso   1.000  N
  C43      1.0000 0.81200  0.11300  0.70460  Biso   1.000  C
  C44      1.0000 0.81470  0.09010  0.82740  Biso   1.000  C
  C45      1.0000 0.76030  0.12740  0.89840  Biso   1.000  C
  H25      1.0000 0.76280  0.11270  0.97980  Biso   1.000  H
  C46      1.0000 0.70350  0.18620  0.84390  Biso   1.000  C
  H26      1.0000 0.66630  0.21170  0.88930  Biso   1.000  H
  C47      1.0000 0.69910  0.20980  0.71950  Biso   1.000  C
  C48      1.0000 0.75310  0.17320  0.64830  Biso   1.000  C
  H27      1.0000 0.75040  0.18780  0.56690  Biso   1.000  H
  C49      1.0000 0.63390  0.27630  0.66870  Biso   1.000  C
  O19      1.0000 0.52011  0.42010  0.93220  Biso   1.000  O
  H28      1.0000 0.54600  0.36100  0.96500  Biso   1.000  H
  O20      1.0000 0.63691  0.31240  0.56390  Biso   1.000  O
  O21      1.0000 0.58158  0.29030  0.73460  Biso   1.000  O
  Co8      1.0000 0.92086  0.94184  0.99986  Biso   1.000  Co
  N22      1.0000 0.37320  0.56500  0.66170  Biso   1.000  N
  N23      1.0000 0.41050  0.51690  0.75560  Biso   1.000  N
  N24      1.0000 0.37680  0.52990  0.85480  Biso   1.000  N
  C50      1.0000 0.31200  0.61300  0.70460  Biso   1.000  C
  C51      1.0000 0.31470  0.59010  0.82740  Biso   1.000  C
  C52      1.0000 0.26030  0.62740  0.89840  Biso   1.000  C
  H29      1.0000 0.26280  0.61270  0.97980  Biso   1.000  H
  C53      1.0000 0.20350  0.68620  0.84390  Biso   1.000  C
  H30      1.0000 0.16630  0.71170  0.88930  Biso   1.000  H
  C54      1.0000 0.19910  0.70980  0.71950  Biso   1.000  C
  C55      1.0000 0.25310  0.67320  0.64830  Biso   1.000  C
  H31      1.0000 0.25040  0.68780  0.56690  Biso   1.000  H
  C56      1.0000 0.13390  0.77630  0.66870  Biso   1.000  C
  O22      1.0000 0.02011  0.92010  0.93220  Biso   1.000  O
  H32      1.0000 0.04600  0.86100  0.96500  Biso   1.000  H
  O23      1.0000 0.13691  0.81240  0.56390  Biso   1.000  O
  O24      1.0000 0.08158  0.79030  0.73460  Biso   1.000  O
  Co9      1.0000 0.50000  0.59464  0.25000  Biso   1.000  Co
  Co10     1.0000 0.00000  0.09464  0.25000  Biso   1.000  Co
  Co11     1.0000 0.50000  0.40536  0.75000  Biso   1.000  Co
  Co12     1.0000 0.00000  0.90536  0.75000  Biso   1.000  Co
