data_image0
_cell_length_a       17.6286
_cell_length_b       13.0929
_cell_length_c       11.0727
_cell_angle_alpha    90
_cell_angle_beta     95.599
_cell_angle_gamma    90

_symmetry_space_group_name_H-M    "P 1"
_symmetry_int_tables_number       1

loop_
  _symmetry_equiv_pos_as_xyz
  'x, y, z'

loop_
  _atom_site_label
  _atom_site_occupancy
  _atom_site_fract_x
  _atom_site_fract_y
  _atom_site_fract_z
  _atom_site_thermal_displace_type
  _atom_site_B_iso_or_equiv
  _atom_site_type_symbol
  Co1      1.0000 0.57870  0.56424  0.99732  Biso   1.000  Co
  N1       1.0000 0.86950  0.93980  0.16330  Biso   1.000  N
  N2       1.0000 0.90680  0.98640  0.25600  Biso   1.000  N
  N3       1.0000 0.87320  0.97680  0.35710  Biso   1.000  N
  C1       1.0000 0.80860  0.89230  0.20850  Biso   1.000  C
  C2       1.0000 0.81190  0.91590  0.33040  Biso   1.000  C
  C3       1.0000 0.75810  0.87800  0.40240  Biso   1.000  C
  H1       1.0000 0.76170  0.89070  0.48540  Biso   1.000  H
  C4       1.0000 0.69990  0.82170  0.34690  Biso   1.000  C
  H2       1.0000 0.66150  0.79890  0.39230  Biso   1.000  H
  C5       1.0000 0.69610  0.79660  0.22140  Biso   1.000  C
  C6       1.0000 0.74920  0.83220  0.14970  Biso   1.000  C
  H3       1.0000 0.74640  0.81790  0.06710  Biso   1.000  H
  C7       1.0000 0.63310  0.72670  0.17110  Biso   1.000  C
  O1       1.0000 0.47900  0.57720  0.06740  Biso   1.000  O
  H4       1.0000 0.46500  0.63500  0.01600  Biso   1.000  H
  O2       1.0000 0.63630  0.69240  0.06470  Biso   1.000  O
  O3       1.0000 0.58150  0.70850  0.23890  Biso   1.000  O
  Co2      1.0000 0.07870  0.06424  0.99732  Biso   1.000  Co
  N4       1.0000 0.36950  0.43980  0.16330  Biso   1.000  N
  N5       1.0000 0.40680  0.48640  0.25600  Biso   1.000  N
  N6       1.0000 0.37320  0.47680  0.35710  Biso   1.000  N
  C8       1.0000 0.30860  0.39230  0.20850  Biso   1.000  C
  C9       1.0000 0.31190  0.41590  0.33040  Biso   1.000  C
  C10      1.0000 0.25810  0.37800  0.40240  Biso   1.000  C
  H5       1.0000 0.26170  0.39070  0.48540  Biso   1.000  H
  C11      1.0000 0.19990  0.32170  0.34690  Biso   1.000  C
  H6       1.0000 0.16150  0.29890  0.39230  Biso   1.000  H
  C12      1.0000 0.19610  0.29660  0.22140  Biso   1.000  C
  C13      1.0000 0.24920  0.33220  0.14970  Biso   1.000  C
  H7       1.0000 0.24640  0.31790  0.06710  Biso   1.000  H
  C14      1.0000 0.13310  0.22670  0.17110  Biso   1.000  C
  O4       1.0000 0.97900  0.07720  0.06740  Biso   1.000  O
  H8       1.0000 0.96500  0.13500  0.01600  Biso   1.000  H
  O5       1.0000 0.13630  0.19240  0.06470  Biso   1.000  O
  O6       1.0000 0.08150  0.20850  0.23890  Biso   1.000  O
  Co3      1.0000 0.42130  0.56424  0.50268  Biso   1.000  Co
  N7       1.0000 0.13050  0.93980  0.33670  Biso   1.000  N
  N8       1.0000 0.09320  0.98640  0.24400  Biso   1.000  N
  N9       1.0000 0.12680  0.97680  0.14290  Biso   1.000  N
  C15      1.0000 0.19140  0.89230  0.29150  Biso   1.000  C
  C16      1.0000 0.18810  0.91590  0.16960  Biso   1.000  C
  C17      1.0000 0.24190  0.87800  0.09760  Biso   1.000  C
  H9       1.0000 0.23830  0.89070  0.01460  Biso   1.000  H
  C18      1.0000 0.30010  0.82170  0.15310  Biso   1.000  C
  H10      1.0000 0.33850  0.79890  0.10770  Biso   1.000  H
  C19      1.0000 0.30390  0.79660  0.27860  Biso   1.000  C
  C20      1.0000 0.25080  0.83220  0.35030  Biso   1.000  C
  H11      1.0000 0.25360  0.81790  0.43290  Biso   1.000  H
  C21      1.0000 0.36690  0.72670  0.32890  Biso   1.000  C
  O7       1.0000 0.52100  0.57720  0.43260  Biso   1.000  O
  H12      1.0000 0.53500  0.63500  0.48400  Biso   1.000  H
  O8       1.0000 0.36370  0.69240  0.43530  Biso   1.000  O
  O9       1.0000 0.41850  0.70850  0.26110  Biso   1.000  O
  Co4      1.0000 0.92130  0.06424  0.50268  Biso   1.000  Co
  N10      1.0000 0.63050  0.43980  0.33670  Biso   1.000  N
  N11      1.0000 0.59320  0.48640  0.24400  Biso   1.000  N
  N12      1.0000 0.62680  0.47680  0.14290  Biso   1.000  N
  C22      1.0000 0.69140  0.39230  0.29150  Biso   1.000  C
  C23      1.0000 0.68810  0.41590  0.16960  Biso   1.000  C
  C24      1.0000 0.74190  0.37800  0.09760  Biso   1.000  C
  H13      1.0000 0.73830  0.39070  0.01460  Biso   1.000  H
  C25      1.0000 0.80010  0.32170  0.15310  Biso   1.000  C
  H14      1.0000 0.83850  0.29890  0.10770  Biso   1.000  H
  C26      1.0000 0.80390  0.29660  0.27860  Biso   1.000  C
  C27      1.0000 0.75080  0.33220  0.35030  Biso   1.000  C
  H15      1.0000 0.75360  0.31790  0.43290  Biso   1.000  H
  C28      1.0000 0.86690  0.22670  0.32890  Biso   1.000  C
  O10      1.0000 0.02100  0.07720  0.43260  Biso   1.000  O
  H16      1.0000 0.03500  0.13500  0.48400  Biso   1.000  H
  O11      1.0000 0.86370  0.19240  0.43530  Biso   1.000  O
  O12      1.0000 0.91850  0.20850  0.26110  Biso   1.000  O
  Co5      1.0000 0.42130  0.43576  0.00268  Biso   1.000  Co
  N13      1.0000 0.13050  0.06020  0.83670  Biso   1.000  N
  N14      1.0000 0.09320  0.01360  0.74400  Biso   1.000  N
  N15      1.0000 0.12680  0.02320  0.64290  Biso   1.000  N
  C29      1.0000 0.19140  0.10770  0.79150  Biso   1.000  C
  C30      1.0000 0.18810  0.08410  0.66960  Biso   1.000  C
  C31      1.0000 0.24190  0.12200  0.59760  Biso   1.000  C
  H17      1.0000 0.23830  0.10930  0.51460  Biso   1.000  H
  C32      1.0000 0.30010  0.17830  0.65310  Biso   1.000  C
  H18      1.0000 0.33850  0.20110  0.60770  Biso   1.000  H
  C33      1.0000 0.30390  0.20340  0.77860  Biso   1.000  C
  C34      1.0000 0.25080  0.16780  0.85030  Biso   1.000  C
  H19      1.0000 0.25360  0.18210  0.93290  Biso   1.000  H
  C35      1.0000 0.36690  0.27330  0.82890  Biso   1.000  C
  O13      1.0000 0.52100  0.42280  0.93260  Biso   1.000  O
  H20      1.0000 0.53500  0.36500  0.98400  Biso   1.000  H
  O14      1.0000 0.36370  0.30760  0.93530  Biso   1.000  O
  O15      1.0000 0.41850  0.29150  0.76110  Biso   1.000  O
  Co6      1.0000 0.92130  0.93576  0.00268  Biso   1.000  Co
  N16      1.0000 0.63050  0.56020  0.83670  Biso   1.000  N
  N17      1.0000 0.59320  0.51360  0.74400  Biso   1.000  N
  N18      1.0000 0.62680  0.52320  0.64290  Biso   1.000  N
  C36      1.0000 0.69140  0.60770  0.79150  Biso   1.000  C
  C37      1.0000 0.68810  0.58410  0.66960  Biso   1.000  C
  C38      1.0000 0.74190  0.62200  0.59760  Biso   1.000  C
  H21      1.0000 0.73830  0.60930  0.51460  Biso   1.000  H
  C39      1.0000 0.80010  0.67830  0.65310  Biso   1.000  C
  H22      1.0000 0.83850  0.70110  0.60770  Biso   1.000  H
  C40      1.0000 0.80390  0.70340  0.77860  Biso   1.000  C
  C41      1.0000 0.75080  0.66780  0.85030  Biso   1.000  C
  H23      1.0000 0.75360  0.68210  0.93290  Biso   1.000  H
  C42      1.0000 0.86690  0.77330  0.82890  Biso   1.000  C
  O16      1.0000 0.02100  0.92280  0.93260  Biso   1.000  O
  H24      1.0000 0.03500  0.86500  0.98400  Biso   1.000  H
  O17      1.0000 0.86370  0.80760  0.93530  Biso   1.000  O
  O18      1.0000 0.91850  0.79150  0.76110  Biso   1.000  O
  Co7      1.0000 0.57870  0.43576  0.49732  Biso   1.000  Co
  N19      1.0000 0.86950  0.06020  0.66330  Biso   1.000  N
  N20      1.0000 0.90680  0.01360  0.75600  Biso   1.000  N
  N21      1.0000 0.87320  0.02320  0.85710  Biso   1.000  N
  C43      1.0000 0.80860  0.10770  0.70850  Biso   1.000  C
  C44      1.0000 0.81190  0.08410  0.83040  Biso   1.000  C
  C45      1.0000 0.75810  0.12200  0.90240  Biso   1.000  C
  H25      1.0000 0.76170  0.10930  0.98540  Biso   1.000  H
  C46      1.0000 0.69990  0.17830  0.84690  Biso   1.000  C
  H26      1.0000 0.66150  0.20110  0.89230  Biso   1.000  H
  C47      1.0000 0.69610  0.20340  0.72140  Biso   1.000  C
  C48      1.0000 0.74920  0.16780  0.64970  Biso   1.000  C
  H27      1.0000 0.74640  0.18210  0.56710  Biso   1.000  H
  C49      1.0000 0.63310  0.27330  0.67110  Biso   1.000  C
  O19      1.0000 0.47900  0.42280  0.56740  Biso   1.000  O
  H28      1.0000 0.46500  0.36500  0.51600  Biso   1.000  H
  O20      1.0000 0.63630  0.30760  0.56470  Biso   1.000  O
  O21      1.0000 0.58150  0.29150  0.73890  Biso   1.000  O
  Co8      1.0000 0.07870  0.93576  0.49732  Biso   1.000  Co
  N22      1.0000 0.36950  0.56020  0.66330  Biso   1.000  N
  N23      1.0000 0.40680  0.51360  0.75600  Biso   1.000  N
  N24      1.0000 0.37320  0.52320  0.85710  Biso   1.000  N
  C50      1.0000 0.30860  0.60770  0.70850  Biso   1.000  C
  C51      1.0000 0.31190  0.58410  0.83040  Biso   1.000  C
  C52      1.0000 0.25810  0.62200  0.90240  Biso   1.000  C
  H29      1.0000 0.26170  0.60930  0.98540  Biso   1.000  H
  C53      1.0000 0.19990  0.67830  0.84690  Biso   1.000  C
  H30      1.0000 0.16150  0.70110  0.89230  Biso   1.000  H
  C54      1.0000 0.19610  0.70340  0.72140  Biso   1.000  C
  C55      1.0000 0.24920  0.66780  0.64970  Biso   1.000  C
  H31      1.0000 0.24640  0.68210  0.56710  Biso   1.000  H
  C56      1.0000 0.13310  0.77330  0.67110  Biso   1.000  C
  O22      1.0000 0.97900  0.92280  0.56740  Biso   1.000  O
  H32      1.0000 0.96500  0.86500  0.51600  Biso   1.000  H
  O23      1.0000 0.13630  0.80760  0.56470  Biso   1.000  O
  O24      1.0000 0.08150  0.79150  0.73890  Biso   1.000  O
  Co9      1.0000 0.50000  0.59353  0.25000  Biso   1.000  Co
  Co10     1.0000 0.00000  0.09353  0.25000  Biso   1.000  Co
  Co11     1.0000 0.50000  0.40647  0.75000  Biso   1.000  Co
  Co12     1.0000 0.00000  0.90647  0.75000  Biso   1.000  Co
