data_image0
_cell_length_a       14.347
_cell_length_b       14.347
_cell_length_c       20.408
_cell_angle_alpha    90
_cell_angle_beta     90
_cell_angle_gamma    120

_symmetry_space_group_name_H-M    P 1
_symmetry_int_tables_number       1

loop_
  _symmetry_equiv_pos_as_xyz
  'x, y, z'

loop_
  _atom_site_label
  _atom_site_occupancy
  _atom_site_fract_x
  _atom_site_fract_y
  _atom_site_fract_z
  _atom_site_thermal_displace_type
  _atom_site_B_iso_or_equiv
  _atom_site_type_symbol
  Zn1      1.0000 0.77367  0.27918  0.99420  Biso   1.000  Zn
  Zn2      1.0000 0.50551  0.22633  0.99420  Biso   1.000  Zn
  Zn3      1.0000 0.72082  0.49449  0.99420  Biso   1.000  Zn
  Zn4      1.0000 0.49449  0.72082  0.50580  Biso   1.000  Zn
  Zn5      1.0000 0.27918  0.77367  0.50580  Biso   1.000  Zn
  Zn6      1.0000 0.22633  0.50551  0.50580  Biso   1.000  Zn
  Zn7      1.0000 0.22633  0.72082  0.00580  Biso   1.000  Zn
  Zn8      1.0000 0.49449  0.77367  0.00580  Biso   1.000  Zn
  Zn9      1.0000 0.27918  0.50551  0.00580  Biso   1.000  Zn
  Zn10     1.0000 0.50551  0.27918  0.49420  Biso   1.000  Zn
  Zn11     1.0000 0.72082  0.22633  0.49420  Biso   1.000  Zn
  Zn12     1.0000 0.77367  0.49449  0.49420  Biso   1.000  Zn
  Zn13     1.0000 0.63750  0.00000  0.75000  Biso   1.000  Zn
  Zn14     1.0000 0.36250  0.36250  0.75000  Biso   1.000  Zn
  Zn15     1.0000 0.00000  0.63750  0.75000  Biso   1.000  Zn
  Zn16     1.0000 0.36250  0.00000  0.25000  Biso   1.000  Zn
  Zn17     1.0000 0.63750  0.63750  0.25000  Biso   1.000  Zn
  Zn18     1.0000 1.00000  0.36250  0.25000  Biso   1.000  Zn
  H1       1.0000 0.60050  0.98280  0.12210  Biso   1.000  H
  H2       1.0000 0.69310  0.10260  0.11510  Biso   1.000  H
  H3       1.0000 0.76220  0.99840  0.16230  Biso   1.000  H
  H4       1.0000 0.72330  0.92120  0.10160  Biso   1.000  H
  H5       1.0000 0.85230  0.06950  0.03590  Biso   1.000  H
  H6       1.0000 0.90660  0.03360  0.08920  Biso   1.000  H
  H7       1.0000 0.89670  0.13640  0.10060  Biso   1.000  H
  H8       1.0000 0.38230  0.39950  0.12210  Biso   1.000  H
  H9       1.0000 0.40950  0.30690  0.11510  Biso   1.000  H
  H10      1.0000 0.23620  0.23780  0.16230  Biso   1.000  H
  H11      1.0000 0.19790  0.27670  0.10160  Biso   1.000  H
  H12      1.0000 0.21720  0.14770  0.03590  Biso   1.000  H
  H13      1.0000 0.12700  0.09340  0.08920  Biso   1.000  H
  H14      1.0000 0.23970  0.10330  0.10060  Biso   1.000  H
  H15      1.0000 0.01720  0.61770  0.12210  Biso   1.000  H
  H16      1.0000 0.89740  0.59050  0.11510  Biso   1.000  H
  H17      1.0000 0.00160  0.76380  0.16230  Biso   1.000  H
  H18      1.0000 0.07880  0.80210  0.10160  Biso   1.000  H
  H19      1.0000 0.93050  0.78280  0.03590  Biso   1.000  H
  H20      1.0000 0.96640  0.87300  0.08920  Biso   1.000  H
  H21      1.0000 0.86360  0.76030  0.10060  Biso   1.000  H
  H22      1.0000 0.61770  0.01720  0.37790  Biso   1.000  H
  H23      1.0000 0.59050  0.89740  0.38490  Biso   1.000  H
  H24      1.0000 0.76380  0.00160  0.33770  Biso   1.000  H
  H25      1.0000 0.80210  0.07880  0.39840  Biso   1.000  H
  H26      1.0000 0.78280  0.93050  0.46410  Biso   1.000  H
  H27      1.0000 0.87300  0.96640  0.41080  Biso   1.000  H
  H28      1.0000 0.76030  0.86360  0.39940  Biso   1.000  H
  H29      1.0000 0.98280  0.60050  0.37790  Biso   1.000  H
  H30      1.0000 0.10260  0.69310  0.38490  Biso   1.000  H
  H31      1.0000 0.99840  0.76220  0.33770  Biso   1.000  H
  H32      1.0000 0.92120  0.72330  0.39840  Biso   1.000  H
  H33      1.0000 0.06950  0.85230  0.46410  Biso   1.000  H
  H34      1.0000 0.03360  0.90660  0.41080  Biso   1.000  H
  H35      1.0000 0.13640  0.89670  0.39940  Biso   1.000  H
  H36      1.0000 0.39950  0.38230  0.37790  Biso   1.000  H
  H37      1.0000 0.30690  0.40950  0.38490  Biso   1.000  H
  H38      1.0000 0.23780  0.23620  0.33770  Biso   1.000  H
  H39      1.0000 0.27670  0.19790  0.39840  Biso   1.000  H
  H40      1.0000 0.14770  0.21720  0.46410  Biso   1.000  H
  H41      1.0000 0.09340  0.12700  0.41080  Biso   1.000  H
  H42      1.0000 0.10330  0.23970  0.39940  Biso   1.000  H
  H43      1.0000 0.39950  0.01720  0.87790  Biso   1.000  H
  H44      1.0000 0.30690  0.89740  0.88490  Biso   1.000  H
  H45      1.0000 0.23780  0.00160  0.83770  Biso   1.000  H
  H46      1.0000 0.27670  0.07880  0.89840  Biso   1.000  H
  H47      1.0000 0.14770  0.93050  0.96410  Biso   1.000  H
  H48      1.0000 0.09340  0.96640  0.91080  Biso   1.000  H
  H49      1.0000 0.10330  0.86360  0.89940  Biso   1.000  H
  H50      1.0000 0.61770  0.60050  0.87790  Biso   1.000  H
  H51      1.0000 0.59050  0.69310  0.88490  Biso   1.000  H
  H52      1.0000 0.76380  0.76220  0.83770  Biso   1.000  H
  H53      1.0000 0.80210  0.72330  0.89840  Biso   1.000  H
  H54      1.0000 0.78280  0.85230  0.96410  Biso   1.000  H
  H55      1.0000 0.87300  0.90660  0.91080  Biso   1.000  H
  H56      1.0000 0.76030  0.89670  0.89940  Biso   1.000  H
  H57      1.0000 0.98280  0.38230  0.87790  Biso   1.000  H
  H58      1.0000 0.10260  0.40950  0.88490  Biso   1.000  H
  H59      1.0000 0.99840  0.23620  0.83770  Biso   1.000  H
  H60      1.0000 0.92120  0.19790  0.89840  Biso   1.000  H
  H61      1.0000 0.06950  0.21720  0.96410  Biso   1.000  H
  H62      1.0000 0.03360  0.12700  0.91080  Biso   1.000  H
  H63      1.0000 0.13640  0.23970  0.89940  Biso   1.000  H
  H64      1.0000 0.38230  0.98280  0.62210  Biso   1.000  H
  H65      1.0000 0.40950  0.10260  0.61510  Biso   1.000  H
  H66      1.0000 0.23620  0.99840  0.66230  Biso   1.000  H
  H67      1.0000 0.19790  0.92120  0.60160  Biso   1.000  H
  H68      1.0000 0.21720  0.06950  0.53590  Biso   1.000  H
  H69      1.0000 0.12700  0.03360  0.58920  Biso   1.000  H
  H70      1.0000 0.23970  0.13640  0.60060  Biso   1.000  H
  H71      1.0000 0.01720  0.39950  0.62210  Biso   1.000  H
  H72      1.0000 0.89740  0.30690  0.61510  Biso   1.000  H
  H73      1.0000 0.00160  0.23780  0.66230  Biso   1.000  H
  H74      1.0000 0.07880  0.27670  0.60160  Biso   1.000  H
  H75      1.0000 0.93050  0.14770  0.53590  Biso   1.000  H
  H76      1.0000 0.96640  0.09340  0.58920  Biso   1.000  H
  H77      1.0000 0.86360  0.10330  0.60060  Biso   1.000  H
  H78      1.0000 0.60050  0.61770  0.62210  Biso   1.000  H
  H79      1.0000 0.69310  0.59050  0.61510  Biso   1.000  H
  H80      1.0000 0.76220  0.76380  0.66230  Biso   1.000  H
  H81      1.0000 0.72330  0.80210  0.60160  Biso   1.000  H
  H82      1.0000 0.85230  0.78280  0.53590  Biso   1.000  H
  H83      1.0000 0.90660  0.87300  0.58920  Biso   1.000  H
  H84      1.0000 0.89670  0.76030  0.60060  Biso   1.000  H
  C1       1.0000 0.52150  0.88250  0.87690  Biso   1.000  C
  C2       1.0000 0.69740  0.16060  0.86940  Biso   1.000  C
  C3       1.0000 0.64390  0.02640  0.02710  Biso   1.000  C
  C4       1.0000 0.58800  0.96630  0.92680  Biso   1.000  C
  C5       1.0000 0.65780  0.07970  0.92330  Biso   1.000  C
  C6       1.0000 0.66690  0.03000  0.09920  Biso   1.000  C
  C7       1.0000 0.75200  0.99500  0.11520  Biso   1.000  C
  C8       1.0000 0.86230  0.06530  0.08210  Biso   1.000  C
  C9       1.0000 0.36100  0.47850  0.87690  Biso   1.000  C
  C10      1.0000 0.46320  0.30260  0.86940  Biso   1.000  C
  C11      1.0000 0.38250  0.35610  0.02710  Biso   1.000  C
  C12      1.0000 0.37830  0.41200  0.92680  Biso   1.000  C
  C13      1.0000 0.42190  0.34220  0.92330  Biso   1.000  C
  C14      1.0000 0.36310  0.33310  0.09920  Biso   1.000  C
  C15      1.0000 0.24300  0.24800  0.11520  Biso   1.000  C
  C16      1.0000 0.20300  0.13770  0.08210  Biso   1.000  C
  C17      1.0000 0.11750  0.63900  0.87690  Biso   1.000  C
  C18      1.0000 0.83940  0.53680  0.86940  Biso   1.000  C
  C19      1.0000 0.97360  0.61750  0.02710  Biso   1.000  C
  C20      1.0000 0.03370  0.62170  0.92680  Biso   1.000  C
  C21      1.0000 0.92030  0.57810  0.92330  Biso   1.000  C
  C22      1.0000 0.97000  0.63690  0.09920  Biso   1.000  C
  C23      1.0000 0.00500  0.75700  0.11520  Biso   1.000  C
  C24      1.0000 0.93470  0.79700  0.08210  Biso   1.000  C
  C25      1.0000 0.63900  0.11750  0.62310  Biso   1.000  C
  C26      1.0000 0.53680  0.83940  0.63060  Biso   1.000  C
  C27      1.0000 0.61750  0.97360  0.47290  Biso   1.000  C
  C28      1.0000 0.62170  0.03370  0.57320  Biso   1.000  C
  C29      1.0000 0.57810  0.92030  0.57670  Biso   1.000  C
  C30      1.0000 0.63690  0.97000  0.40080  Biso   1.000  C
  C31      1.0000 0.75700  0.00500  0.38480  Biso   1.000  C
  C32      1.0000 0.79700  0.93470  0.41790  Biso   1.000  C
  C33      1.0000 0.88250  0.52150  0.62310  Biso   1.000  C
  C34      1.0000 0.16060  0.69740  0.63060  Biso   1.000  C
  C35      1.0000 0.02640  0.64390  0.47290  Biso   1.000  C
  C36      1.0000 0.96630  0.58800  0.57320  Biso   1.000  C
  C37      1.0000 0.07970  0.65780  0.57670  Biso   1.000  C
  C38      1.0000 0.03000  0.66690  0.40080  Biso   1.000  C
  C39      1.0000 0.99500  0.75200  0.38480  Biso   1.000  C
  C40      1.0000 0.06530  0.86230  0.41790  Biso   1.000  C
  C41      1.0000 0.47850  0.36100  0.62310  Biso   1.000  C
  C42      1.0000 0.30260  0.46320  0.63060  Biso   1.000  C
  C43      1.0000 0.35610  0.38250  0.47290  Biso   1.000  C
  C44      1.0000 0.41200  0.37830  0.57320  Biso   1.000  C
  C45      1.0000 0.34220  0.42190  0.57670  Biso   1.000  C
  C46      1.0000 0.33310  0.36310  0.40080  Biso   1.000  C
  C47      1.0000 0.24800  0.24300  0.38480  Biso   1.000  C
  C48      1.0000 0.13770  0.20300  0.41790  Biso   1.000  C
  C49      1.0000 0.47850  0.11750  0.12310  Biso   1.000  C
  C50      1.0000 0.30260  0.83940  0.13060  Biso   1.000  C
  C51      1.0000 0.35610  0.97360  0.97290  Biso   1.000  C
  C52      1.0000 0.41200  0.03370  0.07320  Biso   1.000  C
  C53      1.0000 0.34220  0.92030  0.07670  Biso   1.000  C
  C54      1.0000 0.33310  0.97000  0.90080  Biso   1.000  C
  C55      1.0000 0.24800  0.00500  0.88480  Biso   1.000  C
  C56      1.0000 0.13770  0.93470  0.91790  Biso   1.000  C
  C57      1.0000 0.63900  0.52150  0.12310  Biso   1.000  C
  C58      1.0000 0.53680  0.69740  0.13060  Biso   1.000  C
  C59      1.0000 0.61750  0.64390  0.97290  Biso   1.000  C
  C60      1.0000 0.62170  0.58800  0.07320  Biso   1.000  C
  C61      1.0000 0.57810  0.65780  0.07670  Biso   1.000  C
  C62      1.0000 0.63690  0.66690  0.90080  Biso   1.000  C
  C63      1.0000 0.75700  0.75200  0.88480  Biso   1.000  C
  C64      1.0000 0.79700  0.86230  0.91790  Biso   1.000  C
  C65      1.0000 0.88250  0.36100  0.12310  Biso   1.000  C
  C66      1.0000 0.16060  0.46320  0.13060  Biso   1.000  C
  C67      1.0000 0.02640  0.38250  0.97290  Biso   1.000  C
  C68      1.0000 0.96630  0.37830  0.07320  Biso   1.000  C
  C69      1.0000 0.07970  0.42190  0.07670  Biso   1.000  C
  C70      1.0000 0.03000  0.36310  0.90080  Biso   1.000  C
  C71      1.0000 0.99500  0.24300  0.88480  Biso   1.000  C
  C72      1.0000 0.06530  0.20300  0.91790  Biso   1.000  C
  C73      1.0000 0.36100  0.88250  0.37690  Biso   1.000  C
  C74      1.0000 0.46320  0.16060  0.36940  Biso   1.000  C
  C75      1.0000 0.38250  0.02640  0.52710  Biso   1.000  C
  C76      1.0000 0.37830  0.96630  0.42680  Biso   1.000  C
  C77      1.0000 0.42190  0.07970  0.42330  Biso   1.000  C
  C78      1.0000 0.36310  0.03000  0.59920  Biso   1.000  C
  C79      1.0000 0.24300  0.99500  0.61520  Biso   1.000  C
  C80      1.0000 0.20300  0.06530  0.58210  Biso   1.000  C
  C81      1.0000 0.11750  0.47850  0.37690  Biso   1.000  C
  C82      1.0000 0.83940  0.30260  0.36940  Biso   1.000  C
  C83      1.0000 0.97360  0.35610  0.52710  Biso   1.000  C
  C84      1.0000 0.03370  0.41200  0.42680  Biso   1.000  C
  C85      1.0000 0.92030  0.34220  0.42330  Biso   1.000  C
  C86      1.0000 0.97000  0.33310  0.59920  Biso   1.000  C
  C87      1.0000 0.00500  0.24800  0.61520  Biso   1.000  C
  C88      1.0000 0.93470  0.13770  0.58210  Biso   1.000  C
  C89      1.0000 0.52150  0.63900  0.37690  Biso   1.000  C
  C90      1.0000 0.69740  0.53680  0.36940  Biso   1.000  C
  C91      1.0000 0.64390  0.61750  0.52710  Biso   1.000  C
  C92      1.0000 0.58800  0.62170  0.42680  Biso   1.000  C
  C93      1.0000 0.65780  0.57810  0.42330  Biso   1.000  C
  C94      1.0000 0.66690  0.63690  0.59920  Biso   1.000  C
  C95      1.0000 0.75200  0.75700  0.61520  Biso   1.000  C
  C96      1.0000 0.86230  0.79700  0.58210  Biso   1.000  C
  N1       1.0000 0.68910  0.11520  0.98740  Biso   1.000  N
  N2       1.0000 0.58080  0.93520  0.99220  Biso   1.000  N
  N3       1.0000 0.42610  0.31090  0.98740  Biso   1.000  N
  N4       1.0000 0.35440  0.41920  0.99220  Biso   1.000  N
  N5       1.0000 0.88480  0.57390  0.98740  Biso   1.000  N
  N6       1.0000 0.06480  0.64560  0.99220  Biso   1.000  N
  N7       1.0000 0.57390  0.88480  0.51260  Biso   1.000  N
  N8       1.0000 0.64560  0.06480  0.50780  Biso   1.000  N
  N9       1.0000 0.11520  0.68910  0.51260  Biso   1.000  N
  N10      1.0000 0.93520  0.58080  0.50780  Biso   1.000  N
  N11      1.0000 0.31090  0.42610  0.51260  Biso   1.000  N
  N12      1.0000 0.41920  0.35440  0.50780  Biso   1.000  N
  N13      1.0000 0.31090  0.88480  0.01260  Biso   1.000  N
  N14      1.0000 0.41920  0.06480  0.00780  Biso   1.000  N
  N15      1.0000 0.57390  0.68910  0.01260  Biso   1.000  N
  N16      1.0000 0.64560  0.58080  0.00780  Biso   1.000  N
  N17      1.0000 0.11520  0.42610  0.01260  Biso   1.000  N
  N18      1.0000 0.93520  0.35440  0.00780  Biso   1.000  N
  N19      1.0000 0.42610  0.11520  0.48740  Biso   1.000  N
  N20      1.0000 0.35440  0.93520  0.49220  Biso   1.000  N
  N21      1.0000 0.88480  0.31090  0.48740  Biso   1.000  N
  N22      1.0000 0.06480  0.41920  0.49220  Biso   1.000  N
  N23      1.0000 0.68910  0.57390  0.48740  Biso   1.000  N
  N24      1.0000 0.58080  0.64560  0.49220  Biso   1.000  N
  O1       1.0000 0.45590  0.78750  0.90100  Biso   1.000  O
  O2       1.0000 0.52660  0.90280  0.81670  Biso   1.000  O
  O3       1.0000 0.76020  0.26060  0.88780  Biso   1.000  O
  O4       1.0000 0.67480  0.13440  0.81000  Biso   1.000  O
  O5       1.0000 0.33160  0.54410  0.90100  Biso   1.000  O
  O6       1.0000 0.37620  0.47340  0.81670  Biso   1.000  O
  O7       1.0000 0.50040  0.23980  0.88780  Biso   1.000  O
  O8       1.0000 0.45960  0.32520  0.81000  Biso   1.000  O
  O9       1.0000 0.21250  0.66840  0.90100  Biso   1.000  O
  O10      1.0000 0.09720  0.62380  0.81670  Biso   1.000  O
  O11      1.0000 0.73940  0.49960  0.88780  Biso   1.000  O
  O12      1.0000 0.86560  0.54040  0.81000  Biso   1.000  O
  O13      1.0000 0.66840  0.21250  0.59900  Biso   1.000  O
  O14      1.0000 0.62380  0.09720  0.68330  Biso   1.000  O
  O15      1.0000 0.49960  0.73940  0.61220  Biso   1.000  O
  O16      1.0000 0.54040  0.86560  0.69000  Biso   1.000  O
  O17      1.0000 0.78750  0.45590  0.59900  Biso   1.000  O
  O18      1.0000 0.90280  0.52660  0.68330  Biso   1.000  O
  O19      1.0000 0.26060  0.76020  0.61220  Biso   1.000  O
  O20      1.0000 0.13440  0.67480  0.69000  Biso   1.000  O
  O21      1.0000 0.54410  0.33160  0.59900  Biso   1.000  O
  O22      1.0000 0.47340  0.37620  0.68330  Biso   1.000  O
  O23      1.0000 0.23980  0.50040  0.61220  Biso   1.000  O
  O24      1.0000 0.32520  0.45960  0.69000  Biso   1.000  O
  O25      1.0000 0.54410  0.21250  0.09900  Biso   1.000  O
  O26      1.0000 0.47340  0.09720  0.18330  Biso   1.000  O
  O27      1.0000 0.23980  0.73940  0.11220  Biso   1.000  O
  O28      1.0000 0.32520  0.86560  0.19000  Biso   1.000  O
  O29      1.0000 0.66840  0.45590  0.09900  Biso   1.000  O
  O30      1.0000 0.62380  0.52660  0.18330  Biso   1.000  O
  O31      1.0000 0.49960  0.76020  0.11220  Biso   1.000  O
  O32      1.0000 0.54040  0.67480  0.19000  Biso   1.000  O
  O33      1.0000 0.78750  0.33160  0.09900  Biso   1.000  O
  O34      1.0000 0.90280  0.37620  0.18330  Biso   1.000  O
  O35      1.0000 0.26060  0.50040  0.11220  Biso   1.000  O
  O36      1.0000 0.13440  0.45960  0.19000  Biso   1.000  O
  O37      1.0000 0.33160  0.78750  0.40100  Biso   1.000  O
  O38      1.0000 0.37620  0.90280  0.31670  Biso   1.000  O
  O39      1.0000 0.50040  0.26060  0.38780  Biso   1.000  O
  O40      1.0000 0.45960  0.13440  0.31000  Biso   1.000  O
  O41      1.0000 0.21250  0.54410  0.40100  Biso   1.000  O
  O42      1.0000 0.09720  0.47340  0.31670  Biso   1.000  O
  O43      1.0000 0.73940  0.23980  0.38780  Biso   1.000  O
  O44      1.0000 0.86560  0.32520  0.31000  Biso   1.000  O
  O45      1.0000 0.45590  0.66840  0.40100  Biso   1.000  O
  O46      1.0000 0.52660  0.62380  0.31670  Biso   1.000  O
  O47      1.0000 0.76020  0.49960  0.38780  Biso   1.000  O
  O48      1.0000 0.67480  0.54040  0.31000  Biso   1.000  O
  O49      1.0000 0.66667  0.33334  0.97910  Biso   1.000  O
  O50      1.0000 0.33333  0.66666  0.52090  Biso   1.000  O
  O51      1.0000 0.33333  0.66666  0.02090  Biso   1.000  O
  O52      1.0000 0.66667  0.33334  0.47910  Biso   1.000  O
