data_image0
_cell_length_a       25.1335
_cell_length_b       25.1335
_cell_length_c       9.7454
_cell_angle_alpha    90
_cell_angle_beta     90
_cell_angle_gamma    90

_symmetry_space_group_name_H-M    "P 1"
_symmetry_int_tables_number       1

loop_
  _symmetry_equiv_pos_as_xyz
  'x, y, z'

loop_
  _atom_site_label
  _atom_site_occupancy
  _atom_site_fract_x
  _atom_site_fract_y
  _atom_site_fract_z
  _atom_site_thermal_displace_type
  _atom_site_B_iso_or_equiv
  _atom_site_type_symbol
  In1      1.0000 0.70316  0.35607  0.69672  Biso   1.000  In
  O1       1.0000 0.74059  0.38163  0.49200  Biso   1.000  O
  O2       1.0000 0.81463  0.41697  0.40450  Biso   1.000  O
  O3       1.0000 0.78095  0.39210  0.74420  Biso   1.000  O
  O4       1.0000 0.84779  0.44036  0.65830  Biso   1.000  O
  O5       1.0000 0.73437  0.28084  0.59630  Biso   1.000  O
  O6       1.0000 0.76872  0.20055  0.63550  Biso   1.000  O
  O7       1.0000 0.64038  0.33544  0.53890  Biso   1.000  O
  O8       1.0000 0.55309  0.32806  0.50550  Biso   1.000  O
  O9       1.0000 0.62885  0.32812  0.80420  Biso   1.000  O
  O10      1.0000 0.54140  0.33075  0.78860  Biso   1.000  O
  C1       1.0000 0.78539  0.40324  0.50160  Biso   1.000  C
  C2       1.0000 0.80659  0.41323  0.64760  Biso   1.000  C
  C3       1.0000 0.75117  0.24477  0.67240  Biso   1.000  C
  C4       1.0000 0.59266  0.33140  0.57980  Biso   1.000  C
  C5       1.0000 0.58556  0.33006  0.73660  Biso   1.000  C
  In2      1.0000 0.20316  0.85607  0.19672  Biso   1.000  In
  O11      1.0000 0.24059  0.88163  0.99200  Biso   1.000  O
  O12      1.0000 0.31463  0.91697  0.90450  Biso   1.000  O
  O13      1.0000 0.28095  0.89210  0.24420  Biso   1.000  O
  O14      1.0000 0.34779  0.94036  0.15830  Biso   1.000  O
  O15      1.0000 0.23437  0.78084  0.09630  Biso   1.000  O
  O16      1.0000 0.26872  0.70055  0.13550  Biso   1.000  O
  O17      1.0000 0.14038  0.83544  0.03890  Biso   1.000  O
  O18      1.0000 0.05309  0.82806  0.00550  Biso   1.000  O
  O19      1.0000 0.12885  0.82812  0.30420  Biso   1.000  O
  O20      1.0000 0.04140  0.83075  0.28860  Biso   1.000  O
  C6       1.0000 0.28539  0.90324  0.00160  Biso   1.000  C
  C7       1.0000 0.30659  0.91323  0.14760  Biso   1.000  C
  C8       1.0000 0.25117  0.74477  0.17240  Biso   1.000  C
  C9       1.0000 0.09266  0.83140  0.07980  Biso   1.000  C
  C10      1.0000 0.08556  0.83006  0.23660  Biso   1.000  C
  In3      1.0000 0.79684  0.64393  0.19672  Biso   1.000  In
  O21      1.0000 0.75941  0.61837  0.99200  Biso   1.000  O
  O22      1.0000 0.68537  0.58303  0.90450  Biso   1.000  O
  O23      1.0000 0.71905  0.60790  0.24420  Biso   1.000  O
  O24      1.0000 0.65221  0.55964  0.15830  Biso   1.000  O
  O25      1.0000 0.76563  0.71916  0.09630  Biso   1.000  O
  O26      1.0000 0.73128  0.79945  0.13550  Biso   1.000  O
  O27      1.0000 0.85962  0.66456  0.03890  Biso   1.000  O
  O28      1.0000 0.94691  0.67194  0.00550  Biso   1.000  O
  O29      1.0000 0.87115  0.67188  0.30420  Biso   1.000  O
  O30      1.0000 0.95860  0.66925  0.28860  Biso   1.000  O
  C11      1.0000 0.71461  0.59676  0.00160  Biso   1.000  C
  C12      1.0000 0.69341  0.58677  0.14760  Biso   1.000  C
  C13      1.0000 0.74883  0.75523  0.17240  Biso   1.000  C
  C14      1.0000 0.90734  0.66860  0.07980  Biso   1.000  C
  C15      1.0000 0.91444  0.66994  0.23660  Biso   1.000  C
  In4      1.0000 0.29684  0.14393  0.69672  Biso   1.000  In
  O31      1.0000 0.25941  0.11837  0.49200  Biso   1.000  O
  O32      1.0000 0.18537  0.08303  0.40450  Biso   1.000  O
  O33      1.0000 0.21905  0.10790  0.74420  Biso   1.000  O
  O34      1.0000 0.15221  0.05964  0.65830  Biso   1.000  O
  O35      1.0000 0.26563  0.21916  0.59630  Biso   1.000  O
  O36      1.0000 0.23128  0.29945  0.63550  Biso   1.000  O
  O37      1.0000 0.35962  0.16456  0.53890  Biso   1.000  O
  O38      1.0000 0.44691  0.17194  0.50550  Biso   1.000  O
  O39      1.0000 0.37115  0.17188  0.80420  Biso   1.000  O
  O40      1.0000 0.45860  0.16925  0.78860  Biso   1.000  O
  C16      1.0000 0.21461  0.09676  0.50160  Biso   1.000  C
  C17      1.0000 0.19341  0.08677  0.64760  Biso   1.000  C
  C18      1.0000 0.24883  0.25523  0.67240  Biso   1.000  C
  C19      1.0000 0.40734  0.16860  0.57980  Biso   1.000  C
  C20      1.0000 0.41444  0.16994  0.73660  Biso   1.000  C
  In5      1.0000 0.39393  0.95316  0.94672  Biso   1.000  In
  O41      1.0000 0.36837  0.99059  0.74200  Biso   1.000  O
  O42      1.0000 0.33303  0.06463  0.65450  Biso   1.000  O
  O43      1.0000 0.35790  0.03095  0.99420  Biso   1.000  O
  O44      1.0000 0.30964  0.09779  0.90830  Biso   1.000  O
  O45      1.0000 0.46916  0.98437  0.84630  Biso   1.000  O
  O46      1.0000 0.54945  0.01872  0.88550  Biso   1.000  O
  O47      1.0000 0.41456  0.89038  0.78890  Biso   1.000  O
  O48      1.0000 0.42194  0.80309  0.75550  Biso   1.000  O
  O49      1.0000 0.42188  0.87885  0.05420  Biso   1.000  O
  O50      1.0000 0.41925  0.79140  0.03860  Biso   1.000  O
  C21      1.0000 0.34676  0.03539  0.75160  Biso   1.000  C
  C22      1.0000 0.33677  0.05659  0.89760  Biso   1.000  C
  C23      1.0000 0.50523  0.00117  0.92240  Biso   1.000  C
  C24      1.0000 0.41860  0.84266  0.82980  Biso   1.000  C
  C25      1.0000 0.41994  0.83556  0.98660  Biso   1.000  C
  In6      1.0000 0.89393  0.45316  0.44672  Biso   1.000  In
  O51      1.0000 0.86837  0.49059  0.24200  Biso   1.000  O
  O52      1.0000 0.83303  0.56463  0.15450  Biso   1.000  O
  O53      1.0000 0.85790  0.53095  0.49420  Biso   1.000  O
  O54      1.0000 0.80964  0.59779  0.40830  Biso   1.000  O
  O55      1.0000 0.96916  0.48437  0.34630  Biso   1.000  O
  O56      1.0000 0.04945  0.51872  0.38550  Biso   1.000  O
  O57      1.0000 0.91456  0.39038  0.28890  Biso   1.000  O
  O58      1.0000 0.92194  0.30309  0.25550  Biso   1.000  O
  O59      1.0000 0.92188  0.37885  0.55420  Biso   1.000  O
  O60      1.0000 0.91925  0.29140  0.53860  Biso   1.000  O
  C26      1.0000 0.84676  0.53539  0.25160  Biso   1.000  C
  C27      1.0000 0.83677  0.55659  0.39760  Biso   1.000  C
  C28      1.0000 0.00523  0.50117  0.42240  Biso   1.000  C
  C29      1.0000 0.91860  0.34266  0.32980  Biso   1.000  C
  C30      1.0000 0.91994  0.33556  0.48660  Biso   1.000  C
  In7      1.0000 0.10607  0.04684  0.44672  Biso   1.000  In
  O61      1.0000 0.13163  0.00941  0.24200  Biso   1.000  O
  O62      1.0000 0.16697  0.93537  0.15450  Biso   1.000  O
  O63      1.0000 0.14210  0.96905  0.49420  Biso   1.000  O
  O64      1.0000 0.19036  0.90221  0.40830  Biso   1.000  O
  O65      1.0000 0.03084  0.01563  0.34630  Biso   1.000  O
  O66      1.0000 0.95055  0.98128  0.38550  Biso   1.000  O
  O67      1.0000 0.08544  0.10962  0.28890  Biso   1.000  O
  O68      1.0000 0.07806  0.19691  0.25550  Biso   1.000  O
  O69      1.0000 0.07812  0.12115  0.55420  Biso   1.000  O
  O70      1.0000 0.08075  0.20860  0.53860  Biso   1.000  O
  C31      1.0000 0.15324  0.96461  0.25160  Biso   1.000  C
  C32      1.0000 0.16323  0.94341  0.39760  Biso   1.000  C
  C33      1.0000 0.99477  0.99883  0.42240  Biso   1.000  C
  C34      1.0000 0.08140  0.15734  0.32980  Biso   1.000  C
  C35      1.0000 0.08006  0.16444  0.48660  Biso   1.000  C
  In8      1.0000 0.60607  0.54684  0.94672  Biso   1.000  In
  O71      1.0000 0.63163  0.50941  0.74200  Biso   1.000  O
  O72      1.0000 0.66697  0.43537  0.65450  Biso   1.000  O
  O73      1.0000 0.64210  0.46905  0.99420  Biso   1.000  O
  O74      1.0000 0.69036  0.40221  0.90830  Biso   1.000  O
  O75      1.0000 0.53084  0.51563  0.84630  Biso   1.000  O
  O76      1.0000 0.45055  0.48128  0.88550  Biso   1.000  O
  O77      1.0000 0.58544  0.60962  0.78890  Biso   1.000  O
  O78      1.0000 0.57806  0.69691  0.75550  Biso   1.000  O
  O79      1.0000 0.57812  0.62115  0.05420  Biso   1.000  O
  O80      1.0000 0.58075  0.70860  0.03860  Biso   1.000  O
  C36      1.0000 0.65324  0.46461  0.75160  Biso   1.000  C
  C37      1.0000 0.66323  0.44341  0.89760  Biso   1.000  C
  C38      1.0000 0.49477  0.49883  0.92240  Biso   1.000  C
  C39      1.0000 0.58140  0.65734  0.82980  Biso   1.000  C
  C40      1.0000 0.58006  0.66444  0.98660  Biso   1.000  C
  In9      1.0000 0.29684  0.64393  0.30328  Biso   1.000  In
  O81      1.0000 0.25941  0.61837  0.50800  Biso   1.000  O
  O82      1.0000 0.18537  0.58303  0.59550  Biso   1.000  O
  O83      1.0000 0.21905  0.60790  0.25580  Biso   1.000  O
  O84      1.0000 0.15221  0.55964  0.34170  Biso   1.000  O
  O85      1.0000 0.26563  0.71916  0.40370  Biso   1.000  O
  O86      1.0000 0.23128  0.79945  0.36450  Biso   1.000  O
  O87      1.0000 0.35962  0.66456  0.46110  Biso   1.000  O
  O88      1.0000 0.44691  0.67194  0.49450  Biso   1.000  O
  O89      1.0000 0.37115  0.67188  0.19580  Biso   1.000  O
  O90      1.0000 0.45860  0.66925  0.21140  Biso   1.000  O
  C41      1.0000 0.21461  0.59676  0.49840  Biso   1.000  C
  C42      1.0000 0.19341  0.58677  0.35240  Biso   1.000  C
  C43      1.0000 0.24883  0.75523  0.32760  Biso   1.000  C
  C44      1.0000 0.40734  0.66860  0.42020  Biso   1.000  C
  C45      1.0000 0.41444  0.66994  0.26340  Biso   1.000  C
  In10     1.0000 0.79684  0.14393  0.80328  Biso   1.000  In
  O91      1.0000 0.75941  0.11837  0.00800  Biso   1.000  O
  O92      1.0000 0.68537  0.08303  0.09550  Biso   1.000  O
  O93      1.0000 0.71905  0.10790  0.75580  Biso   1.000  O
  O94      1.0000 0.65221  0.05964  0.84170  Biso   1.000  O
  O95      1.0000 0.76563  0.21916  0.90370  Biso   1.000  O
  O96      1.0000 0.73128  0.29945  0.86450  Biso   1.000  O
  O97      1.0000 0.85962  0.16456  0.96110  Biso   1.000  O
  O98      1.0000 0.94691  0.17194  0.99450  Biso   1.000  O
  O99      1.0000 0.87115  0.17188  0.69580  Biso   1.000  O
  O100     1.0000 0.95860  0.16925  0.71140  Biso   1.000  O
  C46      1.0000 0.71461  0.09676  0.99840  Biso   1.000  C
  C47      1.0000 0.69341  0.08677  0.85240  Biso   1.000  C
  C48      1.0000 0.74883  0.25523  0.82760  Biso   1.000  C
  C49      1.0000 0.90734  0.16860  0.92020  Biso   1.000  C
  C50      1.0000 0.91444  0.16994  0.76340  Biso   1.000  C
  In11     1.0000 0.20316  0.35607  0.80328  Biso   1.000  In
  O101     1.0000 0.24059  0.38163  0.00800  Biso   1.000  O
  O102     1.0000 0.31463  0.41697  0.09550  Biso   1.000  O
  O103     1.0000 0.28095  0.39210  0.75580  Biso   1.000  O
  O104     1.0000 0.34779  0.44036  0.84170  Biso   1.000  O
  O105     1.0000 0.23437  0.28084  0.90370  Biso   1.000  O
  O106     1.0000 0.26872  0.20055  0.86450  Biso   1.000  O
  O107     1.0000 0.14038  0.33544  0.96110  Biso   1.000  O
  O108     1.0000 0.05309  0.32806  0.99450  Biso   1.000  O
  O109     1.0000 0.12885  0.32812  0.69580  Biso   1.000  O
  O110     1.0000 0.04140  0.33075  0.71140  Biso   1.000  O
  C51      1.0000 0.28539  0.40324  0.99840  Biso   1.000  C
  C52      1.0000 0.30659  0.41323  0.85240  Biso   1.000  C
  C53      1.0000 0.25117  0.24477  0.82760  Biso   1.000  C
  C54      1.0000 0.09266  0.33140  0.92020  Biso   1.000  C
  C55      1.0000 0.08556  0.33006  0.76340  Biso   1.000  C
  In12     1.0000 0.70316  0.85607  0.30328  Biso   1.000  In
  O111     1.0000 0.74059  0.88163  0.50800  Biso   1.000  O
  O112     1.0000 0.81463  0.91697  0.59550  Biso   1.000  O
  O113     1.0000 0.78095  0.89210  0.25580  Biso   1.000  O
  O114     1.0000 0.84779  0.94036  0.34170  Biso   1.000  O
  O115     1.0000 0.73437  0.78084  0.40370  Biso   1.000  O
  O116     1.0000 0.76872  0.70055  0.36450  Biso   1.000  O
  O117     1.0000 0.64038  0.83544  0.46110  Biso   1.000  O
  O118     1.0000 0.55309  0.82806  0.49450  Biso   1.000  O
  O119     1.0000 0.62885  0.82812  0.19580  Biso   1.000  O
  O120     1.0000 0.54140  0.83075  0.21140  Biso   1.000  O
  C56      1.0000 0.78539  0.90324  0.49840  Biso   1.000  C
  C57      1.0000 0.80659  0.91323  0.35240  Biso   1.000  C
  C58      1.0000 0.75117  0.74477  0.32760  Biso   1.000  C
  C59      1.0000 0.59266  0.83140  0.42020  Biso   1.000  C
  C60      1.0000 0.58556  0.83006  0.26340  Biso   1.000  C
  In13     1.0000 0.60607  0.04684  0.05328  Biso   1.000  In
  O121     1.0000 0.63163  0.00941  0.25800  Biso   1.000  O
  O122     1.0000 0.66697  0.93537  0.34550  Biso   1.000  O
  O123     1.0000 0.64210  0.96905  0.00580  Biso   1.000  O
  O124     1.0000 0.69036  0.90221  0.09170  Biso   1.000  O
  O125     1.0000 0.53084  0.01563  0.15370  Biso   1.000  O
  O126     1.0000 0.45055  0.98128  0.11450  Biso   1.000  O
  O127     1.0000 0.58544  0.10962  0.21110  Biso   1.000  O
  O128     1.0000 0.57806  0.19691  0.24450  Biso   1.000  O
  O129     1.0000 0.57812  0.12115  0.94580  Biso   1.000  O
  O130     1.0000 0.58075  0.20860  0.96140  Biso   1.000  O
  C61      1.0000 0.65324  0.96461  0.24840  Biso   1.000  C
  C62      1.0000 0.66323  0.94341  0.10240  Biso   1.000  C
  C63      1.0000 0.49477  0.99883  0.07760  Biso   1.000  C
  C64      1.0000 0.58140  0.15734  0.17020  Biso   1.000  C
  C65      1.0000 0.58006  0.16444  0.01340  Biso   1.000  C
  In14     1.0000 0.10607  0.54684  0.55328  Biso   1.000  In
  O131     1.0000 0.13163  0.50941  0.75800  Biso   1.000  O
  O132     1.0000 0.16697  0.43537  0.84550  Biso   1.000  O
  O133     1.0000 0.14210  0.46905  0.50580  Biso   1.000  O
  O134     1.0000 0.19036  0.40221  0.59170  Biso   1.000  O
  O135     1.0000 0.03084  0.51563  0.65370  Biso   1.000  O
  O136     1.0000 0.95055  0.48128  0.61450  Biso   1.000  O
  O137     1.0000 0.08544  0.60962  0.71110  Biso   1.000  O
  O138     1.0000 0.07806  0.69691  0.74450  Biso   1.000  O
  O139     1.0000 0.07812  0.62115  0.44580  Biso   1.000  O
  O140     1.0000 0.08075  0.70860  0.46140  Biso   1.000  O
  C66      1.0000 0.15324  0.46461  0.74840  Biso   1.000  C
  C67      1.0000 0.16323  0.44341  0.60240  Biso   1.000  C
  C68      1.0000 0.99477  0.49883  0.57760  Biso   1.000  C
  C69      1.0000 0.08140  0.65734  0.67020  Biso   1.000  C
  C70      1.0000 0.08006  0.66444  0.51340  Biso   1.000  C
  In15     1.0000 0.89393  0.95316  0.55328  Biso   1.000  In
  O141     1.0000 0.86837  0.99059  0.75800  Biso   1.000  O
  O142     1.0000 0.83303  0.06463  0.84550  Biso   1.000  O
  O143     1.0000 0.85790  0.03095  0.50580  Biso   1.000  O
  O144     1.0000 0.80964  0.09779  0.59170  Biso   1.000  O
  O145     1.0000 0.96916  0.98437  0.65370  Biso   1.000  O
  O146     1.0000 0.04945  0.01872  0.61450  Biso   1.000  O
  O147     1.0000 0.91456  0.89038  0.71110  Biso   1.000  O
  O148     1.0000 0.92194  0.80309  0.74450  Biso   1.000  O
  O149     1.0000 0.92188  0.87885  0.44580  Biso   1.000  O
  O150     1.0000 0.91925  0.79140  0.46140  Biso   1.000  O
  C71      1.0000 0.84676  0.03539  0.74840  Biso   1.000  C
  C72      1.0000 0.83677  0.05659  0.60240  Biso   1.000  C
  C73      1.0000 0.00523  0.00117  0.57760  Biso   1.000  C
  C74      1.0000 0.91860  0.84266  0.67020  Biso   1.000  C
  C75      1.0000 0.91994  0.83556  0.51340  Biso   1.000  C
  In16     1.0000 0.39393  0.45316  0.05328  Biso   1.000  In
  O151     1.0000 0.36837  0.49059  0.25800  Biso   1.000  O
  O152     1.0000 0.33303  0.56463  0.34550  Biso   1.000  O
  O153     1.0000 0.35790  0.53095  0.00580  Biso   1.000  O
  O154     1.0000 0.30964  0.59779  0.09170  Biso   1.000  O
  O155     1.0000 0.46916  0.48437  0.15370  Biso   1.000  O
  O156     1.0000 0.54945  0.51872  0.11450  Biso   1.000  O
  O157     1.0000 0.41456  0.39038  0.21110  Biso   1.000  O
  O158     1.0000 0.42194  0.30309  0.24450  Biso   1.000  O
  O159     1.0000 0.42188  0.37885  0.94580  Biso   1.000  O
  O160     1.0000 0.41925  0.29140  0.96140  Biso   1.000  O
  C76      1.0000 0.34676  0.53539  0.24840  Biso   1.000  C
  C77      1.0000 0.33677  0.55659  0.10240  Biso   1.000  C
  C78      1.0000 0.50523  0.50117  0.07760  Biso   1.000  C
  C79      1.0000 0.41860  0.34266  0.17020  Biso   1.000  C
  C80      1.0000 0.41994  0.33556  0.01340  Biso   1.000  C
