data_image0
_cell_length_a       15.2321
_cell_length_b       11.482
_cell_length_c       13.4913
_cell_angle_alpha    90
_cell_angle_beta     114.52
_cell_angle_gamma    90

_symmetry_space_group_name_H-M    "P 1"
_symmetry_int_tables_number       1

loop_
  _symmetry_equiv_pos_as_xyz
  'x, y, z'

loop_
  _atom_site_label
  _atom_site_occupancy
  _atom_site_fract_x
  _atom_site_fract_y
  _atom_site_fract_z
  _atom_site_thermal_displace_type
  _atom_site_B_iso_or_equiv
  _atom_site_type_symbol
  Bi1      1.0000 0.99498  0.49949  0.83174  Biso   1.000  Bi
  Bi2      1.0000 0.57574  0.52979  0.82574  Biso   1.000  Bi
  O1       1.0000 0.00530  0.70660  0.87910  Biso   1.000  O
  O2       1.0000 0.01930  0.88240  0.82020  Biso   1.000  O
  O3       1.0000 0.97060  0.61820  0.68110  Biso   1.000  O
  O4       1.0000 0.99500  0.79150  0.62610  Biso   1.000  O
  O5       1.0000 0.90340  0.51140  0.94510  Biso   1.000  O
  O6       1.0000 0.75380  0.51780  0.93650  Biso   1.000  O
  O7       1.0000 0.83120  0.47590  0.72780  Biso   1.000  O
  O8       1.0000 0.68560  0.44900  0.72560  Biso   1.000  O
  O9       1.0000 0.47780  0.41190  0.67700  Biso   1.000  O
  O10      1.0000 0.45710  0.23070  0.61510  Biso   1.000  O
  O11      1.0000 0.59760  0.33410  0.87680  Biso   1.000  O
  O12      1.0000 0.56030  0.15240  0.81700  Biso   1.000  O
  O13      1.0000 0.44010  0.49410  0.85830  Biso   1.000  O
  O14      1.0000 0.38180  0.47290  0.98340  Biso   1.000  O
  C1       1.0000 0.00720  0.77530  0.80900  Biso   1.000  C
  C2       1.0000 0.98900  0.72420  0.69530  Biso   1.000  C
  C3       1.0000 0.81200  0.50520  0.89600  Biso   1.000  C
  C4       1.0000 0.77200  0.47240  0.77280  Biso   1.000  C
  C5       1.0000 0.48980  0.30420  0.68820  Biso   1.000  C
  C6       1.0000 0.55280  0.25890  0.80290  Biso   1.000  C
  C7       1.0000 0.44950  0.49070  0.95490  Biso   1.000  C
  Bi3      1.0000 0.00502  0.99949  0.66826  Biso   1.000  Bi
  Bi4      1.0000 0.42426  0.02979  0.67426  Biso   1.000  Bi
  O15      1.0000 0.99470  0.20660  0.62090  Biso   1.000  O
  O16      1.0000 0.98070  0.38240  0.67980  Biso   1.000  O
  O17      1.0000 0.02940  0.11820  0.81890  Biso   1.000  O
  O18      1.0000 0.00500  0.29150  0.87390  Biso   1.000  O
  O19      1.0000 0.09660  0.01140  0.55490  Biso   1.000  O
  O20      1.0000 0.24620  0.01780  0.56350  Biso   1.000  O
  O21      1.0000 0.16880  0.97590  0.77220  Biso   1.000  O
  O22      1.0000 0.31440  0.94900  0.77440  Biso   1.000  O
  O23      1.0000 0.52220  0.91190  0.82300  Biso   1.000  O
  O24      1.0000 0.54290  0.73070  0.88490  Biso   1.000  O
  O25      1.0000 0.40240  0.83410  0.62320  Biso   1.000  O
  O26      1.0000 0.43970  0.65240  0.68300  Biso   1.000  O
  O27      1.0000 0.55990  0.99410  0.64170  Biso   1.000  O
  O28      1.0000 0.61820  0.97290  0.51660  Biso   1.000  O
  C8       1.0000 0.99280  0.27530  0.69100  Biso   1.000  C
  C9       1.0000 0.01100  0.22420  0.80470  Biso   1.000  C
  C10      1.0000 0.18800  0.00520  0.60400  Biso   1.000  C
  C11      1.0000 0.22800  0.97240  0.72720  Biso   1.000  C
  C12      1.0000 0.51020  0.80420  0.81180  Biso   1.000  C
  C13      1.0000 0.44720  0.75890  0.69710  Biso   1.000  C
  C14      1.0000 0.55050  0.99070  0.54510  Biso   1.000  C
  Bi5      1.0000 0.00502  0.50051  0.16826  Biso   1.000  Bi
  Bi6      1.0000 0.42426  0.47021  0.17426  Biso   1.000  Bi
  O29      1.0000 0.99470  0.29340  0.12090  Biso   1.000  O
  O30      1.0000 0.98070  0.11760  0.17980  Biso   1.000  O
  O31      1.0000 0.02940  0.38180  0.31890  Biso   1.000  O
  O32      1.0000 0.00500  0.20850  0.37390  Biso   1.000  O
  O33      1.0000 0.09660  0.48860  0.05490  Biso   1.000  O
  O34      1.0000 0.24620  0.48220  0.06350  Biso   1.000  O
  O35      1.0000 0.16880  0.52410  0.27220  Biso   1.000  O
  O36      1.0000 0.31440  0.55100  0.27440  Biso   1.000  O
  O37      1.0000 0.52220  0.58810  0.32300  Biso   1.000  O
  O38      1.0000 0.54290  0.76930  0.38490  Biso   1.000  O
  O39      1.0000 0.40240  0.66590  0.12320  Biso   1.000  O
  O40      1.0000 0.43970  0.84760  0.18300  Biso   1.000  O
  O41      1.0000 0.55990  0.50590  0.14170  Biso   1.000  O
  O42      1.0000 0.61820  0.52710  0.01660  Biso   1.000  O
  C15      1.0000 0.99280  0.22470  0.19100  Biso   1.000  C
  C16      1.0000 0.01100  0.27580  0.30470  Biso   1.000  C
  C17      1.0000 0.18800  0.49480  0.10400  Biso   1.000  C
  C18      1.0000 0.22800  0.52760  0.22720  Biso   1.000  C
  C19      1.0000 0.51020  0.69580  0.31180  Biso   1.000  C
  C20      1.0000 0.44720  0.74110  0.19710  Biso   1.000  C
  C21      1.0000 0.55050  0.50930  0.04510  Biso   1.000  C
  Bi7      1.0000 0.99498  0.00051  0.33174  Biso   1.000  Bi
  Bi8      1.0000 0.57574  0.97021  0.32574  Biso   1.000  Bi
  O43      1.0000 0.00530  0.79340  0.37910  Biso   1.000  O
  O44      1.0000 0.01930  0.61760  0.32020  Biso   1.000  O
  O45      1.0000 0.97060  0.88180  0.18110  Biso   1.000  O
  O46      1.0000 0.99500  0.70850  0.12610  Biso   1.000  O
  O47      1.0000 0.90340  0.98860  0.44510  Biso   1.000  O
  O48      1.0000 0.75380  0.98220  0.43650  Biso   1.000  O
  O49      1.0000 0.83120  0.02410  0.22780  Biso   1.000  O
  O50      1.0000 0.68560  0.05100  0.22560  Biso   1.000  O
  O51      1.0000 0.47780  0.08810  0.17700  Biso   1.000  O
  O52      1.0000 0.45710  0.26930  0.11510  Biso   1.000  O
  O53      1.0000 0.59760  0.16590  0.37680  Biso   1.000  O
  O54      1.0000 0.56030  0.34760  0.31700  Biso   1.000  O
  O55      1.0000 0.44010  0.00590  0.35830  Biso   1.000  O
  O56      1.0000 0.38180  0.02710  0.48340  Biso   1.000  O
  C22      1.0000 0.00720  0.72470  0.30900  Biso   1.000  C
  C23      1.0000 0.98900  0.77580  0.19530  Biso   1.000  C
  C24      1.0000 0.81200  0.99480  0.39600  Biso   1.000  C
  C25      1.0000 0.77200  0.02760  0.27280  Biso   1.000  C
  C26      1.0000 0.48980  0.19580  0.18820  Biso   1.000  C
  C27      1.0000 0.55280  0.24110  0.30290  Biso   1.000  C
  C28      1.0000 0.44950  0.00930  0.45490  Biso   1.000  C
