data_image0
_cell_length_a       26.0767
_cell_length_b       26.0767
_cell_length_c       8.9467
_cell_angle_alpha    90
_cell_angle_beta     90
_cell_angle_gamma    90

_symmetry_space_group_name_H-M    "P 1"
_symmetry_int_tables_number       1

loop_
  _symmetry_equiv_pos_as_xyz
  'x, y, z'

loop_
  _atom_site_label
  _atom_site_occupancy
  _atom_site_fract_x
  _atom_site_fract_y
  _atom_site_fract_z
  _atom_site_thermal_displace_type
  _atom_site_B_iso_or_equiv
  _atom_site_type_symbol
  In1      1.0000 0.27433  0.14260  0.68362  Biso   1.000  In
  S1       1.0000 0.38841  0.19116  0.64279  Biso   1.000  S
  O1       1.0000 0.20388  0.10474  0.73860  Biso   1.000  O
  O2       1.0000 0.14221  0.05547  0.64630  Biso   1.000  O
  O3       1.0000 0.24115  0.11843  0.46100  Biso   1.000  O
  O4       1.0000 0.18260  0.06349  0.37340  Biso   1.000  O
  O5       1.0000 0.27566  0.20258  0.86390  Biso   1.000  O
  O6       1.0000 0.26735  0.28655  0.90380  Biso   1.000  O
  O7       1.0000 0.33733  0.17639  0.57810  Biso   1.000  O
  O8       1.0000 0.38244  0.23538  0.73750  Biso   1.000  O
  O9       1.0000 0.40687  0.14726  0.73110  Biso   1.000  O
  O10      1.0000 0.42083  0.20098  0.51270  Biso   1.000  O
  C1       1.0000 0.18122  0.08208  0.63230  Biso   1.000  C
  C2       1.0000 0.20363  0.08871  0.47390  Biso   1.000  C
  C3       1.0000 0.26249  0.24698  0.82660  Biso   1.000  C
  In2      1.0000 0.77433  0.64260  0.18362  Biso   1.000  In
  S2       1.0000 0.88841  0.69116  0.14279  Biso   1.000  S
  O11      1.0000 0.70388  0.60474  0.23860  Biso   1.000  O
  O12      1.0000 0.64221  0.55547  0.14630  Biso   1.000  O
  O13      1.0000 0.74115  0.61843  0.96100  Biso   1.000  O
  O14      1.0000 0.68260  0.56349  0.87340  Biso   1.000  O
  O15      1.0000 0.77566  0.70258  0.36390  Biso   1.000  O
  O16      1.0000 0.76735  0.78655  0.40380  Biso   1.000  O
  O17      1.0000 0.83733  0.67639  0.07810  Biso   1.000  O
  O18      1.0000 0.88244  0.73538  0.23750  Biso   1.000  O
  O19      1.0000 0.90687  0.64726  0.23110  Biso   1.000  O
  O20      1.0000 0.92083  0.70098  0.01270  Biso   1.000  O
  C4       1.0000 0.68122  0.58208  0.13230  Biso   1.000  C
  C5       1.0000 0.70363  0.58871  0.97390  Biso   1.000  C
  C6       1.0000 0.76249  0.74698  0.32660  Biso   1.000  C
  In3      1.0000 0.22567  0.85740  0.18362  Biso   1.000  In
  S3       1.0000 0.11159  0.80884  0.14279  Biso   1.000  S
  O21      1.0000 0.29612  0.89526  0.23860  Biso   1.000  O
  O22      1.0000 0.35779  0.94453  0.14630  Biso   1.000  O
  O23      1.0000 0.25885  0.88157  0.96100  Biso   1.000  O
  O24      1.0000 0.31740  0.93651  0.87340  Biso   1.000  O
  O25      1.0000 0.22434  0.79742  0.36390  Biso   1.000  O
  O26      1.0000 0.23265  0.71345  0.40380  Biso   1.000  O
  O27      1.0000 0.16267  0.82361  0.07810  Biso   1.000  O
  O28      1.0000 0.11756  0.76462  0.23750  Biso   1.000  O
  O29      1.0000 0.09313  0.85274  0.23110  Biso   1.000  O
  O30      1.0000 0.07917  0.79902  0.01270  Biso   1.000  O
  C7       1.0000 0.31878  0.91792  0.13230  Biso   1.000  C
  C8       1.0000 0.29637  0.91129  0.97390  Biso   1.000  C
  C9       1.0000 0.23751  0.75302  0.32660  Biso   1.000  C
  In4      1.0000 0.72567  0.35740  0.68362  Biso   1.000  In
  S4       1.0000 0.61159  0.30884  0.64279  Biso   1.000  S
  O31      1.0000 0.79612  0.39526  0.73860  Biso   1.000  O
  O32      1.0000 0.85779  0.44453  0.64630  Biso   1.000  O
  O33      1.0000 0.75885  0.38157  0.46100  Biso   1.000  O
  O34      1.0000 0.81740  0.43651  0.37340  Biso   1.000  O
  O35      1.0000 0.72434  0.29742  0.86390  Biso   1.000  O
  O36      1.0000 0.73265  0.21345  0.90380  Biso   1.000  O
  O37      1.0000 0.66267  0.32361  0.57810  Biso   1.000  O
  O38      1.0000 0.61756  0.26462  0.73750  Biso   1.000  O
  O39      1.0000 0.59313  0.35274  0.73110  Biso   1.000  O
  O40      1.0000 0.57917  0.29902  0.51270  Biso   1.000  O
  C10      1.0000 0.81878  0.41792  0.63230  Biso   1.000  C
  C11      1.0000 0.79637  0.41129  0.47390  Biso   1.000  C
  C12      1.0000 0.73751  0.25302  0.82660  Biso   1.000  C
  In5      1.0000 0.60740  0.52433  0.93362  Biso   1.000  In
  S5       1.0000 0.55884  0.63841  0.89279  Biso   1.000  S
  O41      1.0000 0.64526  0.45388  0.98860  Biso   1.000  O
  O42      1.0000 0.69453  0.39221  0.89630  Biso   1.000  O
  O43      1.0000 0.63157  0.49115  0.71100  Biso   1.000  O
  O44      1.0000 0.68651  0.43260  0.62340  Biso   1.000  O
  O45      1.0000 0.54742  0.52566  0.11390  Biso   1.000  O
  O46      1.0000 0.46345  0.51735  0.15380  Biso   1.000  O
  O47      1.0000 0.57361  0.58733  0.82810  Biso   1.000  O
  O48      1.0000 0.51462  0.63244  0.98750  Biso   1.000  O
  O49      1.0000 0.60274  0.65687  0.98110  Biso   1.000  O
  O50      1.0000 0.54902  0.67083  0.76270  Biso   1.000  O
  C13      1.0000 0.66792  0.43122  0.88230  Biso   1.000  C
  C14      1.0000 0.66129  0.45363  0.72390  Biso   1.000  C
  C15      1.0000 0.50302  0.51249  0.07660  Biso   1.000  C
  In6      1.0000 0.10740  0.02433  0.43362  Biso   1.000  In
  S6       1.0000 0.05884  0.13841  0.39279  Biso   1.000  S
  O51      1.0000 0.14526  0.95388  0.48860  Biso   1.000  O
  O52      1.0000 0.19453  0.89221  0.39630  Biso   1.000  O
  O53      1.0000 0.13157  0.99115  0.21100  Biso   1.000  O
  O54      1.0000 0.18651  0.93260  0.12340  Biso   1.000  O
  O55      1.0000 0.04742  0.02566  0.61390  Biso   1.000  O
  O56      1.0000 0.96345  0.01735  0.65380  Biso   1.000  O
  O57      1.0000 0.07361  0.08733  0.32810  Biso   1.000  O
  O58      1.0000 0.01462  0.13244  0.48750  Biso   1.000  O
  O59      1.0000 0.10274  0.15687  0.48110  Biso   1.000  O
  O60      1.0000 0.04902  0.17083  0.26270  Biso   1.000  O
  C16      1.0000 0.16792  0.93122  0.38230  Biso   1.000  C
  C17      1.0000 0.16129  0.95363  0.22390  Biso   1.000  C
  C18      1.0000 0.00302  0.01249  0.57660  Biso   1.000  C
  In7      1.0000 0.89260  0.47567  0.43362  Biso   1.000  In
  S7       1.0000 0.94116  0.36159  0.39279  Biso   1.000  S
  O61      1.0000 0.85474  0.54612  0.48860  Biso   1.000  O
  O62      1.0000 0.80547  0.60779  0.39630  Biso   1.000  O
  O63      1.0000 0.86843  0.50885  0.21100  Biso   1.000  O
  O64      1.0000 0.81349  0.56740  0.12340  Biso   1.000  O
  O65      1.0000 0.95258  0.47434  0.61390  Biso   1.000  O
  O66      1.0000 0.03655  0.48265  0.65380  Biso   1.000  O
  O67      1.0000 0.92639  0.41267  0.32810  Biso   1.000  O
  O68      1.0000 0.98538  0.36756  0.48750  Biso   1.000  O
  O69      1.0000 0.89726  0.34313  0.48110  Biso   1.000  O
  O70      1.0000 0.95098  0.32917  0.26270  Biso   1.000  O
  C19      1.0000 0.83208  0.56878  0.38230  Biso   1.000  C
  C20      1.0000 0.83871  0.54637  0.22390  Biso   1.000  C
  C21      1.0000 0.99698  0.48751  0.57660  Biso   1.000  C
  In8      1.0000 0.39260  0.97567  0.93362  Biso   1.000  In
  S8       1.0000 0.44116  0.86159  0.89279  Biso   1.000  S
  O71      1.0000 0.35474  0.04612  0.98860  Biso   1.000  O
  O72      1.0000 0.30547  0.10779  0.89630  Biso   1.000  O
  O73      1.0000 0.36843  0.00885  0.71100  Biso   1.000  O
  O74      1.0000 0.31349  0.06740  0.62340  Biso   1.000  O
  O75      1.0000 0.45258  0.97434  0.11390  Biso   1.000  O
  O76      1.0000 0.53655  0.98265  0.15380  Biso   1.000  O
  O77      1.0000 0.42639  0.91267  0.82810  Biso   1.000  O
  O78      1.0000 0.48538  0.86756  0.98750  Biso   1.000  O
  O79      1.0000 0.39726  0.84313  0.98110  Biso   1.000  O
  O80      1.0000 0.45098  0.82917  0.76270  Biso   1.000  O
  C22      1.0000 0.33208  0.06878  0.88230  Biso   1.000  C
  C23      1.0000 0.33871  0.04637  0.72390  Biso   1.000  C
  C24      1.0000 0.49698  0.98751  0.07660  Biso   1.000  C
  In9      1.0000 0.72567  0.85740  0.31638  Biso   1.000  In
  S9       1.0000 0.61159  0.80884  0.35721  Biso   1.000  S
  O81      1.0000 0.79612  0.89526  0.26140  Biso   1.000  O
  O82      1.0000 0.85779  0.94453  0.35370  Biso   1.000  O
  O83      1.0000 0.75885  0.88157  0.53900  Biso   1.000  O
  O84      1.0000 0.81740  0.93651  0.62660  Biso   1.000  O
  O85      1.0000 0.72434  0.79742  0.13610  Biso   1.000  O
  O86      1.0000 0.73265  0.71345  0.09620  Biso   1.000  O
  O87      1.0000 0.66267  0.82361  0.42190  Biso   1.000  O
  O88      1.0000 0.61756  0.76462  0.26250  Biso   1.000  O
  O89      1.0000 0.59313  0.85274  0.26890  Biso   1.000  O
  O90      1.0000 0.57917  0.79902  0.48730  Biso   1.000  O
  C25      1.0000 0.81878  0.91792  0.36770  Biso   1.000  C
  C26      1.0000 0.79637  0.91129  0.52610  Biso   1.000  C
  C27      1.0000 0.73751  0.75302  0.17340  Biso   1.000  C
  In10     1.0000 0.22567  0.35740  0.81638  Biso   1.000  In
  S10      1.0000 0.11159  0.30884  0.85721  Biso   1.000  S
  O91      1.0000 0.29612  0.39526  0.76140  Biso   1.000  O
  O92      1.0000 0.35779  0.44453  0.85370  Biso   1.000  O
  O93      1.0000 0.25885  0.38157  0.03900  Biso   1.000  O
  O94      1.0000 0.31740  0.43651  0.12660  Biso   1.000  O
  O95      1.0000 0.22434  0.29742  0.63610  Biso   1.000  O
  O96      1.0000 0.23265  0.21345  0.59620  Biso   1.000  O
  O97      1.0000 0.16267  0.32361  0.92190  Biso   1.000  O
  O98      1.0000 0.11756  0.26462  0.76250  Biso   1.000  O
  O99      1.0000 0.09313  0.35274  0.76890  Biso   1.000  O
  O100     1.0000 0.07917  0.29902  0.98730  Biso   1.000  O
  C28      1.0000 0.31878  0.41792  0.86770  Biso   1.000  C
  C29      1.0000 0.29637  0.41129  0.02610  Biso   1.000  C
  C30      1.0000 0.23751  0.25302  0.67340  Biso   1.000  C
  In11     1.0000 0.77433  0.14260  0.81638  Biso   1.000  In
  S11      1.0000 0.88841  0.19116  0.85721  Biso   1.000  S
  O101     1.0000 0.70388  0.10474  0.76140  Biso   1.000  O
  O102     1.0000 0.64221  0.05547  0.85370  Biso   1.000  O
  O103     1.0000 0.74115  0.11843  0.03900  Biso   1.000  O
  O104     1.0000 0.68260  0.06349  0.12660  Biso   1.000  O
  O105     1.0000 0.77566  0.20258  0.63610  Biso   1.000  O
  O106     1.0000 0.76735  0.28655  0.59620  Biso   1.000  O
  O107     1.0000 0.83733  0.17639  0.92190  Biso   1.000  O
  O108     1.0000 0.88244  0.23538  0.76250  Biso   1.000  O
  O109     1.0000 0.90687  0.14726  0.76890  Biso   1.000  O
  O110     1.0000 0.92083  0.20098  0.98730  Biso   1.000  O
  C31      1.0000 0.68122  0.08208  0.86770  Biso   1.000  C
  C32      1.0000 0.70363  0.08871  0.02610  Biso   1.000  C
  C33      1.0000 0.76249  0.24698  0.67340  Biso   1.000  C
  In12     1.0000 0.27433  0.64260  0.31638  Biso   1.000  In
  S12      1.0000 0.38841  0.69116  0.35721  Biso   1.000  S
  O111     1.0000 0.20388  0.60474  0.26140  Biso   1.000  O
  O112     1.0000 0.14221  0.55547  0.35370  Biso   1.000  O
  O113     1.0000 0.24115  0.61843  0.53900  Biso   1.000  O
  O114     1.0000 0.18260  0.56349  0.62660  Biso   1.000  O
  O115     1.0000 0.27566  0.70258  0.13610  Biso   1.000  O
  O116     1.0000 0.26735  0.78655  0.09620  Biso   1.000  O
  O117     1.0000 0.33733  0.67639  0.42190  Biso   1.000  O
  O118     1.0000 0.38244  0.73538  0.26250  Biso   1.000  O
  O119     1.0000 0.40687  0.64726  0.26890  Biso   1.000  O
  O120     1.0000 0.42083  0.70098  0.48730  Biso   1.000  O
  C34      1.0000 0.18122  0.58208  0.36770  Biso   1.000  C
  C35      1.0000 0.20363  0.58871  0.52610  Biso   1.000  C
  C36      1.0000 0.26249  0.74698  0.17340  Biso   1.000  C
  In13     1.0000 0.39260  0.47567  0.06638  Biso   1.000  In
  S13      1.0000 0.44116  0.36159  0.10721  Biso   1.000  S
  O121     1.0000 0.35474  0.54612  0.01140  Biso   1.000  O
  O122     1.0000 0.30547  0.60779  0.10370  Biso   1.000  O
  O123     1.0000 0.36843  0.50885  0.28900  Biso   1.000  O
  O124     1.0000 0.31349  0.56740  0.37660  Biso   1.000  O
  O125     1.0000 0.45258  0.47434  0.88610  Biso   1.000  O
  O126     1.0000 0.53655  0.48265  0.84620  Biso   1.000  O
  O127     1.0000 0.42639  0.41267  0.17190  Biso   1.000  O
  O128     1.0000 0.48538  0.36756  0.01250  Biso   1.000  O
  O129     1.0000 0.39726  0.34313  0.01890  Biso   1.000  O
  O130     1.0000 0.45098  0.32917  0.23730  Biso   1.000  O
  C37      1.0000 0.33208  0.56878  0.11770  Biso   1.000  C
  C38      1.0000 0.33871  0.54637  0.27610  Biso   1.000  C
  C39      1.0000 0.49698  0.48751  0.92340  Biso   1.000  C
  In14     1.0000 0.89260  0.97567  0.56638  Biso   1.000  In
  S14      1.0000 0.94116  0.86159  0.60721  Biso   1.000  S
  O131     1.0000 0.85474  0.04612  0.51140  Biso   1.000  O
  O132     1.0000 0.80547  0.10779  0.60370  Biso   1.000  O
  O133     1.0000 0.86843  0.00885  0.78900  Biso   1.000  O
  O134     1.0000 0.81349  0.06740  0.87660  Biso   1.000  O
  O135     1.0000 0.95258  0.97434  0.38610  Biso   1.000  O
  O136     1.0000 0.03655  0.98265  0.34620  Biso   1.000  O
  O137     1.0000 0.92639  0.91267  0.67190  Biso   1.000  O
  O138     1.0000 0.98538  0.86756  0.51250  Biso   1.000  O
  O139     1.0000 0.89726  0.84313  0.51890  Biso   1.000  O
  O140     1.0000 0.95098  0.82917  0.73730  Biso   1.000  O
  C40      1.0000 0.83208  0.06878  0.61770  Biso   1.000  C
  C41      1.0000 0.83871  0.04637  0.77610  Biso   1.000  C
  C42      1.0000 0.99698  0.98751  0.42340  Biso   1.000  C
  In15     1.0000 0.10740  0.52433  0.56638  Biso   1.000  In
  S15      1.0000 0.05884  0.63841  0.60721  Biso   1.000  S
  O141     1.0000 0.14526  0.45388  0.51140  Biso   1.000  O
  O142     1.0000 0.19453  0.39221  0.60370  Biso   1.000  O
  O143     1.0000 0.13157  0.49115  0.78900  Biso   1.000  O
  O144     1.0000 0.18651  0.43260  0.87660  Biso   1.000  O
  O145     1.0000 0.04742  0.52566  0.38610  Biso   1.000  O
  O146     1.0000 0.96345  0.51735  0.34620  Biso   1.000  O
  O147     1.0000 0.07361  0.58733  0.67190  Biso   1.000  O
  O148     1.0000 0.01462  0.63244  0.51250  Biso   1.000  O
  O149     1.0000 0.10274  0.65687  0.51890  Biso   1.000  O
  O150     1.0000 0.04902  0.67083  0.73730  Biso   1.000  O
  C43      1.0000 0.16792  0.43122  0.61770  Biso   1.000  C
  C44      1.0000 0.16129  0.45363  0.77610  Biso   1.000  C
  C45      1.0000 0.00302  0.51249  0.42340  Biso   1.000  C
  In16     1.0000 0.60740  0.02433  0.06638  Biso   1.000  In
  S16      1.0000 0.55884  0.13841  0.10721  Biso   1.000  S
  O151     1.0000 0.64526  0.95388  0.01140  Biso   1.000  O
  O152     1.0000 0.69453  0.89221  0.10370  Biso   1.000  O
  O153     1.0000 0.63157  0.99115  0.28900  Biso   1.000  O
  O154     1.0000 0.68651  0.93260  0.37660  Biso   1.000  O
  O155     1.0000 0.54742  0.02566  0.88610  Biso   1.000  O
  O156     1.0000 0.46345  0.01735  0.84620  Biso   1.000  O
  O157     1.0000 0.57361  0.08733  0.17190  Biso   1.000  O
  O158     1.0000 0.51462  0.13244  0.01250  Biso   1.000  O
  O159     1.0000 0.60274  0.15687  0.01890  Biso   1.000  O
  O160     1.0000 0.54902  0.17083  0.23730  Biso   1.000  O
  C46      1.0000 0.66792  0.93122  0.11770  Biso   1.000  C
  C47      1.0000 0.66129  0.95363  0.27610  Biso   1.000  C
  C48      1.0000 0.50302  0.01249  0.92340  Biso   1.000  C
