data_image0
_cell_length_a       10.4195
_cell_length_b       11.1743
_cell_length_c       12.569
_cell_angle_alpha    102.198
_cell_angle_beta     108.537
_cell_angle_gamma    98.944

_symmetry_space_group_name_H-M    P 1
_symmetry_int_tables_number       1

loop_
  _symmetry_equiv_pos_as_xyz
  'x, y, z'

loop_
  _atom_site_label
  _atom_site_occupancy
  _atom_site_fract_x
  _atom_site_fract_y
  _atom_site_fract_z
  _atom_site_thermal_displace_type
  _atom_site_B_iso_or_equiv
  _atom_site_type_symbol
  Nd1      1.0000 0.39829  0.95560  0.31927  Biso   1.000  Nd
  Nd2      1.0000 0.60171  0.04440  0.68073  Biso   1.000  Nd
  H1       1.0000 0.56870  0.37360  0.70690  Biso   1.000  H
  H2       1.0000 0.23910  0.10220  0.74740  Biso   1.000  H
  H3       1.0000 0.35160  0.08300  0.97190  Biso   1.000  H
  H4       1.0000 0.33650  0.22130  0.01120  Biso   1.000  H
  H5       1.0000 0.42790  0.19110  0.93580  Biso   1.000  H
  H6       1.0000 0.70620  0.31030  0.19250  Biso   1.000  H
  H7       1.0000 0.66240  0.29270  0.05770  Biso   1.000  H
  H8       1.0000 0.59710  0.37920  0.13030  Biso   1.000  H
  H9       1.0000 0.49430  0.35770  0.33510  Biso   1.000  H
  H10      1.0000 0.10140  0.93860  0.36510  Biso   1.000  H
  H11      1.0000 0.86700  0.18160  0.11580  Biso   1.000  H
  H12      1.0000 0.90920  0.12930  0.00910  Biso   1.000  H
  H13      1.0000 0.87690  0.04080  0.08370  Biso   1.000  H
  H14      1.0000 0.15070  0.31170  0.12530  Biso   1.000  H
  H15      1.0000 0.06830  0.34530  0.20790  Biso   1.000  H
  H16      1.0000 0.21550  0.31780  0.25780  Biso   1.000  H
  H17      1.0000 0.59400  0.16500  0.24700  Biso   1.000  H
  H18      1.0000 0.07400  0.98400  0.17900  Biso   1.000  H
  H19      1.0000 0.43130  0.62640  0.29310  Biso   1.000  H
  H20      1.0000 0.76090  0.89780  0.25260  Biso   1.000  H
  H21      1.0000 0.64840  0.91700  0.02810  Biso   1.000  H
  H22      1.0000 0.66350  0.77870  0.98880  Biso   1.000  H
  H23      1.0000 0.57210  0.80890  0.06420  Biso   1.000  H
  H24      1.0000 0.29380  0.68970  0.80750  Biso   1.000  H
  H25      1.0000 0.33760  0.70730  0.94230  Biso   1.000  H
  H26      1.0000 0.40290  0.62080  0.86970  Biso   1.000  H
  H27      1.0000 0.50570  0.64230  0.66490  Biso   1.000  H
  H28      1.0000 0.89860  0.06140  0.63490  Biso   1.000  H
  H29      1.0000 0.13300  0.81840  0.88420  Biso   1.000  H
  H30      1.0000 0.09080  0.87070  0.99090  Biso   1.000  H
  H31      1.0000 0.12310  0.95920  0.91630  Biso   1.000  H
  H32      1.0000 0.84930  0.68830  0.87470  Biso   1.000  H
  H33      1.0000 0.93170  0.65470  0.79210  Biso   1.000  H
  H34      1.0000 0.78450  0.68220  0.74220  Biso   1.000  H
  H35      1.0000 0.40600  0.83500  0.75300  Biso   1.000  H
  H36      1.0000 0.92600  0.01600  0.82100  Biso   1.000  H
  C1       1.0000 0.52810  0.12150  0.17040  Biso   1.000  C
  C2       1.0000 0.39870  0.17060  0.99630  Biso   1.000  C
  C3       1.0000 0.63050  0.30370  0.12200  Biso   1.000  C
  C4       1.0000 0.54560  0.25140  0.50610  Biso   1.000  C
  C5       1.0000 0.52490  0.38170  0.50570  Biso   1.000  C
  C6       1.0000 0.49630  0.41480  0.40160  Biso   1.000  C
  C7       1.0000 0.52920  0.46850  0.60490  Biso   1.000  C
  C8       1.0000 0.13880  0.51730  0.01100  Biso   1.000  C
  C9       1.0000 0.95650  0.59310  0.06360  Biso   1.000  C
  C10      1.0000 0.09580  0.61100  0.07440  Biso   1.000  C
  C11      1.0000 0.20010  0.73080  0.15340  Biso   1.000  C
  C12      1.0000 0.29740  0.03380  0.57290  Biso   1.000  C
  C13      1.0000 0.14430  0.01570  0.53620  Biso   1.000  C
  C14      1.0000 0.08240  0.05210  0.61840  Biso   1.000  C
  C15      1.0000 0.06050  0.96360  0.41920  Biso   1.000  C
  C16      1.0000 0.11360  0.07290  0.20350  Biso   1.000  C
  C17      1.0000 0.91650  0.12540  0.08640  Biso   1.000  C
  C18      1.0000 0.13050  0.29570  0.19110  Biso   1.000  C
  C19      1.0000 0.47190  0.87850  0.82960  Biso   1.000  C
  C20      1.0000 0.60130  0.82940  0.00370  Biso   1.000  C
  C21      1.0000 0.36950  0.69630  0.87800  Biso   1.000  C
  C22      1.0000 0.45440  0.74860  0.49390  Biso   1.000  C
  C23      1.0000 0.47510  0.61830  0.49430  Biso   1.000  C
  C24      1.0000 0.50370  0.58520  0.59840  Biso   1.000  C
  C25      1.0000 0.47080  0.53150  0.39510  Biso   1.000  C
  C26      1.0000 0.86120  0.48270  0.98900  Biso   1.000  C
  C27      1.0000 0.04350  0.40690  0.93640  Biso   1.000  C
  C28      1.0000 0.90420  0.38900  0.92560  Biso   1.000  C
  C29      1.0000 0.79990  0.26920  0.84660  Biso   1.000  C
  C30      1.0000 0.70260  0.96620  0.42710  Biso   1.000  C
  C31      1.0000 0.85570  0.98430  0.46380  Biso   1.000  C
  C32      1.0000 0.91760  0.94790  0.38160  Biso   1.000  C
  C33      1.0000 0.93950  0.03640  0.58080  Biso   1.000  C
  C34      1.0000 0.88640  0.92710  0.79650  Biso   1.000  C
  C35      1.0000 0.08350  0.87460  0.91360  Biso   1.000  C
  C36      1.0000 0.86950  0.70430  0.80890  Biso   1.000  C
  N1       1.0000 0.51750  0.19520  0.10010  Biso   1.000  N
  N2       1.0000 0.06550  0.16330  0.16430  Biso   1.000  N
  N3       1.0000 0.48250  0.80480  0.89990  Biso   1.000  N
  N4       1.0000 0.93450  0.83670  0.83570  Biso   1.000  N
  O1       1.0000 0.22690  0.07980  0.26230  Biso   1.000  O
  O2       1.0000 0.43380  0.02960  0.15750  Biso   1.000  O
  O3       1.0000 0.52230  0.17400  0.40970  Biso   1.000  O
  O4       1.0000 0.58450  0.22880  0.60430  Biso   1.000  O
  O5       1.0000 0.55650  0.44500  0.71200  Biso   1.000  O
  O6       1.0000 0.32120  0.75270  0.15370  Biso   1.000  O
  O7       1.0000 0.35280  0.00910  0.49730  Biso   1.000  O
  O8       1.0000 0.37100  0.07190  0.68100  Biso   1.000  O
  O9       1.0000 0.15700  0.10280  0.73440  Biso   1.000  O
  O10      1.0000 0.16070  0.80920  0.21730  Biso   1.000  O
  O11      1.0000 0.89910  0.67590  0.11780  Biso   1.000  O
  O12      1.0000 0.77310  0.92020  0.73770  Biso   1.000  O
  O13      1.0000 0.56620  0.97040  0.84250  Biso   1.000  O
  O14      1.0000 0.47770  0.82600  0.59030  Biso   1.000  O
  O15      1.0000 0.41550  0.77120  0.39570  Biso   1.000  O
  O16      1.0000 0.44350  0.55500  0.28800  Biso   1.000  O
  O17      1.0000 0.67880  0.24730  0.84630  Biso   1.000  O
  O18      1.0000 0.64720  0.99090  0.50270  Biso   1.000  O
  O19      1.0000 0.62900  0.92810  0.31900  Biso   1.000  O
  O20      1.0000 0.84300  0.89720  0.26560  Biso   1.000  O
  O21      1.0000 0.83930  0.19080  0.78270  Biso   1.000  O
  O22      1.0000 0.10090  0.32410  0.88220  Biso   1.000  O
