data_image0
_cell_length_a       10.434
_cell_length_b       11.163
_cell_length_c       12.422
_cell_angle_alpha    102.676
_cell_angle_beta     106.313
_cell_angle_gamma    99.415

_symmetry_space_group_name_H-M    P 1
_symmetry_int_tables_number       1

loop_
  _symmetry_equiv_pos_as_xyz
  'x, y, z'

loop_
  _atom_site_label
  _atom_site_occupancy
  _atom_site_fract_x
  _atom_site_fract_y
  _atom_site_fract_z
  _atom_site_thermal_displace_type
  _atom_site_B_iso_or_equiv
  _atom_site_type_symbol
  La1      1.0000 0.40366  0.45694  0.81635  Biso   1.000  La
  La2      1.0000 0.59634  0.54306  0.18365  Biso   1.000  La
  H1       1.0000 0.87940  0.54510  0.57790  Biso   1.000  H
  H2       1.0000 0.86980  0.68120  0.63690  Biso   1.000  H
  H3       1.0000 0.90930  0.65560  0.52260  Biso   1.000  H
  H4       1.0000 0.11000  0.44580  0.86730  Biso   1.000  H
  H5       1.0000 0.34150  0.60730  0.49230  Biso   1.000  H
  H6       1.0000 0.35700  0.75350  0.51450  Biso   1.000  H
  H7       1.0000 0.42890  0.68280  0.43390  Biso   1.000  H
  H8       1.0000 0.70660  0.82500  0.69250  Biso   1.000  H
  H9       1.0000 0.65830  0.82140  0.56010  Biso   1.000  H
  H10      1.0000 0.59400  0.89550  0.64550  Biso   1.000  H
  H11      1.0000 0.16030  0.80990  0.62820  Biso   1.000  H
  H12      1.0000 0.09080  0.84960  0.72270  Biso   1.000  H
  H13      1.0000 0.22780  0.80480  0.75640  Biso   1.000  H
  H14      1.0000 0.48890  0.85320  0.83180  Biso   1.000  H
  H15      1.0000 0.12060  0.45490  0.42210  Biso   1.000  H
  H16      1.0000 0.13020  0.31880  0.36310  Biso   1.000  H
  H17      1.0000 0.09070  0.34440  0.47740  Biso   1.000  H
  H18      1.0000 0.89000  0.55420  0.13270  Biso   1.000  H
  H19      1.0000 0.65850  0.39270  0.50770  Biso   1.000  H
  H20      1.0000 0.64300  0.24650  0.48550  Biso   1.000  H
  H21      1.0000 0.57110  0.31720  0.56610  Biso   1.000  H
  H22      1.0000 0.29340  0.17500  0.30750  Biso   1.000  H
  H23      1.0000 0.34170  0.17860  0.43990  Biso   1.000  H
  H24      1.0000 0.40600  0.10450  0.35450  Biso   1.000  H
  H25      1.0000 0.83970  0.19010  0.37180  Biso   1.000  H
  H26      1.0000 0.90920  0.15040  0.27730  Biso   1.000  H
  H27      1.0000 0.77220  0.19520  0.24360  Biso   1.000  H
  H28      1.0000 0.51110  0.14680  0.16820  Biso   1.000  H
  C1       1.0000 0.91800  0.63400  0.59450  Biso   1.000  C
  C2       1.0000 0.14070  0.01150  0.51490  Biso   1.000  C
  C3       1.0000 0.07430  0.54940  0.11870  Biso   1.000  C
  C4       1.0000 0.95700  0.09950  0.55720  Biso   1.000  C
  C5       1.0000 0.06520  0.46820  0.92090  Biso   1.000  C
  C6       1.0000 0.09530  0.11140  0.57230  Biso   1.000  C
  C7       1.0000 0.54030  0.63020  0.66790  Biso   1.000  C
  C8       1.0000 0.40270  0.68620  0.50250  Biso   1.000  C
  C9       1.0000 0.62950  0.82230  0.62710  Biso   1.000  C
  C10      1.0000 0.11890  0.57670  0.70250  Biso   1.000  C
  C11      1.0000 0.14230  0.79290  0.69570  Biso   1.000  C
  C12      1.0000 0.52870  0.88310  0.00650  Biso   1.000  C
  C13      1.0000 0.29470  0.53860  0.07800  Biso   1.000  C
  C14      1.0000 0.14320  0.51880  0.03950  Biso   1.000  C
  C15      1.0000 0.19800  0.23010  0.64560  Biso   1.000  C
  C16      1.0000 0.55590  0.75640  0.00820  Biso   1.000  C
  C17      1.0000 0.49350  0.91250  0.89930  Biso   1.000  C
  C18      1.0000 0.53420  0.97250  0.10770  Biso   1.000  C
  C19      1.0000 0.08200  0.36600  0.40550  Biso   1.000  C
  C20      1.0000 0.85930  0.98850  0.48510  Biso   1.000  C
  C21      1.0000 0.92570  0.45060  0.88130  Biso   1.000  C
  C22      1.0000 0.04300  0.90050  0.44280  Biso   1.000  C
  C23      1.0000 0.93480  0.53180  0.07910  Biso   1.000  C
  C24      1.0000 0.90470  0.88860  0.42770  Biso   1.000  C
  C25      1.0000 0.45970  0.36980  0.33210  Biso   1.000  C
  C26      1.0000 0.59730  0.31380  0.49750  Biso   1.000  C
  C27      1.0000 0.37050  0.17770  0.37290  Biso   1.000  C
  C28      1.0000 0.88110  0.42330  0.29750  Biso   1.000  C
  C29      1.0000 0.85770  0.20710  0.30430  Biso   1.000  C
  C30      1.0000 0.47130  0.11690  0.99350  Biso   1.000  C
  C31      1.0000 0.70530  0.46140  0.92200  Biso   1.000  C
  C32      1.0000 0.85680  0.48120  0.96050  Biso   1.000  C
  C33      1.0000 0.80200  0.76990  0.35440  Biso   1.000  C
  C34      1.0000 0.44410  0.24360  0.99180  Biso   1.000  C
  C35      1.0000 0.50650  0.08750  0.10070  Biso   1.000  C
  C36      1.0000 0.46580  0.02750  0.89230  Biso   1.000  C
  N1       1.0000 0.52270  0.70870  0.60170  Biso   1.000  N
  N2       1.0000 0.06430  0.66460  0.66530  Biso   1.000  N
  N3       1.0000 0.47730  0.29130  0.39830  Biso   1.000  N
  N4       1.0000 0.93570  0.33540  0.33470  Biso   1.000  N
  O1       1.0000 0.14260  0.59780  0.23650  Biso   1.000  O
  O2       1.0000 0.53880  0.67710  0.91240  Biso   1.000  O
  O3       1.0000 0.24050  0.59450  0.76480  Biso   1.000  O
  O4       1.0000 0.44950  0.53110  0.65160  Biso   1.000  O
  O5       1.0000 0.59640  0.73350  0.10760  Biso   1.000  O
  O6       1.0000 0.32190  0.24600  0.64820  Biso   1.000  O
  O7       1.0000 0.16040  0.31580  0.70800  Biso   1.000  O
  O8       1.0000 0.56870  0.95270  0.21620  Biso   1.000  O
  O9       1.0000 0.35570  0.51870  0.00230  Biso   1.000  O
  O10      1.0000 0.36200  0.57630  0.18570  Biso   1.000  O
  O11      1.0000 0.89910  0.19060  0.60350  Biso   1.000  O
  O12      1.0000 0.85740  0.40220  0.76350  Biso   1.000  O
  O13      1.0000 0.46120  0.32290  0.08760  Biso   1.000  O
  O14      1.0000 0.75950  0.40550  0.23520  Biso   1.000  O
  O15      1.0000 0.55050  0.46890  0.34840  Biso   1.000  O
  O16      1.0000 0.40360  0.26650  0.89240  Biso   1.000  O
  O17      1.0000 0.67810  0.75400  0.35180  Biso   1.000  O
  O18      1.0000 0.83960  0.68420  0.29200  Biso   1.000  O
  O19      1.0000 0.43130  0.04730  0.78380  Biso   1.000  O
  O20      1.0000 0.64430  0.48130  0.99770  Biso   1.000  O
  O21      1.0000 0.63800  0.42370  0.81430  Biso   1.000  O
  O22      1.0000 0.10090  0.80940  0.39650  Biso   1.000  O
