data_image0
_cell_length_a       10.4647
_cell_length_b       15.5722
_cell_length_c       13.8784
_cell_angle_alpha    90
_cell_angle_beta     96.829
_cell_angle_gamma    90

_symmetry_space_group_name_H-M    "P 1"
_symmetry_int_tables_number       1

loop_
  _symmetry_equiv_pos_as_xyz
  'x, y, z'

loop_
  _atom_site_label
  _atom_site_occupancy
  _atom_site_fract_x
  _atom_site_fract_y
  _atom_site_fract_z
  _atom_site_thermal_displace_type
  _atom_site_B_iso_or_equiv
  _atom_site_type_symbol
  Zn1      1.0000 0.53322  0.41442  0.39012  Biso   1.000  Zn
  P1       1.0000 0.42947  0.60693  0.38229  Biso   1.000  P
  P2       1.0000 0.70809  0.33438  0.22905  Biso   1.000  P
  O1       1.0000 0.67248  0.38906  0.31244  Biso   1.000  O
  O2       1.0000 0.85133  0.34008  0.22143  Biso   1.000  O
  O3       1.0000 0.62769  0.35564  0.13426  Biso   1.000  O
  O4       1.0000 0.52828  0.53811  0.37297  Biso   1.000  O
  O5       1.0000 0.37780  0.60644  0.48026  Biso   1.000  O
  O6       1.0000 0.47924  0.69553  0.36169  Biso   1.000  O
  H1       1.0000 0.32390  0.59590  0.31400  Biso   1.000  H
  H2       1.0000 0.68440  0.25580  0.24810  Biso   1.000  H
  Zn2      1.0000 0.03322  0.91442  0.39012  Biso   1.000  Zn
  P3       1.0000 0.92947  0.10693  0.38229  Biso   1.000  P
  P4       1.0000 0.20809  0.83438  0.22905  Biso   1.000  P
  O7       1.0000 0.17248  0.88906  0.31244  Biso   1.000  O
  O8       1.0000 0.35133  0.84008  0.22143  Biso   1.000  O
  O9       1.0000 0.12769  0.85564  0.13426  Biso   1.000  O
  O10      1.0000 0.02828  0.03811  0.37297  Biso   1.000  O
  O11      1.0000 0.87780  0.10644  0.48026  Biso   1.000  O
  O12      1.0000 0.97924  0.19553  0.36169  Biso   1.000  O
  H3       1.0000 0.82390  0.09590  0.31400  Biso   1.000  H
  H4       1.0000 0.18440  0.75580  0.24810  Biso   1.000  H
  Zn3      1.0000 0.46678  0.41442  0.10988  Biso   1.000  Zn
  P5       1.0000 0.57053  0.60693  0.11771  Biso   1.000  P
  P6       1.0000 0.29191  0.33438  0.27095  Biso   1.000  P
  O13      1.0000 0.32752  0.38906  0.18756  Biso   1.000  O
  O14      1.0000 0.14867  0.34008  0.27857  Biso   1.000  O
  O15      1.0000 0.37231  0.35564  0.36574  Biso   1.000  O
  O16      1.0000 0.47172  0.53811  0.12703  Biso   1.000  O
  O17      1.0000 0.62220  0.60644  0.01974  Biso   1.000  O
  O18      1.0000 0.52076  0.69553  0.13831  Biso   1.000  O
  H5       1.0000 0.67610  0.59590  0.18600  Biso   1.000  H
  H6       1.0000 0.31560  0.25580  0.25190  Biso   1.000  H
  Zn4      1.0000 0.96678  0.91442  0.10988  Biso   1.000  Zn
  P7       1.0000 0.07053  0.10693  0.11771  Biso   1.000  P
  P8       1.0000 0.79191  0.83438  0.27095  Biso   1.000  P
  O19      1.0000 0.82752  0.88906  0.18756  Biso   1.000  O
  O20      1.0000 0.64867  0.84008  0.27857  Biso   1.000  O
  O21      1.0000 0.87231  0.85564  0.36574  Biso   1.000  O
  O22      1.0000 0.97172  0.03811  0.12703  Biso   1.000  O
  O23      1.0000 0.12220  0.10644  0.01974  Biso   1.000  O
  O24      1.0000 0.02076  0.19553  0.13831  Biso   1.000  O
  H7       1.0000 0.17610  0.09590  0.18600  Biso   1.000  H
  H8       1.0000 0.81560  0.75580  0.25190  Biso   1.000  H
  Zn5      1.0000 0.46678  0.58558  0.60988  Biso   1.000  Zn
  P9       1.0000 0.57053  0.39307  0.61771  Biso   1.000  P
  P10      1.0000 0.29191  0.66562  0.77095  Biso   1.000  P
  O25      1.0000 0.32752  0.61094  0.68756  Biso   1.000  O
  O26      1.0000 0.14867  0.65992  0.77857  Biso   1.000  O
  O27      1.0000 0.37231  0.64436  0.86574  Biso   1.000  O
  O28      1.0000 0.47172  0.46189  0.62703  Biso   1.000  O
  O29      1.0000 0.62220  0.39356  0.51974  Biso   1.000  O
  O30      1.0000 0.52076  0.30447  0.63831  Biso   1.000  O
  H9       1.0000 0.67610  0.40410  0.68600  Biso   1.000  H
  H10      1.0000 0.31560  0.74420  0.75190  Biso   1.000  H
  Zn6      1.0000 0.96678  0.08558  0.60988  Biso   1.000  Zn
  P11      1.0000 0.07053  0.89307  0.61771  Biso   1.000  P
  P12      1.0000 0.79191  0.16562  0.77095  Biso   1.000  P
  O31      1.0000 0.82752  0.11094  0.68756  Biso   1.000  O
  O32      1.0000 0.64867  0.15992  0.77857  Biso   1.000  O
  O33      1.0000 0.87231  0.14436  0.86574  Biso   1.000  O
  O34      1.0000 0.97172  0.96189  0.62703  Biso   1.000  O
  O35      1.0000 0.12220  0.89356  0.51974  Biso   1.000  O
  O36      1.0000 0.02076  0.80447  0.63831  Biso   1.000  O
  H11      1.0000 0.17610  0.90410  0.68600  Biso   1.000  H
  H12      1.0000 0.81560  0.24420  0.75190  Biso   1.000  H
  Zn7      1.0000 0.53322  0.58558  0.89012  Biso   1.000  Zn
  P13      1.0000 0.42947  0.39307  0.88229  Biso   1.000  P
  P14      1.0000 0.70809  0.66562  0.72905  Biso   1.000  P
  O37      1.0000 0.67248  0.61094  0.81244  Biso   1.000  O
  O38      1.0000 0.85133  0.65992  0.72143  Biso   1.000  O
  O39      1.0000 0.62769  0.64436  0.63426  Biso   1.000  O
  O40      1.0000 0.52828  0.46189  0.87297  Biso   1.000  O
  O41      1.0000 0.37780  0.39356  0.98026  Biso   1.000  O
  O42      1.0000 0.47924  0.30447  0.86169  Biso   1.000  O
  H13      1.0000 0.32390  0.40410  0.81400  Biso   1.000  H
  H14      1.0000 0.68440  0.74420  0.74810  Biso   1.000  H
  Zn8      1.0000 0.03322  0.08558  0.89012  Biso   1.000  Zn
  P15      1.0000 0.92947  0.89307  0.88229  Biso   1.000  P
  P16      1.0000 0.20809  0.16562  0.72905  Biso   1.000  P
  O43      1.0000 0.17248  0.11094  0.81244  Biso   1.000  O
  O44      1.0000 0.35133  0.15992  0.72143  Biso   1.000  O
  O45      1.0000 0.12769  0.14436  0.63426  Biso   1.000  O
  O46      1.0000 0.02828  0.96189  0.87297  Biso   1.000  O
  O47      1.0000 0.87780  0.89356  0.98026  Biso   1.000  O
  O48      1.0000 0.97924  0.80447  0.86169  Biso   1.000  O
  H15      1.0000 0.82390  0.90410  0.81400  Biso   1.000  H
  H16      1.0000 0.18440  0.24420  0.74810  Biso   1.000  H
  Zn9      1.0000 0.00000  0.26617  0.25000  Biso   1.000  Zn
  Zn10     1.0000 0.50000  0.76617  0.25000  Biso   1.000  Zn
  Zn11     1.0000 0.00000  0.73383  0.75000  Biso   1.000  Zn
  Zn12     1.0000 0.50000  0.23383  0.75000  Biso   1.000  Zn
