data_image0
_cell_length_a       44.26
_cell_length_b       15.016
_cell_length_c       14.974
_cell_angle_alpha    90
_cell_angle_beta     94.012
_cell_angle_gamma    90

_symmetry_space_group_name_H-M    "P 1"
_symmetry_int_tables_number       1

loop_
  _symmetry_equiv_pos_as_xyz
  'x, y, z'

loop_
  _atom_site_label
  _atom_site_occupancy
  _atom_site_fract_x
  _atom_site_fract_y
  _atom_site_fract_z
  _atom_site_thermal_displace_type
  _atom_site_B_iso_or_equiv
  _atom_site_type_symbol
  Zn1      1.0000 0.21687  0.25056  0.99564  Biso   1.000  Zn
  O1       1.0000 0.22433  0.33005  0.10173  Biso   1.000  O
  O2       1.0000 0.23090  0.64876  0.41842  Biso   1.000  O
  O3       1.0000 0.27410  0.33068  0.10691  Biso   1.000  O
  O4       1.0000 0.28066  0.64441  0.42330  Biso   1.000  O
  N1       1.0000 0.17294  0.25910  0.96000  Biso   1.000  N
  C1       1.0000 0.27969  0.46940  0.34790  Biso   1.000  C
  C2       1.0000 0.25355  0.57170  0.24310  Biso   1.000  C
  C3       1.0000 0.25347  0.53540  0.33800  Biso   1.000  C
  C4       1.0000 0.25070  0.41280  0.21590  Biso   1.000  C
  C5       1.0000 0.25246  0.50690  0.17920  Biso   1.000  C
  C6       1.0000 0.22367  0.41160  0.27330  Biso   1.000  C
  C7       1.0000 0.22532  0.47700  0.33970  Biso   1.000  C
  C8       1.0000 0.20347  0.48140  0.40000  Biso   1.000  C
  H1       1.0000 0.20460  0.52530  0.44570  Biso   1.000  H
  C9       1.0000 0.27796  0.40300  0.28320  Biso   1.000  C
  C10      1.0000 0.25390  0.61840  0.06640  Biso   1.000  C
  H2       1.0000 0.25420  0.63440  0.00510  Biso   1.000  H
  C11      1.0000 0.25483  0.65980  0.21940  Biso   1.000  C
  H3       1.0000 0.25570  0.70460  0.26430  Biso   1.000  H
  C12      1.0000 0.30232  0.46740  0.41530  Biso   1.000  C
  H4       1.0000 0.30380  0.51330  0.45910  Biso   1.000  H
  C13      1.0000 0.25480  0.68330  0.13080  Biso   1.000  C
  H5       1.0000 0.25540  0.74440  0.11420  Biso   1.000  H
  C14      1.0000 0.29852  0.33480  0.28790  Biso   1.000  C
  H6       1.0000 0.29730  0.28890  0.24400  Biso   1.000  H
  C15      1.0000 0.32088  0.33270  0.35560  Biso   1.000  C
  H7       1.0000 0.33510  0.28520  0.35880  Biso   1.000  H
  C16      1.0000 0.24957  0.35080  0.13580  Biso   1.000  C
  C17      1.0000 0.25516  0.61520  0.40000  Biso   1.000  C
  C18      1.0000 0.32294  0.39850  0.41900  Biso   1.000  C
  H8       1.0000 0.33860  0.39670  0.46570  Biso   1.000  H
  C19      1.0000 0.20007  0.35210  0.26820  Biso   1.000  C
  H9       1.0000 0.19900  0.30710  0.22360  Biso   1.000  H
  C20      1.0000 0.16424  0.29760  0.88170  Biso   1.000  C
  H10      1.0000 0.17900  0.32870  0.85050  Biso   1.000  H
  C21      1.0000 0.25261  0.53020  0.09040  Biso   1.000  C
  H11      1.0000 0.25180  0.48540  0.04560  Biso   1.000  H
  C22      1.0000 0.17790  0.35800  0.32810  Biso   1.000  C
  H12      1.0000 0.16130  0.31790  0.32370  Biso   1.000  H
  C23      1.0000 0.13534  0.29430  0.84480  Biso   1.000  C
  H13      1.0000 0.13010  0.32160  0.78860  Biso   1.000  H
  C24      1.0000 0.17971  0.42140  0.39380  Biso   1.000  C
  H14      1.0000 0.16450  0.42430  0.43550  Biso   1.000  H
  C25      1.0000 0.12253  0.21170  0.97130  Biso   1.000  C
  H15      1.0000 0.10810  0.18140  0.00420  Biso   1.000  H
  C26      1.0000 0.15209  0.21700  0.00370  Biso   1.000  C
  H16      1.0000 0.15800  0.18970  0.05940  Biso   1.000  H
  C27      1.0000 0.08344  0.24600  0.85220  Biso   1.000  C
  C28      1.0000 0.05888  0.24590  0.81950  Biso   1.000  C
  C29      1.0000 0.02780  0.24610  0.78170  Biso   1.000  C
  C30      1.0000 0.02319  0.29330  0.69240  Biso   1.000  C
  C31      1.0000 0.00674  0.29370  0.84210  Biso   1.000  C
  C32      1.0000 0.11386  0.25090  0.89010  Biso   1.000  C
  C33      1.0000 0.02958  0.07600  0.78460  Biso   1.000  C
  H17      1.0000 0.05000  0.07640  0.80860  Biso   1.000  H
  C34      1.0000 0.04485  0.33260  0.64510  Biso   1.000  C
  H18      1.0000 0.06550  0.33100  0.66700  Biso   1.000  H
  C35      1.0000 0.03653  0.37470  0.56540  Biso   1.000  C
  H19      1.0000 0.05160  0.40300  0.53330  Biso   1.000  H
  C36      1.0000 0.00704  0.37670  0.53140  Biso   1.000  C
  H20      1.0000 0.00160  0.40600  0.47640  Biso   1.000  H
  C37      1.0000 0.01496  0.99670  0.76740  Biso   1.000  C
  H21      1.0000 0.02520  0.94200  0.77930  Biso   1.000  H
  C38      1.0000 0.01474  0.33480  0.92110  Biso   1.000  C
  H22      1.0000 0.03530  0.33500  0.94390  Biso   1.000  H
  C39      1.0000 0.01492  0.15290  0.76740  Biso   1.000  C
  Zn2      1.0000 0.71687  0.75056  0.99564  Biso   1.000  Zn
  O5       1.0000 0.72433  0.83005  0.10173  Biso   1.000  O
  O6       1.0000 0.73090  0.14876  0.41842  Biso   1.000  O
  O7       1.0000 0.77410  0.83068  0.10691  Biso   1.000  O
  O8       1.0000 0.78066  0.14441  0.42330  Biso   1.000  O
  N2       1.0000 0.67294  0.75910  0.96000  Biso   1.000  N
  C40      1.0000 0.77969  0.96940  0.34790  Biso   1.000  C
  C41      1.0000 0.75355  0.07170  0.24310  Biso   1.000  C
  C42      1.0000 0.75347  0.03540  0.33800  Biso   1.000  C
  C43      1.0000 0.75070  0.91280  0.21590  Biso   1.000  C
  C44      1.0000 0.75246  0.00690  0.17920  Biso   1.000  C
  C45      1.0000 0.72367  0.91160  0.27330  Biso   1.000  C
  C46      1.0000 0.72532  0.97700  0.33970  Biso   1.000  C
  C47      1.0000 0.70347  0.98140  0.40000  Biso   1.000  C
  H23      1.0000 0.70460  0.02530  0.44570  Biso   1.000  H
  C48      1.0000 0.77796  0.90300  0.28320  Biso   1.000  C
  C49      1.0000 0.75390  0.11840  0.06640  Biso   1.000  C
  H24      1.0000 0.75420  0.13440  0.00510  Biso   1.000  H
  C50      1.0000 0.75483  0.15980  0.21940  Biso   1.000  C
  H25      1.0000 0.75570  0.20460  0.26430  Biso   1.000  H
  C51      1.0000 0.80232  0.96740  0.41530  Biso   1.000  C
  H26      1.0000 0.80380  0.01330  0.45910  Biso   1.000  H
  C52      1.0000 0.75480  0.18330  0.13080  Biso   1.000  C
  H27      1.0000 0.75540  0.24440  0.11420  Biso   1.000  H
  C53      1.0000 0.79852  0.83480  0.28790  Biso   1.000  C
  H28      1.0000 0.79730  0.78890  0.24400  Biso   1.000  H
  C54      1.0000 0.82088  0.83270  0.35560  Biso   1.000  C
  H29      1.0000 0.83510  0.78520  0.35880  Biso   1.000  H
  C55      1.0000 0.74957  0.85080  0.13580  Biso   1.000  C
  C56      1.0000 0.75516  0.11520  0.40000  Biso   1.000  C
  C57      1.0000 0.82294  0.89850  0.41900  Biso   1.000  C
  H30      1.0000 0.83860  0.89670  0.46570  Biso   1.000  H
  C58      1.0000 0.70007  0.85210  0.26820  Biso   1.000  C
  H31      1.0000 0.69900  0.80710  0.22360  Biso   1.000  H
  C59      1.0000 0.66424  0.79760  0.88170  Biso   1.000  C
  H32      1.0000 0.67900  0.82870  0.85050  Biso   1.000  H
  C60      1.0000 0.75261  0.03020  0.09040  Biso   1.000  C
  H33      1.0000 0.75180  0.98540  0.04560  Biso   1.000  H
  C61      1.0000 0.67790  0.85800  0.32810  Biso   1.000  C
  H34      1.0000 0.66130  0.81790  0.32370  Biso   1.000  H
  C62      1.0000 0.63534  0.79430  0.84480  Biso   1.000  C
  H35      1.0000 0.63010  0.82160  0.78860  Biso   1.000  H
  C63      1.0000 0.67971  0.92140  0.39380  Biso   1.000  C
  H36      1.0000 0.66450  0.92430  0.43550  Biso   1.000  H
  C64      1.0000 0.62253  0.71170  0.97130  Biso   1.000  C
  H37      1.0000 0.60810  0.68140  0.00420  Biso   1.000  H
  C65      1.0000 0.65209  0.71700  0.00370  Biso   1.000  C
  H38      1.0000 0.65800  0.68970  0.05940  Biso   1.000  H
  C66      1.0000 0.58344  0.74600  0.85220  Biso   1.000  C
  C67      1.0000 0.55888  0.74590  0.81950  Biso   1.000  C
  C68      1.0000 0.52780  0.74610  0.78170  Biso   1.000  C
  C69      1.0000 0.52319  0.79330  0.69240  Biso   1.000  C
  C70      1.0000 0.50674  0.79370  0.84210  Biso   1.000  C
  C71      1.0000 0.61386  0.75090  0.89010  Biso   1.000  C
  C72      1.0000 0.52958  0.57600  0.78460  Biso   1.000  C
  H39      1.0000 0.55000  0.57640  0.80860  Biso   1.000  H
  C73      1.0000 0.54485  0.83260  0.64510  Biso   1.000  C
  H40      1.0000 0.56550  0.83100  0.66700  Biso   1.000  H
  C74      1.0000 0.53653  0.87470  0.56540  Biso   1.000  C
  H41      1.0000 0.55160  0.90300  0.53330  Biso   1.000  H
  C75      1.0000 0.50704  0.87670  0.53140  Biso   1.000  C
  H42      1.0000 0.50160  0.90600  0.47640  Biso   1.000  H
  C76      1.0000 0.51496  0.49670  0.76740  Biso   1.000  C
  H43      1.0000 0.52520  0.44200  0.77930  Biso   1.000  H
  C77      1.0000 0.51474  0.83480  0.92110  Biso   1.000  C
  H44      1.0000 0.53530  0.83500  0.94390  Biso   1.000  H
  C78      1.0000 0.51492  0.65290  0.76740  Biso   1.000  C
  Zn3      1.0000 0.78313  0.25056  0.50436  Biso   1.000  Zn
  O9       1.0000 0.77567  0.33005  0.39827  Biso   1.000  O
  O10      1.0000 0.76910  0.64876  0.08158  Biso   1.000  O
  O11      1.0000 0.72590  0.33068  0.39309  Biso   1.000  O
  O12      1.0000 0.71934  0.64441  0.07670  Biso   1.000  O
  N3       1.0000 0.82706  0.25910  0.54000  Biso   1.000  N
  C79      1.0000 0.72031  0.46940  0.15210  Biso   1.000  C
  C80      1.0000 0.74645  0.57170  0.25690  Biso   1.000  C
  C81      1.0000 0.74653  0.53540  0.16200  Biso   1.000  C
  C82      1.0000 0.74930  0.41280  0.28410  Biso   1.000  C
  C83      1.0000 0.74754  0.50690  0.32080  Biso   1.000  C
  C84      1.0000 0.77633  0.41160  0.22670  Biso   1.000  C
  C85      1.0000 0.77468  0.47700  0.16030  Biso   1.000  C
  C86      1.0000 0.79653  0.48140  0.10000  Biso   1.000  C
  H45      1.0000 0.79540  0.52530  0.05430  Biso   1.000  H
  C87      1.0000 0.72204  0.40300  0.21680  Biso   1.000  C
  C88      1.0000 0.74610  0.61840  0.43360  Biso   1.000  C
  H46      1.0000 0.74580  0.63440  0.49490  Biso   1.000  H
  C89      1.0000 0.74517  0.65980  0.28060  Biso   1.000  C
  H47      1.0000 0.74430  0.70460  0.23570  Biso   1.000  H
  C90      1.0000 0.69768  0.46740  0.08470  Biso   1.000  C
  H48      1.0000 0.69620  0.51330  0.04090  Biso   1.000  H
  C91      1.0000 0.74520  0.68330  0.36920  Biso   1.000  C
  H49      1.0000 0.74460  0.74440  0.38580  Biso   1.000  H
  C92      1.0000 0.70148  0.33480  0.21210  Biso   1.000  C
  H50      1.0000 0.70270  0.28890  0.25600  Biso   1.000  H
  C93      1.0000 0.67912  0.33270  0.14440  Biso   1.000  C
  H51      1.0000 0.66490  0.28520  0.14120  Biso   1.000  H
  C94      1.0000 0.75043  0.35080  0.36420  Biso   1.000  C
  C95      1.0000 0.74484  0.61520  0.10000  Biso   1.000  C
  C96      1.0000 0.67706  0.39850  0.08100  Biso   1.000  C
  H52      1.0000 0.66140  0.39670  0.03430  Biso   1.000  H
  C97      1.0000 0.79993  0.35210  0.23180  Biso   1.000  C
  H53      1.0000 0.80100  0.30710  0.27640  Biso   1.000  H
  C98      1.0000 0.83576  0.29760  0.61830  Biso   1.000  C
  H54      1.0000 0.82100  0.32870  0.64950  Biso   1.000  H
  C99      1.0000 0.74739  0.53020  0.40960  Biso   1.000  C
  H55      1.0000 0.74820  0.48540  0.45440  Biso   1.000  H
  C100     1.0000 0.82210  0.35800  0.17190  Biso   1.000  C
  H56      1.0000 0.83870  0.31790  0.17630  Biso   1.000  H
  C101     1.0000 0.86466  0.29430  0.65520  Biso   1.000  C
  H57      1.0000 0.86990  0.32160  0.71140  Biso   1.000  H
  C102     1.0000 0.82029  0.42140  0.10620  Biso   1.000  C
  H58      1.0000 0.83550  0.42430  0.06450  Biso   1.000  H
  C103     1.0000 0.87747  0.21170  0.52870  Biso   1.000  C
  H59      1.0000 0.89190  0.18140  0.49580  Biso   1.000  H
  C104     1.0000 0.84791  0.21700  0.49630  Biso   1.000  C
  H60      1.0000 0.84200  0.18970  0.44060  Biso   1.000  H
  C105     1.0000 0.91656  0.24600  0.64780  Biso   1.000  C
  C106     1.0000 0.94112  0.24590  0.68050  Biso   1.000  C
  C107     1.0000 0.97220  0.24610  0.71830  Biso   1.000  C
  C108     1.0000 0.97681  0.29330  0.80760  Biso   1.000  C
  C109     1.0000 0.99326  0.29370  0.65790  Biso   1.000  C
  C110     1.0000 0.88614  0.25090  0.60990  Biso   1.000  C
  C111     1.0000 0.97042  0.07600  0.71540  Biso   1.000  C
  H61      1.0000 0.95000  0.07640  0.69140  Biso   1.000  H
  C112     1.0000 0.95515  0.33260  0.85490  Biso   1.000  C
  H62      1.0000 0.93450  0.33100  0.83300  Biso   1.000  H
  C113     1.0000 0.96347  0.37470  0.93460  Biso   1.000  C
  H63      1.0000 0.94840  0.40300  0.96670  Biso   1.000  H
  C114     1.0000 0.99296  0.37670  0.96860  Biso   1.000  C
  H64      1.0000 0.99840  0.40600  0.02360  Biso   1.000  H
  C115     1.0000 0.98504  0.99670  0.73260  Biso   1.000  C
  H65      1.0000 0.97480  0.94200  0.72070  Biso   1.000  H
  C116     1.0000 0.98526  0.33480  0.57890  Biso   1.000  C
  H66      1.0000 0.96470  0.33500  0.55610  Biso   1.000  H
  C117     1.0000 0.98508  0.15290  0.73260  Biso   1.000  C
  Zn4      1.0000 0.28313  0.75056  0.50436  Biso   1.000  Zn
  O13      1.0000 0.27567  0.83005  0.39827  Biso   1.000  O
  O14      1.0000 0.26910  0.14876  0.08158  Biso   1.000  O
  O15      1.0000 0.22590  0.83068  0.39309  Biso   1.000  O
  O16      1.0000 0.21934  0.14441  0.07670  Biso   1.000  O
  N4       1.0000 0.32706  0.75910  0.54000  Biso   1.000  N
  C118     1.0000 0.22031  0.96940  0.15210  Biso   1.000  C
  C119     1.0000 0.24645  0.07170  0.25690  Biso   1.000  C
  C120     1.0000 0.24653  0.03540  0.16200  Biso   1.000  C
  C121     1.0000 0.24930  0.91280  0.28410  Biso   1.000  C
  C122     1.0000 0.24754  0.00690  0.32080  Biso   1.000  C
  C123     1.0000 0.27633  0.91160  0.22670  Biso   1.000  C
  C124     1.0000 0.27468  0.97700  0.16030  Biso   1.000  C
  C125     1.0000 0.29653  0.98140  0.10000  Biso   1.000  C
  H67      1.0000 0.29540  0.02530  0.05430  Biso   1.000  H
  C126     1.0000 0.22204  0.90300  0.21680  Biso   1.000  C
  C127     1.0000 0.24610  0.11840  0.43360  Biso   1.000  C
  H68      1.0000 0.24580  0.13440  0.49490  Biso   1.000  H
  C128     1.0000 0.24517  0.15980  0.28060  Biso   1.000  C
  H69      1.0000 0.24430  0.20460  0.23570  Biso   1.000  H
  C129     1.0000 0.19768  0.96740  0.08470  Biso   1.000  C
  H70      1.0000 0.19620  0.01330  0.04090  Biso   1.000  H
  C130     1.0000 0.24520  0.18330  0.36920  Biso   1.000  C
  H71      1.0000 0.24460  0.24440  0.38580  Biso   1.000  H
  C131     1.0000 0.20148  0.83480  0.21210  Biso   1.000  C
  H72      1.0000 0.20270  0.78890  0.25600  Biso   1.000  H
  C132     1.0000 0.17912  0.83270  0.14440  Biso   1.000  C
  H73      1.0000 0.16490  0.78520  0.14120  Biso   1.000  H
  C133     1.0000 0.25043  0.85080  0.36420  Biso   1.000  C
  C134     1.0000 0.24484  0.11520  0.10000  Biso   1.000  C
  C135     1.0000 0.17706  0.89850  0.08100  Biso   1.000  C
  H74      1.0000 0.16140  0.89670  0.03430  Biso   1.000  H
  C136     1.0000 0.29993  0.85210  0.23180  Biso   1.000  C
  H75      1.0000 0.30100  0.80710  0.27640  Biso   1.000  H
  C137     1.0000 0.33576  0.79760  0.61830  Biso   1.000  C
  H76      1.0000 0.32100  0.82870  0.64950  Biso   1.000  H
  C138     1.0000 0.24739  0.03020  0.40960  Biso   1.000  C
  H77      1.0000 0.24820  0.98540  0.45440  Biso   1.000  H
  C139     1.0000 0.32210  0.85800  0.17190  Biso   1.000  C
  H78      1.0000 0.33870  0.81790  0.17630  Biso   1.000  H
  C140     1.0000 0.36466  0.79430  0.65520  Biso   1.000  C
  H79      1.0000 0.36990  0.82160  0.71140  Biso   1.000  H
  C141     1.0000 0.32029  0.92140  0.10620  Biso   1.000  C
  H80      1.0000 0.33550  0.92430  0.06450  Biso   1.000  H
  C142     1.0000 0.37747  0.71170  0.52870  Biso   1.000  C
  H81      1.0000 0.39190  0.68140  0.49580  Biso   1.000  H
  C143     1.0000 0.34791  0.71700  0.49630  Biso   1.000  C
  H82      1.0000 0.34200  0.68970  0.44060  Biso   1.000  H
  C144     1.0000 0.41656  0.74600  0.64780  Biso   1.000  C
  C145     1.0000 0.44112  0.74590  0.68050  Biso   1.000  C
  C146     1.0000 0.47220  0.74610  0.71830  Biso   1.000  C
  C147     1.0000 0.47681  0.79330  0.80760  Biso   1.000  C
  C148     1.0000 0.49326  0.79370  0.65790  Biso   1.000  C
  C149     1.0000 0.38614  0.75090  0.60990  Biso   1.000  C
  C150     1.0000 0.47042  0.57600  0.71540  Biso   1.000  C
  H83      1.0000 0.45000  0.57640  0.69140  Biso   1.000  H
  C151     1.0000 0.45515  0.83260  0.85490  Biso   1.000  C
  H84      1.0000 0.43450  0.83100  0.83300  Biso   1.000  H
  C152     1.0000 0.46347  0.87470  0.93460  Biso   1.000  C
  H85      1.0000 0.44840  0.90300  0.96670  Biso   1.000  H
  C153     1.0000 0.49296  0.87670  0.96860  Biso   1.000  C
  H86      1.0000 0.49840  0.90600  0.02360  Biso   1.000  H
  C154     1.0000 0.48504  0.49670  0.73260  Biso   1.000  C
  H87      1.0000 0.47480  0.44200  0.72070  Biso   1.000  H
  C155     1.0000 0.48526  0.83480  0.57890  Biso   1.000  C
  H88      1.0000 0.46470  0.83500  0.55610  Biso   1.000  H
  C156     1.0000 0.48508  0.65290  0.73260  Biso   1.000  C
  Zn5      1.0000 0.78313  0.74944  0.00436  Biso   1.000  Zn
  O17      1.0000 0.77567  0.66995  0.89827  Biso   1.000  O
  O18      1.0000 0.76910  0.35124  0.58158  Biso   1.000  O
  O19      1.0000 0.72590  0.66932  0.89309  Biso   1.000  O
  O20      1.0000 0.71934  0.35559  0.57670  Biso   1.000  O
  N5       1.0000 0.82706  0.74090  0.04000  Biso   1.000  N
  C157     1.0000 0.72031  0.53060  0.65210  Biso   1.000  C
  C158     1.0000 0.74645  0.42830  0.75690  Biso   1.000  C
  C159     1.0000 0.74653  0.46460  0.66200  Biso   1.000  C
  C160     1.0000 0.74930  0.58720  0.78410  Biso   1.000  C
  C161     1.0000 0.74754  0.49310  0.82080  Biso   1.000  C
  C162     1.0000 0.77633  0.58840  0.72670  Biso   1.000  C
  C163     1.0000 0.77468  0.52300  0.66030  Biso   1.000  C
  C164     1.0000 0.79653  0.51860  0.60000  Biso   1.000  C
  H89      1.0000 0.79540  0.47470  0.55430  Biso   1.000  H
  C165     1.0000 0.72204  0.59700  0.71680  Biso   1.000  C
  C166     1.0000 0.74610  0.38160  0.93360  Biso   1.000  C
  H90      1.0000 0.74580  0.36560  0.99490  Biso   1.000  H
  C167     1.0000 0.74517  0.34020  0.78060  Biso   1.000  C
  H91      1.0000 0.74430  0.29540  0.73570  Biso   1.000  H
  C168     1.0000 0.69768  0.53260  0.58470  Biso   1.000  C
  H92      1.0000 0.69620  0.48670  0.54090  Biso   1.000  H
  C169     1.0000 0.74520  0.31670  0.86920  Biso   1.000  C
  H93      1.0000 0.74460  0.25560  0.88580  Biso   1.000  H
  C170     1.0000 0.70148  0.66520  0.71210  Biso   1.000  C
  H94      1.0000 0.70270  0.71110  0.75600  Biso   1.000  H
  C171     1.0000 0.67912  0.66730  0.64440  Biso   1.000  C
  H95      1.0000 0.66490  0.71480  0.64120  Biso   1.000  H
  C172     1.0000 0.75043  0.64920  0.86420  Biso   1.000  C
  C173     1.0000 0.74484  0.38480  0.60000  Biso   1.000  C
  C174     1.0000 0.67706  0.60150  0.58100  Biso   1.000  C
  H96      1.0000 0.66140  0.60330  0.53430  Biso   1.000  H
  C175     1.0000 0.79993  0.64790  0.73180  Biso   1.000  C
  H97      1.0000 0.80100  0.69290  0.77640  Biso   1.000  H
  C176     1.0000 0.83576  0.70240  0.11830  Biso   1.000  C
  H98      1.0000 0.82100  0.67130  0.14950  Biso   1.000  H
  C177     1.0000 0.74739  0.46980  0.90960  Biso   1.000  C
  H99      1.0000 0.74820  0.51460  0.95440  Biso   1.000  H
  C178     1.0000 0.82210  0.64200  0.67190  Biso   1.000  C
  H100     1.0000 0.83870  0.68210  0.67630  Biso   1.000  H
  C179     1.0000 0.86466  0.70570  0.15520  Biso   1.000  C
  H101     1.0000 0.86990  0.67840  0.21140  Biso   1.000  H
  C180     1.0000 0.82029  0.57860  0.60620  Biso   1.000  C
  H102     1.0000 0.83550  0.57570  0.56450  Biso   1.000  H
  C181     1.0000 0.87747  0.78830  0.02870  Biso   1.000  C
  H103     1.0000 0.89190  0.81860  0.99580  Biso   1.000  H
  C182     1.0000 0.84791  0.78300  0.99630  Biso   1.000  C
  H104     1.0000 0.84200  0.81030  0.94060  Biso   1.000  H
  C183     1.0000 0.91656  0.75400  0.14780  Biso   1.000  C
  C184     1.0000 0.94112  0.75410  0.18050  Biso   1.000  C
  C185     1.0000 0.97220  0.75390  0.21830  Biso   1.000  C
  C186     1.0000 0.97681  0.70670  0.30760  Biso   1.000  C
  C187     1.0000 0.99326  0.70630  0.15790  Biso   1.000  C
  C188     1.0000 0.88614  0.74910  0.10990  Biso   1.000  C
  C189     1.0000 0.97042  0.92400  0.21540  Biso   1.000  C
  H105     1.0000 0.95000  0.92360  0.19140  Biso   1.000  H
  C190     1.0000 0.95515  0.66740  0.35490  Biso   1.000  C
  H106     1.0000 0.93450  0.66900  0.33300  Biso   1.000  H
  C191     1.0000 0.96347  0.62530  0.43460  Biso   1.000  C
  H107     1.0000 0.94840  0.59700  0.46670  Biso   1.000  H
  C192     1.0000 0.99296  0.62330  0.46860  Biso   1.000  C
  H108     1.0000 0.99840  0.59400  0.52360  Biso   1.000  H
  C193     1.0000 0.98504  0.00330  0.23260  Biso   1.000  C
  H109     1.0000 0.97480  0.05800  0.22070  Biso   1.000  H
  C194     1.0000 0.98526  0.66520  0.07890  Biso   1.000  C
  H110     1.0000 0.96470  0.66500  0.05610  Biso   1.000  H
  C195     1.0000 0.98508  0.84710  0.23260  Biso   1.000  C
  Zn6      1.0000 0.28313  0.24944  0.00436  Biso   1.000  Zn
  O21      1.0000 0.27567  0.16995  0.89827  Biso   1.000  O
  O22      1.0000 0.26910  0.85124  0.58158  Biso   1.000  O
  O23      1.0000 0.22590  0.16932  0.89309  Biso   1.000  O
  O24      1.0000 0.21934  0.85559  0.57670  Biso   1.000  O
  N6       1.0000 0.32706  0.24090  0.04000  Biso   1.000  N
  C196     1.0000 0.22031  0.03060  0.65210  Biso   1.000  C
  C197     1.0000 0.24645  0.92830  0.75690  Biso   1.000  C
  C198     1.0000 0.24653  0.96460  0.66200  Biso   1.000  C
  C199     1.0000 0.24930  0.08720  0.78410  Biso   1.000  C
  C200     1.0000 0.24754  0.99310  0.82080  Biso   1.000  C
  C201     1.0000 0.27633  0.08840  0.72670  Biso   1.000  C
  C202     1.0000 0.27468  0.02300  0.66030  Biso   1.000  C
  C203     1.0000 0.29653  0.01860  0.60000  Biso   1.000  C
  H111     1.0000 0.29540  0.97470  0.55430  Biso   1.000  H
  C204     1.0000 0.22204  0.09700  0.71680  Biso   1.000  C
  C205     1.0000 0.24610  0.88160  0.93360  Biso   1.000  C
  H112     1.0000 0.24580  0.86560  0.99490  Biso   1.000  H
  C206     1.0000 0.24517  0.84020  0.78060  Biso   1.000  C
  H113     1.0000 0.24430  0.79540  0.73570  Biso   1.000  H
  C207     1.0000 0.19768  0.03260  0.58470  Biso   1.000  C
  H114     1.0000 0.19620  0.98670  0.54090  Biso   1.000  H
  C208     1.0000 0.24520  0.81670  0.86920  Biso   1.000  C
  H115     1.0000 0.24460  0.75560  0.88580  Biso   1.000  H
  C209     1.0000 0.20148  0.16520  0.71210  Biso   1.000  C
  H116     1.0000 0.20270  0.21110  0.75600  Biso   1.000  H
  C210     1.0000 0.17912  0.16730  0.64440  Biso   1.000  C
  H117     1.0000 0.16490  0.21480  0.64120  Biso   1.000  H
  C211     1.0000 0.25043  0.14920  0.86420  Biso   1.000  C
  C212     1.0000 0.24484  0.88480  0.60000  Biso   1.000  C
  C213     1.0000 0.17706  0.10150  0.58100  Biso   1.000  C
  H118     1.0000 0.16140  0.10330  0.53430  Biso   1.000  H
  C214     1.0000 0.29993  0.14790  0.73180  Biso   1.000  C
  H119     1.0000 0.30100  0.19290  0.77640  Biso   1.000  H
  C215     1.0000 0.33576  0.20240  0.11830  Biso   1.000  C
  H120     1.0000 0.32100  0.17130  0.14950  Biso   1.000  H
  C216     1.0000 0.24739  0.96980  0.90960  Biso   1.000  C
  H121     1.0000 0.24820  0.01460  0.95440  Biso   1.000  H
  C217     1.0000 0.32210  0.14200  0.67190  Biso   1.000  C
  H122     1.0000 0.33870  0.18210  0.67630  Biso   1.000  H
  C218     1.0000 0.36466  0.20570  0.15520  Biso   1.000  C
  H123     1.0000 0.36990  0.17840  0.21140  Biso   1.000  H
  C219     1.0000 0.32029  0.07860  0.60620  Biso   1.000  C
  H124     1.0000 0.33550  0.07570  0.56450  Biso   1.000  H
  C220     1.0000 0.37747  0.28830  0.02870  Biso   1.000  C
  H125     1.0000 0.39190  0.31860  0.99580  Biso   1.000  H
  C221     1.0000 0.34791  0.28300  0.99630  Biso   1.000  C
  H126     1.0000 0.34200  0.31030  0.94060  Biso   1.000  H
  C222     1.0000 0.41656  0.25400  0.14780  Biso   1.000  C
  C223     1.0000 0.44112  0.25410  0.18050  Biso   1.000  C
  C224     1.0000 0.47220  0.25390  0.21830  Biso   1.000  C
  C225     1.0000 0.47681  0.20670  0.30760  Biso   1.000  C
  C226     1.0000 0.49326  0.20630  0.15790  Biso   1.000  C
  C227     1.0000 0.38614  0.24910  0.10990  Biso   1.000  C
  C228     1.0000 0.47042  0.42400  0.21540  Biso   1.000  C
  H127     1.0000 0.45000  0.42360  0.19140  Biso   1.000  H
  C229     1.0000 0.45515  0.16740  0.35490  Biso   1.000  C
  H128     1.0000 0.43450  0.16900  0.33300  Biso   1.000  H
  C230     1.0000 0.46347  0.12530  0.43460  Biso   1.000  C
  H129     1.0000 0.44840  0.09700  0.46670  Biso   1.000  H
  C231     1.0000 0.49296  0.12330  0.46860  Biso   1.000  C
  H130     1.0000 0.49840  0.09400  0.52360  Biso   1.000  H
  C232     1.0000 0.48504  0.50330  0.23260  Biso   1.000  C
  H131     1.0000 0.47480  0.55800  0.22070  Biso   1.000  H
  C233     1.0000 0.48526  0.16520  0.07890  Biso   1.000  C
  H132     1.0000 0.46470  0.16500  0.05610  Biso   1.000  H
  C234     1.0000 0.48508  0.34710  0.23260  Biso   1.000  C
  Zn7      1.0000 0.21687  0.74944  0.49564  Biso   1.000  Zn
  O25      1.0000 0.22433  0.66995  0.60173  Biso   1.000  O
  O26      1.0000 0.23090  0.35124  0.91842  Biso   1.000  O
  O27      1.0000 0.27410  0.66932  0.60691  Biso   1.000  O
  O28      1.0000 0.28066  0.35559  0.92330  Biso   1.000  O
  N7       1.0000 0.17294  0.74090  0.46000  Biso   1.000  N
  C235     1.0000 0.27969  0.53060  0.84790  Biso   1.000  C
  C236     1.0000 0.25355  0.42830  0.74310  Biso   1.000  C
  C237     1.0000 0.25347  0.46460  0.83800  Biso   1.000  C
  C238     1.0000 0.25070  0.58720  0.71590  Biso   1.000  C
  C239     1.0000 0.25246  0.49310  0.67920  Biso   1.000  C
  C240     1.0000 0.22367  0.58840  0.77330  Biso   1.000  C
  C241     1.0000 0.22532  0.52300  0.83970  Biso   1.000  C
  C242     1.0000 0.20347  0.51860  0.90000  Biso   1.000  C
  H133     1.0000 0.20460  0.47470  0.94570  Biso   1.000  H
  C243     1.0000 0.27796  0.59700  0.78320  Biso   1.000  C
  C244     1.0000 0.25390  0.38160  0.56640  Biso   1.000  C
  H134     1.0000 0.25420  0.36560  0.50510  Biso   1.000  H
  C245     1.0000 0.25483  0.34020  0.71940  Biso   1.000  C
  H135     1.0000 0.25570  0.29540  0.76430  Biso   1.000  H
  C246     1.0000 0.30232  0.53260  0.91530  Biso   1.000  C
  H136     1.0000 0.30380  0.48670  0.95910  Biso   1.000  H
  C247     1.0000 0.25480  0.31670  0.63080  Biso   1.000  C
  H137     1.0000 0.25540  0.25560  0.61420  Biso   1.000  H
  C248     1.0000 0.29852  0.66520  0.78790  Biso   1.000  C
  H138     1.0000 0.29730  0.71110  0.74400  Biso   1.000  H
  C249     1.0000 0.32088  0.66730  0.85560  Biso   1.000  C
  H139     1.0000 0.33510  0.71480  0.85880  Biso   1.000  H
  C250     1.0000 0.24957  0.64920  0.63580  Biso   1.000  C
  C251     1.0000 0.25516  0.38480  0.90000  Biso   1.000  C
  C252     1.0000 0.32294  0.60150  0.91900  Biso   1.000  C
  H140     1.0000 0.33860  0.60330  0.96570  Biso   1.000  H
  C253     1.0000 0.20007  0.64790  0.76820  Biso   1.000  C
  H141     1.0000 0.19900  0.69290  0.72360  Biso   1.000  H
  C254     1.0000 0.16424  0.70240  0.38170  Biso   1.000  C
  H142     1.0000 0.17900  0.67130  0.35050  Biso   1.000  H
  C255     1.0000 0.25261  0.46980  0.59040  Biso   1.000  C
  H143     1.0000 0.25180  0.51460  0.54560  Biso   1.000  H
  C256     1.0000 0.17790  0.64200  0.82810  Biso   1.000  C
  H144     1.0000 0.16130  0.68210  0.82370  Biso   1.000  H
  C257     1.0000 0.13534  0.70570  0.34480  Biso   1.000  C
  H145     1.0000 0.13010  0.67840  0.28860  Biso   1.000  H
  C258     1.0000 0.17971  0.57860  0.89380  Biso   1.000  C
  H146     1.0000 0.16450  0.57570  0.93550  Biso   1.000  H
  C259     1.0000 0.12253  0.78830  0.47130  Biso   1.000  C
  H147     1.0000 0.10810  0.81860  0.50420  Biso   1.000  H
  C260     1.0000 0.15209  0.78300  0.50370  Biso   1.000  C
  H148     1.0000 0.15800  0.81030  0.55940  Biso   1.000  H
  C261     1.0000 0.08344  0.75400  0.35220  Biso   1.000  C
  C262     1.0000 0.05888  0.75410  0.31950  Biso   1.000  C
  C263     1.0000 0.02780  0.75390  0.28170  Biso   1.000  C
  C264     1.0000 0.02319  0.70670  0.19240  Biso   1.000  C
  C265     1.0000 0.00674  0.70630  0.34210  Biso   1.000  C
  C266     1.0000 0.11386  0.74910  0.39010  Biso   1.000  C
  C267     1.0000 0.02958  0.92400  0.28460  Biso   1.000  C
  H149     1.0000 0.05000  0.92360  0.30860  Biso   1.000  H
  C268     1.0000 0.04485  0.66740  0.14510  Biso   1.000  C
  H150     1.0000 0.06550  0.66900  0.16700  Biso   1.000  H
  C269     1.0000 0.03653  0.62530  0.06540  Biso   1.000  C
  H151     1.0000 0.05160  0.59700  0.03330  Biso   1.000  H
  C270     1.0000 0.00704  0.62330  0.03140  Biso   1.000  C
  H152     1.0000 0.00160  0.59400  0.97640  Biso   1.000  H
  C271     1.0000 0.01496  0.00330  0.26740  Biso   1.000  C
  H153     1.0000 0.02520  0.05800  0.27930  Biso   1.000  H
  C272     1.0000 0.01474  0.66520  0.42110  Biso   1.000  C
  H154     1.0000 0.03530  0.66500  0.44390  Biso   1.000  H
  C273     1.0000 0.01492  0.84710  0.26740  Biso   1.000  C
  Zn8      1.0000 0.71687  0.24944  0.49564  Biso   1.000  Zn
  O29      1.0000 0.72433  0.16995  0.60173  Biso   1.000  O
  O30      1.0000 0.73090  0.85124  0.91842  Biso   1.000  O
  O31      1.0000 0.77410  0.16932  0.60691  Biso   1.000  O
  O32      1.0000 0.78066  0.85559  0.92330  Biso   1.000  O
  N8       1.0000 0.67294  0.24090  0.46000  Biso   1.000  N
  C274     1.0000 0.77969  0.03060  0.84790  Biso   1.000  C
  C275     1.0000 0.75355  0.92830  0.74310  Biso   1.000  C
  C276     1.0000 0.75347  0.96460  0.83800  Biso   1.000  C
  C277     1.0000 0.75070  0.08720  0.71590  Biso   1.000  C
  C278     1.0000 0.75246  0.99310  0.67920  Biso   1.000  C
  C279     1.0000 0.72367  0.08840  0.77330  Biso   1.000  C
  C280     1.0000 0.72532  0.02300  0.83970  Biso   1.000  C
  C281     1.0000 0.70347  0.01860  0.90000  Biso   1.000  C
  H155     1.0000 0.70460  0.97470  0.94570  Biso   1.000  H
  C282     1.0000 0.77796  0.09700  0.78320  Biso   1.000  C
  C283     1.0000 0.75390  0.88160  0.56640  Biso   1.000  C
  H156     1.0000 0.75420  0.86560  0.50510  Biso   1.000  H
  C284     1.0000 0.75483  0.84020  0.71940  Biso   1.000  C
  H157     1.0000 0.75570  0.79540  0.76430  Biso   1.000  H
  C285     1.0000 0.80232  0.03260  0.91530  Biso   1.000  C
  H158     1.0000 0.80380  0.98670  0.95910  Biso   1.000  H
  C286     1.0000 0.75480  0.81670  0.63080  Biso   1.000  C
  H159     1.0000 0.75540  0.75560  0.61420  Biso   1.000  H
  C287     1.0000 0.79852  0.16520  0.78790  Biso   1.000  C
  H160     1.0000 0.79730  0.21110  0.74400  Biso   1.000  H
  C288     1.0000 0.82088  0.16730  0.85560  Biso   1.000  C
  H161     1.0000 0.83510  0.21480  0.85880  Biso   1.000  H
  C289     1.0000 0.74957  0.14920  0.63580  Biso   1.000  C
  C290     1.0000 0.75516  0.88480  0.90000  Biso   1.000  C
  C291     1.0000 0.82294  0.10150  0.91900  Biso   1.000  C
  H162     1.0000 0.83860  0.10330  0.96570  Biso   1.000  H
  C292     1.0000 0.70007  0.14790  0.76820  Biso   1.000  C
  H163     1.0000 0.69900  0.19290  0.72360  Biso   1.000  H
  C293     1.0000 0.66424  0.20240  0.38170  Biso   1.000  C
  H164     1.0000 0.67900  0.17130  0.35050  Biso   1.000  H
  C294     1.0000 0.75261  0.96980  0.59040  Biso   1.000  C
  H165     1.0000 0.75180  0.01460  0.54560  Biso   1.000  H
  C295     1.0000 0.67790  0.14200  0.82810  Biso   1.000  C
  H166     1.0000 0.66130  0.18210  0.82370  Biso   1.000  H
  C296     1.0000 0.63534  0.20570  0.34480  Biso   1.000  C
  H167     1.0000 0.63010  0.17840  0.28860  Biso   1.000  H
  C297     1.0000 0.67971  0.07860  0.89380  Biso   1.000  C
  H168     1.0000 0.66450  0.07570  0.93550  Biso   1.000  H
  C298     1.0000 0.62253  0.28830  0.47130  Biso   1.000  C
  H169     1.0000 0.60810  0.31860  0.50420  Biso   1.000  H
  C299     1.0000 0.65209  0.28300  0.50370  Biso   1.000  C
  H170     1.0000 0.65800  0.31030  0.55940  Biso   1.000  H
  C300     1.0000 0.58344  0.25400  0.35220  Biso   1.000  C
  C301     1.0000 0.55888  0.25410  0.31950  Biso   1.000  C
  C302     1.0000 0.52780  0.25390  0.28170  Biso   1.000  C
  C303     1.0000 0.52319  0.20670  0.19240  Biso   1.000  C
  C304     1.0000 0.50674  0.20630  0.34210  Biso   1.000  C
  C305     1.0000 0.61386  0.24910  0.39010  Biso   1.000  C
  C306     1.0000 0.52958  0.42400  0.28460  Biso   1.000  C
  H171     1.0000 0.55000  0.42360  0.30860  Biso   1.000  H
  C307     1.0000 0.54485  0.16740  0.14510  Biso   1.000  C
  H172     1.0000 0.56550  0.16900  0.16700  Biso   1.000  H
  C308     1.0000 0.53653  0.12530  0.06540  Biso   1.000  C
  H173     1.0000 0.55160  0.09700  0.03330  Biso   1.000  H
  C309     1.0000 0.50704  0.12330  0.03140  Biso   1.000  C
  H174     1.0000 0.50160  0.09400  0.97640  Biso   1.000  H
  C310     1.0000 0.51496  0.50330  0.26740  Biso   1.000  C
  H175     1.0000 0.52520  0.55800  0.27930  Biso   1.000  H
  C311     1.0000 0.51474  0.16520  0.42110  Biso   1.000  C
  H176     1.0000 0.53530  0.16500  0.44390  Biso   1.000  H
  C312     1.0000 0.51492  0.34710  0.26740  Biso   1.000  C
