data_image0
_cell_length_a       9.8456
_cell_length_b       12.0753
_cell_length_c       13.0039
_cell_angle_alpha    91.842
_cell_angle_beta     100.925
_cell_angle_gamma    101.745

_symmetry_space_group_name_H-M    P 1
_symmetry_int_tables_number       1

loop_
  _symmetry_equiv_pos_as_xyz
  'x, y, z'

loop_
  _atom_site_label
  _atom_site_occupancy
  _atom_site_fract_x
  _atom_site_fract_y
  _atom_site_fract_z
  _atom_site_thermal_displace_type
  _atom_site_B_iso_or_equiv
  _atom_site_type_symbol
  Co1      1.0000 0.46244  0.28429  0.32159  Biso   1.000  Co
  Co2      1.0000 0.84019  0.78464  0.82137  Biso   1.000  Co
  Co3      1.0000 0.53756  0.71571  0.67841  Biso   1.000  Co
  Co4      1.0000 0.15981  0.21536  0.17863  Biso   1.000  Co
  Co5      1.0000 0.50000  0.50000  0.50000  Biso   1.000  Co
  Co6      1.0000 0.00000  0.00000  0.00000  Biso   1.000  Co
  H1       1.0000 0.23720  0.64920  0.32810  Biso   1.000  H
  H2       1.0000 0.12830  0.77380  0.22100  Biso   1.000  H
  H3       1.0000 0.08430  0.55390  0.96850  Biso   1.000  H
  H4       1.0000 0.20200  0.43850  0.07390  Biso   1.000  H
  H5       1.0000 0.36770  0.27340  0.72420  Biso   1.000  H
  H6       1.0000 0.24010  0.15140  0.82720  Biso   1.000  H
  H7       1.0000 0.06760  0.92790  0.57780  Biso   1.000  H
  H8       1.0000 0.17430  0.05990  0.46980  Biso   1.000  H
  H9       1.0000 0.81970  0.59580  0.43560  Biso   1.000  H
  H10      1.0000 0.95520  0.30520  0.52050  Biso   1.000  H
  H11      1.0000 0.42820  0.80730  0.00990  Biso   1.000  H
  H12      1.0000 0.68010  0.07380  0.91290  Biso   1.000  H
  H13      1.0000 0.76280  0.35080  0.67190  Biso   1.000  H
  H14      1.0000 0.87170  0.22620  0.77900  Biso   1.000  H
  H15      1.0000 0.91570  0.44610  0.03150  Biso   1.000  H
  H16      1.0000 0.79800  0.56150  0.92610  Biso   1.000  H
  H17      1.0000 0.63230  0.72660  0.27580  Biso   1.000  H
  H18      1.0000 0.75990  0.84860  0.17280  Biso   1.000  H
  H19      1.0000 0.93240  0.07210  0.42220  Biso   1.000  H
  H20      1.0000 0.82570  0.94010  0.53020  Biso   1.000  H
  H21      1.0000 0.18030  0.40420  0.56440  Biso   1.000  H
  H22      1.0000 0.04480  0.69480  0.47950  Biso   1.000  H
  H23      1.0000 0.57180  0.19270  0.99010  Biso   1.000  H
  H24      1.0000 0.31990  0.92620  0.08710  Biso   1.000  H
  C1       1.0000 0.23450  0.53380  0.20900  Biso   1.000  C
  C2       1.0000 0.20930  0.63200  0.25440  Biso   1.000  C
  C3       1.0000 0.14260  0.70540  0.19100  Biso   1.000  C
  C4       1.0000 0.09790  0.67660  0.08390  Biso   1.000  C
  C5       1.0000 0.11820  0.57530  0.04120  Biso   1.000  C
  C6       1.0000 0.18710  0.50660  0.10420  Biso   1.000  C
  C7       1.0000 0.30500  0.45510  0.27530  Biso   1.000  C
  C8       1.0000 0.02690  0.74970  0.01890  Biso   1.000  C
  C9       1.0000 0.27970  0.17330  0.58310  Biso   1.000  C
  C10      1.0000 0.30380  0.20540  0.69370  Biso   1.000  C
  C11      1.0000 0.22840  0.13120  0.75430  Biso   1.000  C
  C12      1.0000 0.13840  0.03060  0.71280  Biso   1.000  C
  C13      1.0000 0.12300  0.99960  0.60730  Biso   1.000  C
  C14      1.0000 0.19220  0.07770  0.54340  Biso   1.000  C
  C15      1.0000 0.35530  0.25170  0.51860  Biso   1.000  C
  C16      1.0000 0.06270  0.95580  0.77970  Biso   1.000  C
  C17      1.0000 0.71410  0.37030  0.42890  Biso   1.000  C
  C18      1.0000 0.89400  0.55820  0.46080  Biso   1.000  C
  C19      1.0000 0.86360  0.43880  0.46860  Biso   1.000  C
  C20      1.0000 0.97590  0.38430  0.51180  Biso   1.000  C
  C21      1.0000 0.68660  0.86790  0.93320  Biso   1.000  C
  C22      1.0000 0.46030  0.88680  0.00810  Biso   1.000  C
  C23      1.0000 0.57820  0.92600  0.96260  Biso   1.000  C
  C24      1.0000 0.60910  0.04340  0.95070  Biso   1.000  C
  C25      1.0000 0.76550  0.46620  0.79100  Biso   1.000  C
  C26      1.0000 0.79070  0.36800  0.74560  Biso   1.000  C
  C27      1.0000 0.85740  0.29460  0.80900  Biso   1.000  C
  C28      1.0000 0.90210  0.32340  0.91610  Biso   1.000  C
  C29      1.0000 0.88180  0.42470  0.95880  Biso   1.000  C
  C30      1.0000 0.81290  0.49340  0.89580  Biso   1.000  C
  C31      1.0000 0.69500  0.54490  0.72470  Biso   1.000  C
  C32      1.0000 0.97310  0.25030  0.98110  Biso   1.000  C
  C33      1.0000 0.72030  0.82670  0.41690  Biso   1.000  C
  C34      1.0000 0.69620  0.79460  0.30630  Biso   1.000  C
  C35      1.0000 0.77160  0.86880  0.24570  Biso   1.000  C
  C36      1.0000 0.86160  0.96940  0.28720  Biso   1.000  C
  C37      1.0000 0.87700  0.00040  0.39270  Biso   1.000  C
  C38      1.0000 0.80780  0.92230  0.45660  Biso   1.000  C
  C39      1.0000 0.64470  0.74830  0.48140  Biso   1.000  C
  C40      1.0000 0.93730  0.04420  0.22030  Biso   1.000  C
  C41      1.0000 0.28590  0.62970  0.57110  Biso   1.000  C
  C42      1.0000 0.10600  0.44180  0.53920  Biso   1.000  C
  C43      1.0000 0.13640  0.56120  0.53140  Biso   1.000  C
  C44      1.0000 0.02410  0.61570  0.48820  Biso   1.000  C
  C45      1.0000 0.31340  0.13210  0.06680  Biso   1.000  C
  C46      1.0000 0.53970  0.11320  0.99190  Biso   1.000  C
  C47      1.0000 0.42180  0.07400  0.03740  Biso   1.000  C
  C48      1.0000 0.39090  0.95660  0.04930  Biso   1.000  C
  O1       1.0000 0.31690  0.37220  0.24630  Biso   1.000  O
  O2       1.0000 0.34120  0.48710  0.38170  Biso   1.000  O
  O3       1.0000 0.03000  0.85100  0.05850  Biso   1.000  O
  O4       1.0000 0.96740  0.71590  0.92520  Biso   1.000  O
  O5       1.0000 0.35190  0.21630  0.41140  Biso   1.000  O
  O6       1.0000 0.42720  0.35050  0.55760  Biso   1.000  O
  O7       1.0000 0.09720  0.97990  0.87830  Biso   1.000  O
  O8       1.0000 0.96340  0.87560  0.73580  Biso   1.000  O
  O9       1.0000 0.61680  0.41820  0.39900  Biso   1.000  O
  O10      1.0000 0.69520  0.26410  0.42870  Biso   1.000  O
  O11      1.0000 0.79210  0.92040  0.90320  Biso   1.000  O
  O12      1.0000 0.65300  0.76220  0.93360  Biso   1.000  O
  O13      1.0000 0.68310  0.62780  0.75370  Biso   1.000  O
  O14      1.0000 0.65880  0.51290  0.61830  Biso   1.000  O
  O15      1.0000 0.97000  0.14900  0.94150  Biso   1.000  O
  O16      1.0000 0.03260  0.28410  0.07480  Biso   1.000  O
  O17      1.0000 0.64810  0.78370  0.58860  Biso   1.000  O
  O18      1.0000 0.57280  0.64950  0.44240  Biso   1.000  O
  O19      1.0000 0.90280  0.02010  0.12170  Biso   1.000  O
  O20      1.0000 0.03660  0.12440  0.26420  Biso   1.000  O
  O21      1.0000 0.38320  0.58180  0.60100  Biso   1.000  O
  O22      1.0000 0.30480  0.73590  0.57130  Biso   1.000  O
  O23      1.0000 0.20790  0.07960  0.09680  Biso   1.000  O
  O24      1.0000 0.34700  0.23780  0.06640  Biso   1.000  O
