data_image0
_cell_length_a       8.8647
_cell_length_b       11.707
_cell_length_c       17.8824
_cell_angle_alpha    90
_cell_angle_beta     90
_cell_angle_gamma    99.713

_symmetry_space_group_name_H-M    P 1
_symmetry_int_tables_number       1

loop_
  _symmetry_equiv_pos_as_xyz
  'x, y, z'

loop_
  _atom_site_label
  _atom_site_occupancy
  _atom_site_fract_x
  _atom_site_fract_y
  _atom_site_fract_z
  _atom_site_thermal_displace_type
  _atom_site_B_iso_or_equiv
  _atom_site_type_symbol
  Mn1      1.0000 0.79401  0.38120  0.17008  Biso   1.000  Mn
  Mn2      1.0000 0.70599  0.61880  0.67008  Biso   1.000  Mn
  Mn3      1.0000 0.20599  0.61880  0.82992  Biso   1.000  Mn
  Mn4      1.0000 0.29401  0.38120  0.32992  Biso   1.000  Mn
  H1       1.0000 0.47500  0.35900  0.17000  Biso   1.000  H
  H2       1.0000 0.54100  0.34800  0.10020  Biso   1.000  H
  H3       1.0000 0.98170  0.18610  0.23540  Biso   1.000  H
  H4       1.0000 0.98340  0.99240  0.23680  Biso   1.000  H
  H5       1.0000 0.61630  0.94810  0.10710  Biso   1.000  H
  H6       1.0000 0.62440  0.14350  0.10770  Biso   1.000  H
  H7       1.0000 0.95760  0.81150  0.25040  Biso   1.000  H
  H8       1.0000 0.95130  0.61550  0.24660  Biso   1.000  H
  H9       1.0000 0.63780  0.57950  0.09250  Biso   1.000  H
  H10      1.0000 0.63580  0.77430  0.09180  Biso   1.000  H
  H11      1.0000 0.71690  0.38590  0.88210  Biso   1.000  H
  H12      1.0000 0.88400  0.40030  0.91380  Biso   1.000  H
  H13      1.0000 0.88440  0.59100  0.94330  Biso   1.000  H
  H14      1.0000 0.70790  0.57870  0.92810  Biso   1.000  H
  H15      1.0000 0.02500  0.64100  0.67000  Biso   1.000  H
  H16      1.0000 0.95900  0.65200  0.60020  Biso   1.000  H
  H17      1.0000 0.51830  0.81390  0.73540  Biso   1.000  H
  H18      1.0000 0.51660  0.00760  0.73680  Biso   1.000  H
  H19      1.0000 0.88370  0.05190  0.60710  Biso   1.000  H
  H20      1.0000 0.87560  0.85650  0.60770  Biso   1.000  H
  H21      1.0000 0.54240  0.18850  0.75040  Biso   1.000  H
  H22      1.0000 0.54870  0.38450  0.74660  Biso   1.000  H
  H23      1.0000 0.86220  0.42050  0.59250  Biso   1.000  H
  H24      1.0000 0.86420  0.22570  0.59180  Biso   1.000  H
  H25      1.0000 0.78310  0.61410  0.38210  Biso   1.000  H
  H26      1.0000 0.61600  0.59970  0.41380  Biso   1.000  H
  H27      1.0000 0.61560  0.40900  0.44330  Biso   1.000  H
  H28      1.0000 0.79210  0.42130  0.42810  Biso   1.000  H
  H29      1.0000 0.52500  0.64100  0.83000  Biso   1.000  H
  H30      1.0000 0.45900  0.65200  0.89980  Biso   1.000  H
  H31      1.0000 0.01830  0.81390  0.76460  Biso   1.000  H
  H32      1.0000 0.01660  0.00760  0.76320  Biso   1.000  H
  H33      1.0000 0.38370  0.05190  0.89290  Biso   1.000  H
  H34      1.0000 0.37560  0.85650  0.89230  Biso   1.000  H
  H35      1.0000 0.04240  0.18850  0.74960  Biso   1.000  H
  H36      1.0000 0.04870  0.38450  0.75340  Biso   1.000  H
  H37      1.0000 0.36220  0.42050  0.90750  Biso   1.000  H
  H38      1.0000 0.36420  0.22570  0.90820  Biso   1.000  H
  H39      1.0000 0.28310  0.61410  0.11790  Biso   1.000  H
  H40      1.0000 0.11600  0.59970  0.08620  Biso   1.000  H
  H41      1.0000 0.11560  0.40900  0.05670  Biso   1.000  H
  H42      1.0000 0.29210  0.42130  0.07190  Biso   1.000  H
  H43      1.0000 0.97500  0.35900  0.33000  Biso   1.000  H
  H44      1.0000 0.04100  0.34800  0.39980  Biso   1.000  H
  H45      1.0000 0.48170  0.18610  0.26460  Biso   1.000  H
  H46      1.0000 0.48340  0.99240  0.26320  Biso   1.000  H
  H47      1.0000 0.11630  0.94810  0.39290  Biso   1.000  H
  H48      1.0000 0.12440  0.14350  0.39230  Biso   1.000  H
  H49      1.0000 0.45760  0.81150  0.24960  Biso   1.000  H
  H50      1.0000 0.45130  0.61550  0.25340  Biso   1.000  H
  H51      1.0000 0.13780  0.57950  0.40750  Biso   1.000  H
  H52      1.0000 0.13580  0.77430  0.40820  Biso   1.000  H
  H53      1.0000 0.21690  0.38590  0.61790  Biso   1.000  H
  H54      1.0000 0.38400  0.40030  0.58620  Biso   1.000  H
  H55      1.0000 0.38440  0.59100  0.55670  Biso   1.000  H
  H56      1.0000 0.20790  0.57870  0.57190  Biso   1.000  H
  C1       1.0000 0.90610  0.13760  0.20910  Biso   1.000  C
  C2       1.0000 0.90780  0.02090  0.21000  Biso   1.000  C
  C3       1.0000 0.79930  0.94520  0.17190  Biso   1.000  C
  C4       1.0000 0.69290  0.99490  0.13390  Biso   1.000  C
  C5       1.0000 0.69770  0.11300  0.13490  Biso   1.000  C
  C6       1.0000 0.79740  0.81800  0.17110  Biso   1.000  C
  C7       1.0000 0.89140  0.76640  0.21750  Biso   1.000  C
  C8       1.0000 0.88680  0.64790  0.21490  Biso   1.000  C
  C9       1.0000 0.70330  0.62670  0.12470  Biso   1.000  C
  C10      1.0000 0.70150  0.74420  0.12400  Biso   1.000  C
  C11      1.0000 0.72170  0.38300  0.99690  Biso   1.000  C
  C12      1.0000 0.78480  0.42340  0.92060  Biso   1.000  C
  C13      1.0000 0.80140  0.55340  0.91190  Biso   1.000  C
  C14      1.0000 0.83350  0.58820  0.83180  Biso   1.000  C
  C15      1.0000 0.59390  0.86240  0.70910  Biso   1.000  C
  C16      1.0000 0.59220  0.97910  0.71000  Biso   1.000  C
  C17      1.0000 0.70070  0.05480  0.67190  Biso   1.000  C
  C18      1.0000 0.80710  0.00510  0.63390  Biso   1.000  C
  C19      1.0000 0.80230  0.88700  0.63490  Biso   1.000  C
  C20      1.0000 0.70260  0.18200  0.67110  Biso   1.000  C
  C21      1.0000 0.60860  0.23360  0.71750  Biso   1.000  C
  C22      1.0000 0.61320  0.35210  0.71490  Biso   1.000  C
  C23      1.0000 0.79670  0.37330  0.62470  Biso   1.000  C
  C24      1.0000 0.79850  0.25580  0.62400  Biso   1.000  C
  C25      1.0000 0.77830  0.61700  0.49690  Biso   1.000  C
  C26      1.0000 0.71520  0.57660  0.42060  Biso   1.000  C
  C27      1.0000 0.69860  0.44660  0.41190  Biso   1.000  C
  C28      1.0000 0.66650  0.41180  0.33180  Biso   1.000  C
  C29      1.0000 0.09390  0.86240  0.79090  Biso   1.000  C
  C30      1.0000 0.09220  0.97910  0.79000  Biso   1.000  C
  C31      1.0000 0.20070  0.05480  0.82810  Biso   1.000  C
  C32      1.0000 0.30710  0.00510  0.86610  Biso   1.000  C
  C33      1.0000 0.30230  0.88700  0.86510  Biso   1.000  C
  C34      1.0000 0.20260  0.18200  0.82890  Biso   1.000  C
  C35      1.0000 0.10860  0.23360  0.78250  Biso   1.000  C
  C36      1.0000 0.11320  0.35210  0.78510  Biso   1.000  C
  C37      1.0000 0.29670  0.37330  0.87530  Biso   1.000  C
  C38      1.0000 0.29850  0.25580  0.87600  Biso   1.000  C
  C39      1.0000 0.27830  0.61700  0.00310  Biso   1.000  C
  C40      1.0000 0.21520  0.57660  0.07940  Biso   1.000  C
  C41      1.0000 0.19860  0.44660  0.08810  Biso   1.000  C
  C42      1.0000 0.16650  0.41180  0.16820  Biso   1.000  C
  C43      1.0000 0.40610  0.13760  0.29090  Biso   1.000  C
  C44      1.0000 0.40780  0.02090  0.29000  Biso   1.000  C
  C45      1.0000 0.29930  0.94520  0.32810  Biso   1.000  C
  C46      1.0000 0.19290  0.99490  0.36610  Biso   1.000  C
  C47      1.0000 0.19770  0.11300  0.36510  Biso   1.000  C
  C48      1.0000 0.29740  0.81800  0.32890  Biso   1.000  C
  C49      1.0000 0.39140  0.76640  0.28250  Biso   1.000  C
  C50      1.0000 0.38680  0.64790  0.28510  Biso   1.000  C
  C51      1.0000 0.20330  0.62670  0.37530  Biso   1.000  C
  C52      1.0000 0.20150  0.74420  0.37600  Biso   1.000  C
  C53      1.0000 0.22170  0.38300  0.50310  Biso   1.000  C
  C54      1.0000 0.28480  0.42340  0.57940  Biso   1.000  C
  C55      1.0000 0.30140  0.55340  0.58810  Biso   1.000  C
  C56      1.0000 0.33350  0.58820  0.66820  Biso   1.000  C
  N1       1.0000 0.80120  0.18530  0.17240  Biso   1.000  N
  N2       1.0000 0.79470  0.57730  0.16940  Biso   1.000  N
  N3       1.0000 0.69880  0.81470  0.67240  Biso   1.000  N
  N4       1.0000 0.70530  0.42270  0.66940  Biso   1.000  N
  N5       1.0000 0.19880  0.81470  0.82760  Biso   1.000  N
  N6       1.0000 0.20530  0.42270  0.83060  Biso   1.000  N
  N7       1.0000 0.30120  0.18530  0.32760  Biso   1.000  N
  N8       1.0000 0.29470  0.57730  0.33060  Biso   1.000  N
  O1       1.0000 0.81540  0.38540  0.04949  Biso   1.000  O
  O2       1.0000 0.58190  0.35110  0.00260  Biso   1.000  O
  O3       1.0000 0.96540  0.58800  0.80597  Biso   1.000  O
  O4       1.0000 0.72540  0.61240  0.79233  Biso   1.000  O
  O5       1.0000 0.55000  0.34100  0.14722  Biso   1.000  O
  O6       1.0000 0.68460  0.61460  0.54949  Biso   1.000  O
  O7       1.0000 0.91810  0.64890  0.50260  Biso   1.000  O
  O8       1.0000 0.53460  0.41200  0.30597  Biso   1.000  O
  O9       1.0000 0.77460  0.38760  0.29233  Biso   1.000  O
  O10      1.0000 0.95000  0.65900  0.64722  Biso   1.000  O
  O11      1.0000 0.18460  0.61460  0.95051  Biso   1.000  O
  O12      1.0000 0.41810  0.64890  0.99740  Biso   1.000  O
  O13      1.0000 0.03460  0.41200  0.19403  Biso   1.000  O
  O14      1.0000 0.27460  0.38760  0.20767  Biso   1.000  O
  O15      1.0000 0.45000  0.65900  0.85278  Biso   1.000  O
  O16      1.0000 0.31540  0.38540  0.45051  Biso   1.000  O
  O17      1.0000 0.08190  0.35110  0.49740  Biso   1.000  O
  O18      1.0000 0.46540  0.58800  0.69403  Biso   1.000  O
  O19      1.0000 0.22540  0.61240  0.70767  Biso   1.000  O
  O20      1.0000 0.05000  0.34100  0.35278  Biso   1.000  O
