data_image0
_cell_length_a       8.852
_cell_length_b       11.686
_cell_length_c       17.847
_cell_angle_alpha    90
_cell_angle_beta     90
_cell_angle_gamma    99.67

_symmetry_space_group_name_H-M    P 1
_symmetry_int_tables_number       1

loop_
  _symmetry_equiv_pos_as_xyz
  'x, y, z'

loop_
  _atom_site_label
  _atom_site_occupancy
  _atom_site_fract_x
  _atom_site_fract_y
  _atom_site_fract_z
  _atom_site_thermal_displace_type
  _atom_site_B_iso_or_equiv
  _atom_site_type_symbol
  Mn1      1.0000 0.79412  0.38127  0.17015  Biso   1.000  Mn
  Mn2      1.0000 0.70588  0.61873  0.67015  Biso   1.000  Mn
  Mn3      1.0000 0.20588  0.61873  0.82985  Biso   1.000  Mn
  Mn4      1.0000 0.29412  0.38127  0.32985  Biso   1.000  Mn
  H1       1.0000 0.98090  0.18700  0.23570  Biso   1.000  H
  H2       1.0000 0.98370  0.99270  0.23710  Biso   1.000  H
  H3       1.0000 0.61610  0.94840  0.10620  Biso   1.000  H
  H4       1.0000 0.62380  0.14410  0.10820  Biso   1.000  H
  H5       1.0000 0.95100  0.61520  0.24690  Biso   1.000  H
  H6       1.0000 0.95830  0.81080  0.25020  Biso   1.000  H
  H7       1.0000 0.63580  0.77470  0.09170  Biso   1.000  H
  H8       1.0000 0.63790  0.57890  0.09310  Biso   1.000  H
  H9       1.0000 0.71900  0.38620  0.88170  Biso   1.000  H
  H10      1.0000 0.88570  0.40140  0.91440  Biso   1.000  H
  H11      1.0000 0.88380  0.59190  0.94390  Biso   1.000  H
  H12      1.0000 0.70710  0.57880  0.92840  Biso   1.000  H
  H13      1.0000 0.48000  0.37200  0.16950  Biso   1.000  H
  H14      1.0000 0.54800  0.35300  0.10400  Biso   1.000  H
  H15      1.0000 0.51910  0.81300  0.73570  Biso   1.000  H
  H16      1.0000 0.51630  0.00730  0.73710  Biso   1.000  H
  H17      1.0000 0.88390  0.05160  0.60620  Biso   1.000  H
  H18      1.0000 0.87620  0.85590  0.60820  Biso   1.000  H
  H19      1.0000 0.54900  0.38480  0.74690  Biso   1.000  H
  H20      1.0000 0.54170  0.18920  0.75020  Biso   1.000  H
  H21      1.0000 0.86420  0.22530  0.59170  Biso   1.000  H
  H22      1.0000 0.86210  0.42110  0.59310  Biso   1.000  H
  H23      1.0000 0.78100  0.61380  0.38170  Biso   1.000  H
  H24      1.0000 0.61430  0.59860  0.41440  Biso   1.000  H
  H25      1.0000 0.61620  0.40810  0.44390  Biso   1.000  H
  H26      1.0000 0.79290  0.42120  0.42840  Biso   1.000  H
  H27      1.0000 0.02000  0.62800  0.66950  Biso   1.000  H
  H28      1.0000 0.95200  0.64700  0.60400  Biso   1.000  H
  H29      1.0000 0.01910  0.81300  0.76430  Biso   1.000  H
  H30      1.0000 0.01630  0.00730  0.76290  Biso   1.000  H
  H31      1.0000 0.38390  0.05160  0.89380  Biso   1.000  H
  H32      1.0000 0.37620  0.85590  0.89180  Biso   1.000  H
  H33      1.0000 0.04900  0.38480  0.75310  Biso   1.000  H
  H34      1.0000 0.04170  0.18920  0.74980  Biso   1.000  H
  H35      1.0000 0.36420  0.22530  0.90830  Biso   1.000  H
  H36      1.0000 0.36210  0.42110  0.90690  Biso   1.000  H
  H37      1.0000 0.28100  0.61380  0.11830  Biso   1.000  H
  H38      1.0000 0.11430  0.59860  0.08560  Biso   1.000  H
  H39      1.0000 0.11620  0.40810  0.05610  Biso   1.000  H
  H40      1.0000 0.29290  0.42120  0.07160  Biso   1.000  H
  H41      1.0000 0.52000  0.62800  0.83050  Biso   1.000  H
  H42      1.0000 0.45200  0.64700  0.89600  Biso   1.000  H
  H43      1.0000 0.48090  0.18700  0.26430  Biso   1.000  H
  H44      1.0000 0.48370  0.99270  0.26290  Biso   1.000  H
  H45      1.0000 0.11610  0.94840  0.39380  Biso   1.000  H
  H46      1.0000 0.12380  0.14410  0.39180  Biso   1.000  H
  H47      1.0000 0.45100  0.61520  0.25310  Biso   1.000  H
  H48      1.0000 0.45830  0.81080  0.24980  Biso   1.000  H
  H49      1.0000 0.13580  0.77470  0.40830  Biso   1.000  H
  H50      1.0000 0.13790  0.57890  0.40690  Biso   1.000  H
  H51      1.0000 0.21900  0.38620  0.61830  Biso   1.000  H
  H52      1.0000 0.38570  0.40140  0.58560  Biso   1.000  H
  H53      1.0000 0.38380  0.59190  0.55610  Biso   1.000  H
  H54      1.0000 0.20710  0.57880  0.57160  Biso   1.000  H
  H55      1.0000 0.98000  0.37200  0.33050  Biso   1.000  H
  H56      1.0000 0.04800  0.35300  0.39600  Biso   1.000  H
  C1       1.0000 0.90550  0.13840  0.20920  Biso   1.000  C
  C2       1.0000 0.90790  0.02110  0.21030  Biso   1.000  C
  C3       1.0000 0.79960  0.94570  0.17216  Biso   1.000  C
  C4       1.0000 0.69230  0.99510  0.13340  Biso   1.000  C
  C5       1.0000 0.69770  0.11330  0.13500  Biso   1.000  C
  C6       1.0000 0.88660  0.64770  0.21510  Biso   1.000  C
  C7       1.0000 0.89140  0.76580  0.21740  Biso   1.000  C
  C8       1.0000 0.79710  0.81810  0.17115  Biso   1.000  C
  C9       1.0000 0.70150  0.74460  0.12410  Biso   1.000  C
  C10      1.0000 0.70350  0.62650  0.12510  Biso   1.000  C
  C11      1.0000 0.72120  0.38270  0.99707  Biso   1.000  C
  C12      1.0000 0.78590  0.42390  0.92070  Biso   1.000  C
  C13      1.0000 0.80110  0.55400  0.91228  Biso   1.000  C
  C14      1.0000 0.83360  0.58900  0.83167  Biso   1.000  C
  C15      1.0000 0.59450  0.86160  0.70920  Biso   1.000  C
  C16      1.0000 0.59210  0.97890  0.71030  Biso   1.000  C
  C17      1.0000 0.70040  0.05430  0.67216  Biso   1.000  C
  C18      1.0000 0.80770  0.00490  0.63340  Biso   1.000  C
  C19      1.0000 0.80230  0.88670  0.63500  Biso   1.000  C
  C20      1.0000 0.61340  0.35230  0.71510  Biso   1.000  C
  C21      1.0000 0.60860  0.23420  0.71740  Biso   1.000  C
  C22      1.0000 0.70290  0.18190  0.67115  Biso   1.000  C
  C23      1.0000 0.79850  0.25540  0.62410  Biso   1.000  C
  C24      1.0000 0.79650  0.37350  0.62510  Biso   1.000  C
  C25      1.0000 0.77880  0.61730  0.49707  Biso   1.000  C
  C26      1.0000 0.71410  0.57610  0.42070  Biso   1.000  C
  C27      1.0000 0.69890  0.44600  0.41228  Biso   1.000  C
  C28      1.0000 0.66640  0.41100  0.33167  Biso   1.000  C
  C29      1.0000 0.09450  0.86160  0.79080  Biso   1.000  C
  C30      1.0000 0.09210  0.97890  0.78970  Biso   1.000  C
  C31      1.0000 0.20040  0.05430  0.82784  Biso   1.000  C
  C32      1.0000 0.30770  0.00490  0.86660  Biso   1.000  C
  C33      1.0000 0.30230  0.88670  0.86500  Biso   1.000  C
  C34      1.0000 0.11340  0.35230  0.78490  Biso   1.000  C
  C35      1.0000 0.10860  0.23420  0.78260  Biso   1.000  C
  C36      1.0000 0.20290  0.18190  0.82885  Biso   1.000  C
  C37      1.0000 0.29850  0.25540  0.87590  Biso   1.000  C
  C38      1.0000 0.29650  0.37350  0.87490  Biso   1.000  C
  C39      1.0000 0.27880  0.61730  0.00293  Biso   1.000  C
  C40      1.0000 0.21410  0.57610  0.07930  Biso   1.000  C
  C41      1.0000 0.19890  0.44600  0.08772  Biso   1.000  C
  C42      1.0000 0.16640  0.41100  0.16833  Biso   1.000  C
  C43      1.0000 0.40550  0.13840  0.29080  Biso   1.000  C
  C44      1.0000 0.40790  0.02110  0.28970  Biso   1.000  C
  C45      1.0000 0.29960  0.94570  0.32784  Biso   1.000  C
  C46      1.0000 0.19230  0.99510  0.36660  Biso   1.000  C
  C47      1.0000 0.19770  0.11330  0.36500  Biso   1.000  C
  C48      1.0000 0.38660  0.64770  0.28490  Biso   1.000  C
  C49      1.0000 0.39140  0.76580  0.28260  Biso   1.000  C
  C50      1.0000 0.29710  0.81810  0.32885  Biso   1.000  C
  C51      1.0000 0.20150  0.74460  0.37590  Biso   1.000  C
  C52      1.0000 0.20350  0.62650  0.37490  Biso   1.000  C
  C53      1.0000 0.22120  0.38270  0.50293  Biso   1.000  C
  C54      1.0000 0.28590  0.42390  0.57930  Biso   1.000  C
  C55      1.0000 0.30110  0.55400  0.58772  Biso   1.000  C
  C56      1.0000 0.33360  0.58900  0.66833  Biso   1.000  C
  N1       1.0000 0.80170  0.18590  0.17237  Biso   1.000  N
  N2       1.0000 0.79480  0.57780  0.16987  Biso   1.000  N
  N3       1.0000 0.69830  0.81410  0.67237  Biso   1.000  N
  N4       1.0000 0.70520  0.42220  0.66987  Biso   1.000  N
  N5       1.0000 0.19830  0.81410  0.82763  Biso   1.000  N
  N6       1.0000 0.20520  0.42220  0.83013  Biso   1.000  N
  N7       1.0000 0.30170  0.18590  0.32763  Biso   1.000  N
  N8       1.0000 0.29480  0.57780  0.33013  Biso   1.000  N
  O1       1.0000 0.81620  0.38580  0.04956  Biso   1.000  O
  O2       1.0000 0.58170  0.35090  0.00255  Biso   1.000  O
  O3       1.0000 0.72570  0.61210  0.79231  Biso   1.000  O
  O4       1.0000 0.96540  0.58800  0.80634  Biso   1.000  O
  O5       1.0000 0.54990  0.34140  0.14738  Biso   1.000  O
  O6       1.0000 0.68380  0.61420  0.54956  Biso   1.000  O
  O7       1.0000 0.91830  0.64910  0.50255  Biso   1.000  O
  O8       1.0000 0.77430  0.38790  0.29231  Biso   1.000  O
  O9       1.0000 0.53460  0.41200  0.30634  Biso   1.000  O
  O10      1.0000 0.95010  0.65860  0.64738  Biso   1.000  O
  O11      1.0000 0.18380  0.61420  0.95044  Biso   1.000  O
  O12      1.0000 0.41830  0.64910  0.99745  Biso   1.000  O
  O13      1.0000 0.27430  0.38790  0.20769  Biso   1.000  O
  O14      1.0000 0.03460  0.41200  0.19366  Biso   1.000  O
  O15      1.0000 0.45010  0.65860  0.85262  Biso   1.000  O
  O16      1.0000 0.31620  0.38580  0.45044  Biso   1.000  O
  O17      1.0000 0.08170  0.35090  0.49745  Biso   1.000  O
  O18      1.0000 0.22570  0.61210  0.70769  Biso   1.000  O
  O19      1.0000 0.46540  0.58800  0.69366  Biso   1.000  O
  O20      1.0000 0.04990  0.34140  0.35262  Biso   1.000  O
