data_image0
_cell_length_a       13.237
_cell_length_b       14.698
_cell_length_c       14.87
_cell_angle_alpha    90
_cell_angle_beta     90
_cell_angle_gamma    90

_symmetry_space_group_name_H-M    P 1
_symmetry_int_tables_number       1

loop_
  _symmetry_equiv_pos_as_xyz
  'x, y, z'

loop_
  _atom_site_label
  _atom_site_occupancy
  _atom_site_fract_x
  _atom_site_fract_y
  _atom_site_fract_z
  _atom_site_thermal_displace_type
  _atom_site_B_iso_or_equiv
  _atom_site_type_symbol
  Cd1      1.0000 0.23831  0.06321  0.61010  Biso   1.000  Cd
  Cd2      1.0000 0.26169  0.56321  0.88990  Biso   1.000  Cd
  Cd3      1.0000 0.76169  0.43679  0.61010  Biso   1.000  Cd
  Cd4      1.0000 0.73831  0.93679  0.88990  Biso   1.000  Cd
  Cd5      1.0000 0.76169  0.93679  0.38990  Biso   1.000  Cd
  Cd6      1.0000 0.73831  0.43679  0.11010  Biso   1.000  Cd
  Cd7      1.0000 0.23831  0.56321  0.38990  Biso   1.000  Cd
  Cd8      1.0000 0.26169  0.06321  0.11010  Biso   1.000  Cd
  Cd9      1.0000 0.00000  0.75000  0.64885  Biso   1.000  Cd
  Cd10     1.0000 0.50000  0.25000  0.85115  Biso   1.000  Cd
  Cd11     1.0000 0.00000  0.25000  0.35115  Biso   1.000  Cd
  Cd12     1.0000 0.50000  0.75000  0.14885  Biso   1.000  Cd
  H1       1.0000 0.45600  0.00090  0.33330  Biso   1.000  H
  H2       1.0000 0.32800  0.86140  0.51910  Biso   1.000  H
  H3       1.0000 0.42080  0.84940  0.37720  Biso   1.000  H
  H4       1.0000 0.35350  0.17590  0.47690  Biso   1.000  H
  H5       1.0000 0.35390  0.16360  0.37220  Biso   1.000  H
  H6       1.0000 0.45620  0.16650  0.42520  Biso   1.000  H
  H7       1.0000 0.04400  0.50090  0.16670  Biso   1.000  H
  H8       1.0000 0.17200  0.36140  0.98090  Biso   1.000  H
  H9       1.0000 0.07920  0.34940  0.12280  Biso   1.000  H
  H10      1.0000 0.14650  0.67590  0.02310  Biso   1.000  H
  H11      1.0000 0.14610  0.66360  0.12780  Biso   1.000  H
  H12      1.0000 0.04380  0.66650  0.07480  Biso   1.000  H
  H13      1.0000 0.54400  0.49910  0.33330  Biso   1.000  H
  H14      1.0000 0.67200  0.63860  0.51910  Biso   1.000  H
  H15      1.0000 0.57920  0.65060  0.37720  Biso   1.000  H
  H16      1.0000 0.64650  0.32410  0.47690  Biso   1.000  H
  H17      1.0000 0.64610  0.33640  0.37220  Biso   1.000  H
  H18      1.0000 0.54380  0.33350  0.42520  Biso   1.000  H
  H19      1.0000 0.95600  0.99910  0.16670  Biso   1.000  H
  H20      1.0000 0.82800  0.13860  0.98090  Biso   1.000  H
  H21      1.0000 0.92080  0.15060  0.12280  Biso   1.000  H
  H22      1.0000 0.85350  0.82410  0.02310  Biso   1.000  H
  H23      1.0000 0.85390  0.83640  0.12780  Biso   1.000  H
  H24      1.0000 0.95620  0.83350  0.07480  Biso   1.000  H
  H25      1.0000 0.54400  0.99910  0.66670  Biso   1.000  H
  H26      1.0000 0.67200  0.13860  0.48090  Biso   1.000  H
  H27      1.0000 0.57920  0.15060  0.62280  Biso   1.000  H
  H28      1.0000 0.64650  0.82410  0.52310  Biso   1.000  H
  H29      1.0000 0.64610  0.83640  0.62780  Biso   1.000  H
  H30      1.0000 0.54380  0.83350  0.57480  Biso   1.000  H
  H31      1.0000 0.95600  0.49910  0.83330  Biso   1.000  H
  H32      1.0000 0.82800  0.63860  0.01910  Biso   1.000  H
  H33      1.0000 0.92080  0.65060  0.87720  Biso   1.000  H
  H34      1.0000 0.85350  0.32410  0.97690  Biso   1.000  H
  H35      1.0000 0.85390  0.33640  0.87220  Biso   1.000  H
  H36      1.0000 0.95620  0.33350  0.92520  Biso   1.000  H
  H37      1.0000 0.45600  0.50090  0.66670  Biso   1.000  H
  H38      1.0000 0.32800  0.36140  0.48090  Biso   1.000  H
  H39      1.0000 0.42080  0.34940  0.62280  Biso   1.000  H
  H40      1.0000 0.35350  0.67590  0.52310  Biso   1.000  H
  H41      1.0000 0.35390  0.66360  0.62780  Biso   1.000  H
  H42      1.0000 0.45620  0.66650  0.57480  Biso   1.000  H
  H43      1.0000 0.04400  0.00090  0.83330  Biso   1.000  H
  H44      1.0000 0.17200  0.86140  0.01910  Biso   1.000  H
  H45      1.0000 0.07920  0.84940  0.87720  Biso   1.000  H
  H46      1.0000 0.14650  0.17590  0.97690  Biso   1.000  H
  H47      1.0000 0.14610  0.16360  0.87220  Biso   1.000  H
  H48      1.0000 0.04380  0.16650  0.92520  Biso   1.000  H
  C1       1.0000 0.15040  0.94070  0.64710  Biso   1.000  C
  C2       1.0000 0.16220  0.64180  0.79990  Biso   1.000  C
  C3       1.0000 0.14560  0.65070  0.48240  Biso   1.000  C
  C4       1.0000 0.38300  0.04640  0.43870  Biso   1.000  C
  C5       1.0000 0.35140  0.90960  0.48430  Biso   1.000  C
  C6       1.0000 0.40280  0.90280  0.40670  Biso   1.000  C
  C7       1.0000 0.38700  0.14700  0.42720  Biso   1.000  C
  C8       1.0000 0.34960  0.44070  0.85290  Biso   1.000  C
  C9       1.0000 0.33780  0.14180  0.70010  Biso   1.000  C
  C10      1.0000 0.35440  0.15070  0.01760  Biso   1.000  C
  C11      1.0000 0.11700  0.54640  0.06130  Biso   1.000  C
  C12      1.0000 0.14860  0.40960  0.01570  Biso   1.000  C
  C13      1.0000 0.09720  0.40280  0.09330  Biso   1.000  C
  C14      1.0000 0.11300  0.64700  0.07280  Biso   1.000  C
  C15      1.0000 0.84960  0.55930  0.64710  Biso   1.000  C
  C16      1.0000 0.83780  0.85820  0.79990  Biso   1.000  C
  C17      1.0000 0.85440  0.84930  0.48240  Biso   1.000  C
  C18      1.0000 0.61700  0.45360  0.43870  Biso   1.000  C
  C19      1.0000 0.64860  0.59040  0.48430  Biso   1.000  C
  C20      1.0000 0.59720  0.59720  0.40670  Biso   1.000  C
  C21      1.0000 0.61300  0.35300  0.42720  Biso   1.000  C
  C22      1.0000 0.65040  0.05930  0.85290  Biso   1.000  C
  C23      1.0000 0.66220  0.35820  0.70010  Biso   1.000  C
  C24      1.0000 0.64560  0.34930  0.01760  Biso   1.000  C
  C25      1.0000 0.88300  0.95360  0.06130  Biso   1.000  C
  C26      1.0000 0.85140  0.09040  0.01570  Biso   1.000  C
  C27      1.0000 0.90280  0.09720  0.09330  Biso   1.000  C
  C28      1.0000 0.88700  0.85300  0.07280  Biso   1.000  C
  C29      1.0000 0.84960  0.05930  0.35290  Biso   1.000  C
  C30      1.0000 0.83780  0.35820  0.20010  Biso   1.000  C
  C31      1.0000 0.85440  0.34930  0.51760  Biso   1.000  C
  C32      1.0000 0.61700  0.95360  0.56130  Biso   1.000  C
  C33      1.0000 0.64860  0.09040  0.51570  Biso   1.000  C
  C34      1.0000 0.59720  0.09720  0.59330  Biso   1.000  C
  C35      1.0000 0.61300  0.85300  0.57280  Biso   1.000  C
  C36      1.0000 0.65040  0.55930  0.14710  Biso   1.000  C
  C37      1.0000 0.66220  0.85820  0.29990  Biso   1.000  C
  C38      1.0000 0.64560  0.84930  0.98240  Biso   1.000  C
  C39      1.0000 0.88300  0.45360  0.93870  Biso   1.000  C
  C40      1.0000 0.85140  0.59040  0.98430  Biso   1.000  C
  C41      1.0000 0.90280  0.59720  0.90670  Biso   1.000  C
  C42      1.0000 0.88700  0.35300  0.92720  Biso   1.000  C
  C43      1.0000 0.15040  0.44070  0.35290  Biso   1.000  C
  C44      1.0000 0.16220  0.14180  0.20010  Biso   1.000  C
  C45      1.0000 0.14560  0.15070  0.51760  Biso   1.000  C
  C46      1.0000 0.38300  0.54640  0.56130  Biso   1.000  C
  C47      1.0000 0.35140  0.40960  0.51570  Biso   1.000  C
  C48      1.0000 0.40280  0.40280  0.59330  Biso   1.000  C
  C49      1.0000 0.38700  0.64700  0.57280  Biso   1.000  C
  C50      1.0000 0.34960  0.94070  0.14710  Biso   1.000  C
  C51      1.0000 0.33780  0.64180  0.29990  Biso   1.000  C
  C52      1.0000 0.35440  0.65070  0.98240  Biso   1.000  C
  C53      1.0000 0.11700  0.04640  0.93870  Biso   1.000  C
  C54      1.0000 0.14860  0.90960  0.98430  Biso   1.000  C
  C55      1.0000 0.09720  0.90280  0.90670  Biso   1.000  C
  C56      1.0000 0.11300  0.14700  0.92720  Biso   1.000  C
  N1       1.0000 0.10290  0.87870  0.65510  Biso   1.000  N
  N2       1.0000 0.10530  0.68040  0.75720  Biso   1.000  N
  N3       1.0000 0.10150  0.68740  0.53550  Biso   1.000  N
  N4       1.0000 0.42250  0.98660  0.38080  Biso   1.000  N
  N5       1.0000 0.33960  0.00020  0.50320  Biso   1.000  N
  N6       1.0000 0.39710  0.37870  0.84490  Biso   1.000  N
  N7       1.0000 0.39470  0.18040  0.74280  Biso   1.000  N
  N8       1.0000 0.39850  0.18740  0.96450  Biso   1.000  N
  N9       1.0000 0.07750  0.48660  0.11920  Biso   1.000  N
  N10      1.0000 0.16040  0.50020  0.99680  Biso   1.000  N
  N11      1.0000 0.89710  0.62130  0.65510  Biso   1.000  N
  N12      1.0000 0.89470  0.81960  0.75720  Biso   1.000  N
  N13      1.0000 0.89850  0.81260  0.53550  Biso   1.000  N
  N14      1.0000 0.57750  0.51340  0.38080  Biso   1.000  N
  N15      1.0000 0.66040  0.49980  0.50320  Biso   1.000  N
  N16      1.0000 0.60290  0.12130  0.84490  Biso   1.000  N
  N17      1.0000 0.60530  0.31960  0.74280  Biso   1.000  N
  N18      1.0000 0.60150  0.31260  0.96450  Biso   1.000  N
  N19      1.0000 0.92250  0.01340  0.11920  Biso   1.000  N
  N20      1.0000 0.83960  0.99980  0.99680  Biso   1.000  N
  N21      1.0000 0.89710  0.12130  0.34490  Biso   1.000  N
  N22      1.0000 0.89470  0.31960  0.24280  Biso   1.000  N
  N23      1.0000 0.89850  0.31260  0.46450  Biso   1.000  N
  N24      1.0000 0.57750  0.01340  0.61920  Biso   1.000  N
  N25      1.0000 0.66040  0.99980  0.49680  Biso   1.000  N
  N26      1.0000 0.60290  0.62130  0.15510  Biso   1.000  N
  N27      1.0000 0.60530  0.81960  0.25720  Biso   1.000  N
  N28      1.0000 0.60150  0.81260  0.03550  Biso   1.000  N
  N29      1.0000 0.92250  0.51340  0.88080  Biso   1.000  N
  N30      1.0000 0.83960  0.49980  0.00320  Biso   1.000  N
  N31      1.0000 0.10290  0.37870  0.34490  Biso   1.000  N
  N32      1.0000 0.10530  0.18040  0.24280  Biso   1.000  N
  N33      1.0000 0.10150  0.18740  0.46450  Biso   1.000  N
  N34      1.0000 0.42250  0.48660  0.61920  Biso   1.000  N
  N35      1.0000 0.33960  0.50020  0.49680  Biso   1.000  N
  N36      1.0000 0.39710  0.87870  0.15510  Biso   1.000  N
  N37      1.0000 0.39470  0.68040  0.25720  Biso   1.000  N
  N38      1.0000 0.39850  0.68740  0.03550  Biso   1.000  N
  N39      1.0000 0.07750  0.98660  0.88080  Biso   1.000  N
  N40      1.0000 0.16040  0.00020  0.00320  Biso   1.000  N
