data_image0
_cell_length_a       9.5211
_cell_length_b       9.9835
_cell_length_c       11.4843
_cell_angle_alpha    96.342
_cell_angle_beta     97.063
_cell_angle_gamma    111.763

_symmetry_space_group_name_H-M    P 1
_symmetry_int_tables_number       1

loop_
  _symmetry_equiv_pos_as_xyz
  'x, y, z'

loop_
  _atom_site_label
  _atom_site_occupancy
  _atom_site_fract_x
  _atom_site_fract_y
  _atom_site_fract_z
  _atom_site_thermal_displace_type
  _atom_site_B_iso_or_equiv
  _atom_site_type_symbol
  Nd1      1.0000 0.71371  0.95488  0.00921  Biso   1.000  Nd
  Nd2      1.0000 0.28629  0.04512  0.99079  Biso   1.000  Nd
  H1       1.0000 0.31910  0.49610  0.02870  Biso   1.000  H
  H2       1.0000 0.19430  0.79330  0.21340  Biso   1.000  H
  H3       1.0000 0.92040  0.36220  0.15710  Biso   1.000  H
  H4       1.0000 0.17120  0.59130  0.41950  Biso   1.000  H
  H5       1.0000 0.25690  0.70690  0.61860  Biso   1.000  H
  H6       1.0000 0.94670  0.89490  0.58620  Biso   1.000  H
  H7       1.0000 0.83220  0.84730  0.31850  Biso   1.000  H
  H8       1.0000 0.73790  0.69620  0.31540  Biso   1.000  H
  H9       1.0000 0.75180  0.91330  0.73620  Biso   1.000  H
  H10      1.0000 0.90240  0.95570  0.80370  Biso   1.000  H
  H11      1.0000 0.48490  0.67880  0.82830  Biso   1.000  H
  H12      1.0000 0.42830  0.80850  0.83760  Biso   1.000  H
  H13      1.0000 0.68090  0.50390  0.97130  Biso   1.000  H
  H14      1.0000 0.80570  0.20670  0.78660  Biso   1.000  H
  H15      1.0000 0.07960  0.63780  0.84290  Biso   1.000  H
  H16      1.0000 0.82880  0.40870  0.58050  Biso   1.000  H
  H17      1.0000 0.74310  0.29310  0.38140  Biso   1.000  H
  H18      1.0000 0.05330  0.10510  0.41380  Biso   1.000  H
  H19      1.0000 0.16780  0.15270  0.68150  Biso   1.000  H
  H20      1.0000 0.26210  0.30380  0.68460  Biso   1.000  H
  H21      1.0000 0.24820  0.08670  0.26380  Biso   1.000  H
  H22      1.0000 0.09760  0.04430  0.19630  Biso   1.000  H
  H23      1.0000 0.51510  0.32120  0.17170  Biso   1.000  H
  H24      1.0000 0.57170  0.19150  0.16240  Biso   1.000  H
  C1       1.0000 0.07760  0.25240  0.02530  Biso   1.000  C
  C2       1.0000 0.11170  0.40720  0.08170  Biso   1.000  C
  C3       1.0000 0.24760  0.51840  0.06980  Biso   1.000  C
  C4       1.0000 0.27820  0.66300  0.11850  Biso   1.000  C
  C5       1.0000 0.42240  0.78270  0.10120  Biso   1.000  C
  C6       1.0000 0.17620  0.69500  0.18240  Biso   1.000  C
  C7       1.0000 0.04840  0.58100  0.19990  Biso   1.000  C
  C8       1.0000 0.01240  0.43820  0.14770  Biso   1.000  C
  C9       1.0000 0.00740  0.67590  0.38550  Biso   1.000  C
  C10      1.0000 0.12590  0.65300  0.45340  Biso   1.000  C
  C11      1.0000 0.17650  0.72200  0.57140  Biso   1.000  C
  C12      1.0000 0.11110  0.81270  0.62110  Biso   1.000  C
  C13      1.0000 0.17180  0.89420  0.74460  Biso   1.000  C
  C14      1.0000 0.99180  0.83320  0.55220  Biso   1.000  C
  C15      1.0000 0.93830  0.76420  0.43430  Biso   1.000  C
  C16      1.0000 0.92240  0.74760  0.97470  Biso   1.000  C
  C17      1.0000 0.88830  0.59280  0.91830  Biso   1.000  C
  C18      1.0000 0.75240  0.48160  0.93020  Biso   1.000  C
  C19      1.0000 0.72180  0.33700  0.88150  Biso   1.000  C
  C20      1.0000 0.57760  0.21730  0.89880  Biso   1.000  C
  C21      1.0000 0.82380  0.30500  0.81760  Biso   1.000  C
  C22      1.0000 0.95160  0.41900  0.80010  Biso   1.000  C
  C23      1.0000 0.98760  0.56180  0.85230  Biso   1.000  C
  C24      1.0000 0.99260  0.32410  0.61450  Biso   1.000  C
  C25      1.0000 0.87410  0.34700  0.54660  Biso   1.000  C
  C26      1.0000 0.82350  0.27800  0.42860  Biso   1.000  C
  C27      1.0000 0.88890  0.18730  0.37890  Biso   1.000  C
  C28      1.0000 0.82820  0.10580  0.25540  Biso   1.000  C
  C29      1.0000 0.00820  0.16680  0.44780  Biso   1.000  C
  C30      1.0000 0.06170  0.23580  0.56570  Biso   1.000  C
  N1       1.0000 0.81170  0.77600  0.36470  Biso   1.000  N
  N2       1.0000 0.18830  0.22400  0.63530  Biso   1.000  N
  O1       1.0000 0.54460  0.76090  0.11040  Biso   1.000  O
  O2       1.0000 0.11960  0.98730  0.78500  Biso   1.000  O
  O3       1.0000 0.18520  0.22770  0.98770  Biso   1.000  O
  O4       1.0000 0.94560  0.15880  0.01880  Biso   1.000  O
  O5       1.0000 0.41650  0.90230  0.07680  Biso   1.000  O
  O6       1.0000 0.94670  0.60970  0.26790  Biso   1.000  O
  O7       1.0000 0.27740  0.87370  0.80970  Biso   1.000  O
  O8       1.0000 0.80610  0.94130  0.81110  Biso   1.000  O
  O9       1.0000 0.50450  0.77570  0.85200  Biso   1.000  O
  O10      1.0000 0.45540  0.23910  0.88960  Biso   1.000  O
  O11      1.0000 0.88040  0.01270  0.21500  Biso   1.000  O
  O12      1.0000 0.81480  0.77230  0.01230  Biso   1.000  O
  O13      1.0000 0.05440  0.84120  0.98120  Biso   1.000  O
  O14      1.0000 0.58350  0.09770  0.92320  Biso   1.000  O
  O15      1.0000 0.05330  0.39030  0.73210  Biso   1.000  O
  O16      1.0000 0.72260  0.12630  0.19030  Biso   1.000  O
  O17      1.0000 0.19390  0.05870  0.18890  Biso   1.000  O
  O18      1.0000 0.49550  0.22430  0.14800  Biso   1.000  O
