data_image0
_cell_length_a       9.6047
_cell_length_b       10.0427
_cell_length_c       11.4589
_cell_angle_alpha    96.126
_cell_angle_beta     97.2065
_cell_angle_gamma    111.859

_symmetry_space_group_name_H-M    P 1
_symmetry_int_tables_number       1

loop_
  _symmetry_equiv_pos_as_xyz
  'x, y, z'

loop_
  _atom_site_label
  _atom_site_occupancy
  _atom_site_fract_x
  _atom_site_fract_y
  _atom_site_fract_z
  _atom_site_thermal_displace_type
  _atom_site_B_iso_or_equiv
  _atom_site_type_symbol
  Ce1      1.0000 0.71324  0.95492  0.00822  Biso   1.000  Ce
  Ce2      1.0000 0.28676  0.04508  0.99178  Biso   1.000  Ce
  H1       1.0000 0.68230  0.50510  0.97370  Biso   1.000  H
  H2       1.0000 0.80400  0.21040  0.78810  Biso   1.000  H
  H3       1.0000 0.07770  0.63840  0.84460  Biso   1.000  H
  H4       1.0000 0.82900  0.40960  0.58140  Biso   1.000  H
  H5       1.0000 0.74580  0.29680  0.38220  Biso   1.000  H
  H6       1.0000 0.05020  0.10720  0.41830  Biso   1.000  H
  H7       1.0000 0.16780  0.15270  0.68150  Biso   1.000  H
  H8       1.0000 0.26210  0.30380  0.68460  Biso   1.000  H
  H9       1.0000 0.75180  0.91330  0.73620  Biso   1.000  H
  H10      1.0000 0.90240  0.95570  0.80370  Biso   1.000  H
  H11      1.0000 0.48490  0.67880  0.82830  Biso   1.000  H
  H12      1.0000 0.42830  0.80850  0.83760  Biso   1.000  H
  H13      1.0000 0.31770  0.49490  0.02630  Biso   1.000  H
  H14      1.0000 0.19600  0.78960  0.21190  Biso   1.000  H
  H15      1.0000 0.92230  0.36160  0.15540  Biso   1.000  H
  H16      1.0000 0.17100  0.59040  0.41860  Biso   1.000  H
  H17      1.0000 0.25420  0.70320  0.61780  Biso   1.000  H
  H18      1.0000 0.94980  0.89280  0.58170  Biso   1.000  H
  H19      1.0000 0.83220  0.84730  0.31850  Biso   1.000  H
  H20      1.0000 0.73790  0.69620  0.31540  Biso   1.000  H
  H21      1.0000 0.24820  0.08670  0.26380  Biso   1.000  H
  H22      1.0000 0.09760  0.04430  0.19630  Biso   1.000  H
  H23      1.0000 0.51510  0.32120  0.17170  Biso   1.000  H
  H24      1.0000 0.57170  0.19150  0.16240  Biso   1.000  H
  C1       1.0000 0.92180  0.74700  0.97740  Biso   1.000  C
  C2       1.0000 0.88690  0.59320  0.92050  Biso   1.000  C
  C3       1.0000 0.75250  0.48300  0.93200  Biso   1.000  C
  C4       1.0000 0.72050  0.33970  0.88260  Biso   1.000  C
  C5       1.0000 0.42200  0.77890  0.10120  Biso   1.000  C
  C6       1.0000 0.82230  0.30820  0.81910  Biso   1.000  C
  C7       1.0000 0.94980  0.42110  0.80200  Biso   1.000  C
  C8       1.0000 0.98630  0.56290  0.85400  Biso   1.000  C
  C9       1.0000 0.99100  0.32630  0.61740  Biso   1.000  C
  C10      1.0000 0.87430  0.34850  0.54800  Biso   1.000  C
  C11      1.0000 0.82460  0.28110  0.43010  Biso   1.000  C
  C12      1.0000 0.88960  0.19080  0.38180  Biso   1.000  C
  C13      1.0000 0.82960  0.10950  0.25730  Biso   1.000  C
  C14      1.0000 0.00630  0.16950  0.45170  Biso   1.000  C
  C15      1.0000 0.05930  0.23810  0.56930  Biso   1.000  C
  C16      1.0000 0.07820  0.25300  0.02260  Biso   1.000  C
  C17      1.0000 0.11310  0.40680  0.07950  Biso   1.000  C
  C18      1.0000 0.24750  0.51700  0.06800  Biso   1.000  C
  C19      1.0000 0.27950  0.66030  0.11740  Biso   1.000  C
  C20      1.0000 0.57800  0.22110  0.89880  Biso   1.000  C
  C21      1.0000 0.17770  0.69180  0.18090  Biso   1.000  C
  C22      1.0000 0.05020  0.57890  0.19800  Biso   1.000  C
  C23      1.0000 0.01370  0.43710  0.14600  Biso   1.000  C
  C24      1.0000 0.00900  0.67370  0.38260  Biso   1.000  C
  C25      1.0000 0.12570  0.65150  0.45200  Biso   1.000  C
  C26      1.0000 0.17540  0.71890  0.56990  Biso   1.000  C
  C27      1.0000 0.11040  0.80920  0.61820  Biso   1.000  C
  C28      1.0000 0.17040  0.89050  0.74270  Biso   1.000  C
  C29      1.0000 0.99370  0.83050  0.54830  Biso   1.000  C
  C30      1.0000 0.94070  0.76190  0.43070  Biso   1.000  C
  N1       1.0000 0.18210  0.22510  0.64030  Biso   1.000  N
  N2       1.0000 0.81790  0.77490  0.35970  Biso   1.000  N
  O1       1.0000 0.54370  0.75730  0.10990  Biso   1.000  O
  O2       1.0000 0.88180  0.01760  0.21770  Biso   1.000  O
  O3       1.0000 0.81700  0.77350  0.01690  Biso   1.000  O
  O4       1.0000 0.94610  0.15940  0.01610  Biso   1.000  O
  O5       1.0000 0.41920  0.89970  0.07770  Biso   1.000  O
  O6       1.0000 0.05060  0.39220  0.73460  Biso   1.000  O
  O7       1.0000 0.72440  0.12970  0.19210  Biso   1.000  O
  O8       1.0000 0.80670  0.93740  0.80810  Biso   1.000  O
  O9       1.0000 0.50200  0.77420  0.84810  Biso   1.000  O
  O10      1.0000 0.45630  0.24270  0.89010  Biso   1.000  O
  O11      1.0000 0.11820  0.98240  0.78230  Biso   1.000  O
  O12      1.0000 0.18300  0.22650  0.98310  Biso   1.000  O
  O13      1.0000 0.05390  0.84060  0.98390  Biso   1.000  O
  O14      1.0000 0.58080  0.10030  0.92230  Biso   1.000  O
  O15      1.0000 0.94940  0.60780  0.26540  Biso   1.000  O
  O16      1.0000 0.27560  0.87030  0.80790  Biso   1.000  O
  O17      1.0000 0.19330  0.06260  0.19190  Biso   1.000  O
  O18      1.0000 0.49800  0.22580  0.15190  Biso   1.000  O
