data_EWEWUZ_charged
_audit_creation_date              2014-07-02
_audit_creation_method            'Materials Studio'
_symmetry_space_group_name_H-M    'P1'
_symmetry_Int_Tables_number       1
_symmetry_cell_setting            triclinic
loop_
_symmetry_equiv_pos_as_xyz
  x,y,z
_cell_length_a                    8.0506
_cell_length_b                    18.6868
_cell_length_c                    18.8259
_cell_angle_alpha                 119.1780
_cell_angle_beta                  102.3460
_cell_angle_gamma                 90.0000
loop_
_atom_site_label
_atom_site_type_symbol
_atom_site_fract_x
_atom_site_fract_y
_atom_site_fract_z
_atom_site_U_iso_or_equiv
_atom_site_adp_type
_atom_site_occupancy
Fe1    Fe    0.95210   0.18820   0.78680   0.01267  Uiso   1.00
Fe2    Fe    0.56570   0.37930   0.01160   0.01267  Uiso   1.00
Fe3    Fe    0.83470   0.68820   0.78680   0.01267  Uiso   1.00
Fe4    Fe    0.44590   0.87930   0.01160   0.01267  Uiso   1.00
Ag1    Ag    0.20420   0.16940   0.16860   0.01267  Uiso   1.00
Ag2    Ag    0.43720   0.39450   0.63040   0.01267  Uiso   1.00
Ag3    Ag    0.96440   0.66940   0.16860   0.01267  Uiso   1.00
Ag4    Ag    0.19320   0.89450   0.63040   0.01267  Uiso   1.00
H1     H     0.17560   0.38190   0.47860   0.01267  Uiso   1.00
H2     H     0.57370   0.26240   0.46860   0.01267  Uiso   1.00
H3     H     0.49830   0.20000   0.32580   0.01267  Uiso   1.00
H4     H     0.31480   0.29500   0.71100   0.01267  Uiso   1.00
H5     H     0.72370   0.45400   0.79560   0.01267  Uiso   1.00
H6     H     0.76330   0.46630   0.92340   0.01267  Uiso   1.00
H7     H     0.59250   0.91570   0.61460   0.01267  Uiso   1.00
H8     H     0.30110   0.08650   0.71660   0.01267  Uiso   1.00
H9     H     0.53090   0.18500   0.78120   0.01267  Uiso   1.00
H10    H     0.99260   0.26300   0.08260   0.01267  Uiso   1.00
H11    H     0.32420   0.11010   0.99140   0.01267  Uiso   1.00
H12    H     0.23810   0.10710   0.86620   0.01267  Uiso   1.00
H13    H     0.37060   0.65190   0.18920   0.01267  Uiso   1.00
H14    H     0.98170   0.47410   0.06880   0.01267  Uiso   1.00
H15    H     0.16010   0.38180   0.00560   0.01267  Uiso   1.00
H16    H     0.63300   0.22370   0.05640   0.01267  Uiso   1.00
H17    H     0.53840   0.24650   0.13020   0.01267  Uiso   1.00
H18    H     0.72290   0.29380   0.15040   0.01267  Uiso   1.00
H19    H     0.97950   0.32980   0.74740   0.01267  Uiso   1.00
H20    H     0.81310   0.31400   0.67520   0.01267  Uiso   1.00
H21    H     0.98020   0.27150   0.65080   0.01267  Uiso   1.00
H22    H     0.51260   0.36690   0.13920   0.01267  Uiso   1.00
H23    H     0.30300   0.88190   0.47860   0.01267  Uiso   1.00
H24    H     0.89490   0.76240   0.46860   0.01267  Uiso   1.00
H25    H     0.82750   0.70000   0.32580   0.01267  Uiso   1.00
H26    H     0.39620   0.79500   0.71100   0.01267  Uiso   1.00
H27    H     0.07190   0.95400   0.79560   0.01267  Uiso   1.00
H28    H     0.16010   0.96630   0.92340   0.01267  Uiso   1.00
H29    H     0.02210   0.41570   0.61460   0.01267  Uiso   1.00
H30    H     0.41550   0.58650   0.71660   0.01267  Uiso   1.00
H31    H     0.25030   0.68500   0.78120   0.01267  Uiso   1.00
H32    H     0.09000   0.76300   0.08260   0.01267  Uiso   1.00
H33    H     0.66720   0.61010   0.99140   0.01267  Uiso   1.00
H34    H     0.62810   0.60710   0.86620   0.01267  Uiso   1.00
H35    H     0.81860   0.15190   0.18920   0.01267  Uiso   1.00
H36    H     0.08710   0.97410   0.06880   0.01267  Uiso   1.00
H37    H     0.84550   0.88180   0.00560   0.01267  Uiso   1.00
H38    H     0.42340   0.72370   0.05640   0.01267  Uiso   1.00
H39    H     0.59180   0.74650   0.13020   0.01267  Uiso   1.00
H40    H     0.42750   0.79380   0.15040   0.01267  Uiso   1.00
H41    H     0.76790   0.82980   0.74740   0.01267  Uiso   1.00
H42    H     0.86210   0.81400   0.67520   0.01267  Uiso   1.00
H43    H     0.67060   0.77150   0.65080   0.01267  Uiso   1.00
H44    H     0.62660   0.86690   0.13920   0.01267  Uiso   1.00
C1     C     0.20650   0.31170   0.36060   0.01267  Uiso   1.00
C2     C     0.24630   0.34410   0.44780   0.01267  Uiso   1.00
C3     C     0.47210   0.27460   0.44220   0.01267  Uiso   1.00
C4     C     0.43040   0.23990   0.35680   0.01267  Uiso   1.00
C5     C     0.05480   0.33070   0.31360   0.01267  Uiso   1.00
C6     C     0.43280   0.33830   0.83360   0.01267  Uiso   1.00
C7     C     0.40920   0.33120   0.75440   0.01267  Uiso   1.00
C8     C     0.64470   0.42250   0.80340   0.01267  Uiso   1.00
C9     C     0.66810   0.43000   0.88020   0.01267  Uiso   1.00
C10    C     0.31150   0.29080   0.85100   0.01267  Uiso   1.00
C11    C     0.71810   0.03110   0.68820   0.01267  Uiso   1.00
C12    C     0.57660   0.97160   0.64920   0.01267  Uiso   1.00
C13    C     0.41000   0.07020   0.70800   0.01267  Uiso   1.00
C14    C     0.54740   0.12920   0.74680   0.01267  Uiso   1.00
C15    C     0.89180   0.01450   0.66960   0.01267  Uiso   1.00
C16    C     0.99130   0.22920   0.96260   0.01267  Uiso   1.00
C17    C     0.04520   0.23020   0.03840   0.01267  Uiso   1.00
C18    C     0.23660   0.14190   0.98520   0.01267  Uiso   1.00
C19    C     0.18530   0.13990   0.91060   0.01267  Uiso   1.00
C20    C     0.86530   0.28390   0.94860   0.01267  Uiso   1.00
C21    C     0.43510   0.53910   0.11220   0.01267  Uiso   1.00
C22    C     0.32550   0.59570   0.15100   0.01267  Uiso   1.00
C23    C     0.09960   0.49260   0.08120   0.01267  Uiso   1.00
C24    C     0.20580   0.43780   0.04360   0.01267  Uiso   1.00
C25    C     0.62140   0.56160   0.12280   0.01267  Uiso   1.00
C26    C     0.61340   0.26900   0.10880   0.01267  Uiso   1.00
C27    C     0.90990   0.28910   0.69180   0.01267  Uiso   1.00
C28    C     0.15410   0.81170   0.36060   0.01267  Uiso   1.00
C29    C     0.20150   0.84410   0.44780   0.01267  Uiso   1.00
C30    C     0.97010   0.77460   0.44220   0.01267  Uiso   1.00
C31    C     0.92640   0.73990   0.35680   0.01267  Uiso   1.00
C32    C     0.25880   0.83070   0.31360   0.01267  Uiso   1.00
C33    C     0.40080   0.83830   0.83360   0.01267  Uiso   1.00
C34    C     0.34520   0.83120   0.75440   0.01267  Uiso   1.00
C35    C     0.15870   0.92250   0.80340   0.01267  Uiso   1.00
C36    C     0.21210   0.93000   0.88020   0.01267  Uiso   1.00
C37    C     0.53950   0.79080   0.85100   0.01267  Uiso   1.00
C38    C     0.97010   0.53110   0.68820   0.01267  Uiso   1.00
C39    C     0.07260   0.47160   0.64920   0.01267  Uiso   1.00
C40    C     0.29800   0.57020   0.70800   0.01267  Uiso   1.00
C41    C     0.19940   0.62920   0.74680   0.01267  Uiso   1.00
C42    C     0.77780   0.51450   0.66960   0.01267  Uiso   1.00
C43    C     0.97130   0.72920   0.96260   0.01267  Uiso   1.00
C44    C     0.99320   0.73020   0.03840   0.01267  Uiso   1.00
C45    C     0.74860   0.64190   0.98520   0.01267  Uiso   1.00
C46    C     0.72530   0.63990   0.91060   0.01267  Uiso   1.00
C47    C     0.08330   0.78390   0.94860   0.01267  Uiso   1.00
C48    C     0.67710   0.03910   0.11220   0.01267  Uiso   1.00
C49    C     0.82550   0.09570   0.15100   0.01267  Uiso   1.00
C50    C     0.98160   0.99260   0.08120   0.01267  Uiso   1.00
C51    C     0.83780   0.93780   0.04360   0.01267  Uiso   1.00
C52    C     0.50140   0.06160   0.12280   0.01267  Uiso   1.00
C53    C     0.49540   0.76900   0.10880   0.01267  Uiso   1.00
C54    C     0.78190   0.78910   0.69180   0.01267  Uiso   1.00
N1     N     0.29650   0.25950   0.31360   0.01267  Uiso   1.00
N2     N     0.37480   0.32550   0.48960   0.01267  Uiso   1.00
N3     N     0.56310   0.38780   0.89820   0.01267  Uiso   1.00
N4     N     0.51460   0.37290   0.73720   0.01267  Uiso   1.00
N5     N     0.70699   0.11140   0.73798   0.01267  Uiso   1.00
N6     N     0.42110   0.98970   0.65820   0.01267  Uiso   1.00
N7     N     0.06030   0.18440   0.89860   0.01267  Uiso   1.00
N8     N     0.16740   0.18700   0.05080   0.01267  Uiso   1.00
N9     N     0.37707   0.45950   0.05814   0.01267  Uiso   1.00
N10    N     0.15780   0.57250   0.13560   0.01267  Uiso   1.00
N11    N     0.01710   0.75950   0.31360   0.01267  Uiso   1.00
N12    N     0.11480   0.82550   0.48960   0.01267  Uiso   1.00
N13    N     0.33510   0.88780   0.89820   0.01267  Uiso   1.00
N14    N     0.22260   0.87290   0.73720   0.01267  Uiso   1.00
N15    N     0.03099   0.61140   0.73798   0.01267  Uiso   1.00
N16    N     0.23710   0.48970   0.65820   0.01267  Uiso   1.00
N17    N     0.83830   0.68440   0.89860   0.01267  Uiso   1.00
N18    N     0.88340   0.68700   0.05080   0.01267  Uiso   1.00
N19    N     0.68107   0.95950   0.05814   0.01267  Uiso   1.00
N20    N     0.97780   0.07250   0.13560   0.01267  Uiso   1.00
O1     O     0.02010   0.40330   0.37420   0.01267  Uiso   1.00
O2     O     0.01540   0.29460   0.23880   0.01267  Uiso   1.00
O3     O     0.35780   0.29250   0.92360   0.01267  Uiso   1.00
O4     O     0.19110   0.23800   0.78620   0.01267  Uiso   1.00
O5     O     0.91210   0.93660   0.63820   0.01267  Uiso   1.00
O6     O     0.00520   0.07500   0.71240   0.01267  Uiso   1.00
O7     O     0.84070   0.27700   0.87940   0.01267  Uiso   1.00
O8     O     0.78330   0.31740   0.00060   0.01267  Uiso   1.00
O9     O     0.70490   0.50150   0.08780   0.01267  Uiso   1.00
O10    O     0.68620   0.63250   0.17440   0.01267  Uiso   1.00
O11    O     0.53140   0.33110   0.09280   0.01267  Uiso   1.00
O12    O     0.84530   0.21750   0.69460   0.01267  Uiso   1.00
O13    O     0.35410   0.90330   0.37420   0.01267  Uiso   1.00
O14    O     0.22340   0.79460   0.23880   0.01267  Uiso   1.00
O15    O     0.56580   0.79250   0.92360   0.01267  Uiso   1.00
O16    O     0.59510   0.73800   0.78620   0.01267  Uiso   1.00
O17    O     0.72610   0.43660   0.63820   0.01267  Uiso   1.00
O18    O     0.70720   0.57500   0.71240   0.01267  Uiso   1.00
O19    O     0.03870   0.77700   0.87940   0.01267  Uiso   1.00
O20    O     0.21730   0.81740   0.00060   0.01267  Uiso   1.00
O21    O     0.38290   0.00150   0.08780   0.01267  Uiso   1.00
O22    O     0.48820   0.13250   0.17440   0.01267  Uiso   1.00
O23    O     0.56140   0.83110   0.09280   0.01267  Uiso   1.00
O24    O     0.84930   0.71750   0.69460   0.01267  Uiso   1.00
Cl1    Cl    0.19670   0.53390   0.89540   0.01267  Uiso   1.00
O25    O     0.24560   0.62620   0.90640   0.01267  Uiso   1.00
O26    O     0.07880   0.54580   0.93760   0.01267  Uiso   1.00
O27    O     0.36220   0.53020   0.94540   0.01267  Uiso   1.00
O28    O     0.17580   0.48580   0.81760   0.01267  Uiso   1.00
Cl2    Cl    0.49430   0.68930   0.40000   0.01267  Uiso   1.00
O29    O     0.49430   0.73820   0.35460   0.01267  Uiso   1.00
O30    O     0.56280   0.73340   0.47960   0.01267  Uiso   1.00
O31    O     0.59900   0.62800   0.37200   0.01267  Uiso   1.00
O32    O     0.30890   0.65020   0.37180   0.01267  Uiso   1.00
Cl3    Cl    0.69870   0.03390   0.89540   0.01267  Uiso   1.00
O33    O     0.66080   0.12620   0.90640   0.01267  Uiso   1.00
O34    O     0.85880   0.04580   0.93760   0.01267  Uiso   1.00
O35    O     0.58320   0.03020   0.94540   0.01267  Uiso   1.00
O36    O     0.64180   0.98580   0.81760   0.01267  Uiso   1.00
Cl4    Cl    0.90570   0.18930   0.40000   0.01267  Uiso   1.00
O37    O     0.86030   0.23820   0.35460   0.01267  Uiso   1.00
O38    O     0.91680   0.23340   0.47960   0.01267  Uiso   1.00
O39    O     0.77300   0.12800   0.37200   0.01267  Uiso   1.00
O40    O     0.06290   0.15020   0.37180   0.01267  Uiso   1.00
