data_image0
_cell_length_a       18.389
_cell_length_b       18.389
_cell_length_c       17.969
_cell_angle_alpha    90
_cell_angle_beta     90
_cell_angle_gamma    120

_symmetry_space_group_name_H-M    "P 1"
_symmetry_int_tables_number       1

loop_
  _symmetry_equiv_pos_as_xyz
  'x, y, z'

loop_
  _atom_site_label
  _atom_site_occupancy
  _atom_site_fract_x
  _atom_site_fract_y
  _atom_site_fract_z
  _atom_site_thermal_displace_type
  _atom_site_B_iso_or_equiv
  _atom_site_type_symbol
  Zn1      1.0000 0.75691  0.65858  0.33316  Biso   1.000  Zn
  O1       1.0000 0.78770  0.71860  0.42930  Biso   1.000  O
  O2       1.0000 0.76030  0.55680  0.34990  Biso   1.000  O
  O3       1.0000 0.87990  0.72900  0.76690  Biso   1.000  O
  C1       1.0000 0.69170  0.50370  0.37070  Biso   1.000  C
  O4       1.0000 0.61540  0.52640  0.18410  Biso   1.000  O
  O5       1.0000 0.90700  0.68440  0.66270  Biso   1.000  O
  O6       1.0000 0.63110  0.51300  0.38090  Biso   1.000  O
  C2       1.0000 0.67750  0.41320  0.37700  Biso   1.000  C
  C3       1.0000 0.57900  0.46310  0.14800  Biso   1.000  C
  C4       1.0000 0.82210  0.74630  0.57760  Biso   1.000  C
  C5       1.0000 0.74740  0.40100  0.37720  Biso   1.000  C
  H1       1.0000 0.57890  0.48250  0.09980  Biso   1.000  H
  N1       1.0000 0.54100  0.38740  0.14170  Biso   1.000  N
  H2       1.0000 0.84430  0.71760  0.55130  Biso   1.000  H
  C6       1.0000 0.83350  0.75660  0.65400  Biso   1.000  C
  H3       1.0000 0.80210  0.44750  0.37750  Biso   1.000  H
  C7       1.0000 0.49200  0.33800  0.07800  Biso   1.000  C
  C8       1.0000 0.49000  0.33800  0.20100  Biso   1.000  C
  C9       1.0000 0.87700  0.72180  0.69680  Biso   1.000  C
  H4       1.0000 0.73670  0.78640  0.90630  Biso   1.000  H
  H5       1.0000 0.59510  0.54530  0.92880  Biso   1.000  H
  H6       1.0000 0.46920  0.27840  0.08900  Biso   1.000  H
  H7       1.0000 0.44590  0.34820  0.06950  Biso   1.000  H
  H8       1.0000 0.52710  0.35280  0.03450  Biso   1.000  H
  H9       1.0000 0.46390  0.27890  0.18800  Biso   1.000  H
  H10      1.0000 0.52350  0.34870  0.24550  Biso   1.000  H
  H11      1.0000 0.44620  0.35190  0.21020  Biso   1.000  H
  Zn2      1.0000 0.34142  0.09833  0.33316  Biso   1.000  Zn
  O7       1.0000 0.28140  0.06910  0.42930  Biso   1.000  O
  O8       1.0000 0.44320  0.20350  0.34990  Biso   1.000  O
  O9       1.0000 0.27100  0.15090  0.76690  Biso   1.000  O
  C10      1.0000 0.49630  0.18800  0.37070  Biso   1.000  C
  O10      1.0000 0.47360  0.08900  0.18410  Biso   1.000  O
  O11      1.0000 0.31560  0.22260  0.66270  Biso   1.000  O
  O12      1.0000 0.48700  0.11810  0.38090  Biso   1.000  O
  C11      1.0000 0.58680  0.26430  0.37700  Biso   1.000  C
  C12      1.0000 0.53690  0.11590  0.14800  Biso   1.000  C
  C13      1.0000 0.25370  0.07580  0.57760  Biso   1.000  C
  C14      1.0000 0.59900  0.34640  0.37720  Biso   1.000  C
  H12      1.0000 0.51750  0.09640  0.09980  Biso   1.000  H
  N2       1.0000 0.61260  0.15360  0.14170  Biso   1.000  N
  H13      1.0000 0.28240  0.12670  0.55130  Biso   1.000  H
  C15      1.0000 0.24340  0.07690  0.65400  Biso   1.000  C
  H14      1.0000 0.55250  0.35460  0.37750  Biso   1.000  H
  C16      1.0000 0.66200  0.15400  0.07800  Biso   1.000  C
  C17      1.0000 0.66200  0.15200  0.20100  Biso   1.000  C
  C18      1.0000 0.27820  0.15520  0.69680  Biso   1.000  C
  H15      1.0000 0.21360  0.95030  0.90630  Biso   1.000  H
  H16      1.0000 0.45470  0.04980  0.92880  Biso   1.000  H
  H17      1.0000 0.72160  0.19080  0.08900  Biso   1.000  H
  H18      1.0000 0.65180  0.09770  0.06950  Biso   1.000  H
  H19      1.0000 0.64720  0.17430  0.03450  Biso   1.000  H
  H20      1.0000 0.72110  0.18500  0.18800  Biso   1.000  H
  H21      1.0000 0.65130  0.17480  0.24550  Biso   1.000  H
  H22      1.0000 0.64810  0.09430  0.21020  Biso   1.000  H
  Zn3      1.0000 0.90167  0.24309  0.33316  Biso   1.000  Zn
  O13      1.0000 0.93090  0.21230  0.42930  Biso   1.000  O
  O14      1.0000 0.79650  0.23970  0.34990  Biso   1.000  O
  O15      1.0000 0.84910  0.12010  0.76690  Biso   1.000  O
  C19      1.0000 0.81200  0.30830  0.37070  Biso   1.000  C
  O16      1.0000 0.91100  0.38460  0.18410  Biso   1.000  O
  O17      1.0000 0.77740  0.09300  0.66270  Biso   1.000  O
  O18      1.0000 0.88190  0.36890  0.38090  Biso   1.000  O
  C20      1.0000 0.73570  0.32250  0.37700  Biso   1.000  C
  C21      1.0000 0.88410  0.42100  0.14800  Biso   1.000  C
  C22      1.0000 0.92420  0.17790  0.57760  Biso   1.000  C
  C23      1.0000 0.65360  0.25260  0.37720  Biso   1.000  C
  H23      1.0000 0.90360  0.42110  0.09980  Biso   1.000  H
  N3       1.0000 0.84640  0.45900  0.14170  Biso   1.000  N
  H24      1.0000 0.87330  0.15570  0.55130  Biso   1.000  H
  C24      1.0000 0.92310  0.16650  0.65400  Biso   1.000  C
  H25      1.0000 0.64540  0.19790  0.37750  Biso   1.000  H
  C25      1.0000 0.84600  0.50800  0.07800  Biso   1.000  C
  C26      1.0000 0.84800  0.51000  0.20100  Biso   1.000  C
  C27      1.0000 0.84480  0.12300  0.69680  Biso   1.000  C
  H26      1.0000 0.04970  0.26330  0.90630  Biso   1.000  H
  H27      1.0000 0.95020  0.40490  0.92880  Biso   1.000  H
  H28      1.0000 0.80920  0.53080  0.08900  Biso   1.000  H
  H29      1.0000 0.90230  0.55410  0.06950  Biso   1.000  H
  H30      1.0000 0.82570  0.47290  0.03450  Biso   1.000  H
  H31      1.0000 0.81500  0.53610  0.18800  Biso   1.000  H
  H32      1.0000 0.82520  0.47650  0.24550  Biso   1.000  H
  H33      1.0000 0.90570  0.55380  0.21020  Biso   1.000  H
  Zn4      1.0000 0.24309  0.34142  0.83316  Biso   1.000  Zn
  O19      1.0000 0.21230  0.28140  0.92930  Biso   1.000  O
  O20      1.0000 0.23970  0.44320  0.84990  Biso   1.000  O
  O21      1.0000 0.12010  0.27100  0.26690  Biso   1.000  O
  C28      1.0000 0.30830  0.49630  0.87070  Biso   1.000  C
  O22      1.0000 0.38460  0.47360  0.68410  Biso   1.000  O
  O23      1.0000 0.09300  0.31560  0.16270  Biso   1.000  O
  O24      1.0000 0.36890  0.48700  0.88090  Biso   1.000  O
  C29      1.0000 0.32250  0.58680  0.87700  Biso   1.000  C
  C30      1.0000 0.42100  0.53690  0.64800  Biso   1.000  C
  C31      1.0000 0.17790  0.25370  0.07760  Biso   1.000  C
  C32      1.0000 0.25260  0.59900  0.87720  Biso   1.000  C
  H34      1.0000 0.42110  0.51750  0.59980  Biso   1.000  H
  N4       1.0000 0.45900  0.61260  0.64170  Biso   1.000  N
  H35      1.0000 0.15570  0.28240  0.05130  Biso   1.000  H
  C33      1.0000 0.16650  0.24340  0.15400  Biso   1.000  C
  H36      1.0000 0.19790  0.55250  0.87750  Biso   1.000  H
  C34      1.0000 0.50800  0.66200  0.57800  Biso   1.000  C
  C35      1.0000 0.51000  0.66200  0.70100  Biso   1.000  C
  C36      1.0000 0.12300  0.27820  0.19680  Biso   1.000  C
  H37      1.0000 0.26330  0.21360  0.40630  Biso   1.000  H
  H38      1.0000 0.40490  0.45470  0.42880  Biso   1.000  H
  H39      1.0000 0.53080  0.72160  0.58900  Biso   1.000  H
  H40      1.0000 0.55410  0.65180  0.56950  Biso   1.000  H
  H41      1.0000 0.47290  0.64720  0.53450  Biso   1.000  H
  H42      1.0000 0.53610  0.72110  0.68800  Biso   1.000  H
  H43      1.0000 0.47650  0.65130  0.74550  Biso   1.000  H
  H44      1.0000 0.55380  0.64810  0.71020  Biso   1.000  H
  Zn5      1.0000 0.65858  0.90167  0.83316  Biso   1.000  Zn
  O25      1.0000 0.71860  0.93090  0.92930  Biso   1.000  O
  O26      1.0000 0.55680  0.79650  0.84990  Biso   1.000  O
  O27      1.0000 0.72900  0.84910  0.26690  Biso   1.000  O
  C37      1.0000 0.50370  0.81200  0.87070  Biso   1.000  C
  O28      1.0000 0.52640  0.91100  0.68410  Biso   1.000  O
  O29      1.0000 0.68440  0.77740  0.16270  Biso   1.000  O
  O30      1.0000 0.51300  0.88190  0.88090  Biso   1.000  O
  C38      1.0000 0.41320  0.73570  0.87700  Biso   1.000  C
  C39      1.0000 0.46310  0.88410  0.64800  Biso   1.000  C
  C40      1.0000 0.74630  0.92420  0.07760  Biso   1.000  C
  C41      1.0000 0.40100  0.65360  0.87720  Biso   1.000  C
  H45      1.0000 0.48250  0.90360  0.59980  Biso   1.000  H
  N5       1.0000 0.38740  0.84640  0.64170  Biso   1.000  N
  H46      1.0000 0.71760  0.87330  0.05130  Biso   1.000  H
  C42      1.0000 0.75660  0.92310  0.15400  Biso   1.000  C
  H47      1.0000 0.44750  0.64540  0.87750  Biso   1.000  H
  C43      1.0000 0.33800  0.84600  0.57800  Biso   1.000  C
  C44      1.0000 0.33800  0.84800  0.70100  Biso   1.000  C
  C45      1.0000 0.72180  0.84480  0.19680  Biso   1.000  C
  H48      1.0000 0.78640  0.04970  0.40630  Biso   1.000  H
  H49      1.0000 0.54530  0.95020  0.42880  Biso   1.000  H
  H50      1.0000 0.27840  0.80920  0.58900  Biso   1.000  H
  H51      1.0000 0.34820  0.90230  0.56950  Biso   1.000  H
  H52      1.0000 0.35280  0.82570  0.53450  Biso   1.000  H
  H53      1.0000 0.27890  0.81500  0.68800  Biso   1.000  H
  H54      1.0000 0.34870  0.82520  0.74550  Biso   1.000  H
  H55      1.0000 0.35190  0.90570  0.71020  Biso   1.000  H
  Zn6      1.0000 0.09833  0.75691  0.83316  Biso   1.000  Zn
  O31      1.0000 0.06910  0.78770  0.92930  Biso   1.000  O
  O32      1.0000 0.20350  0.76030  0.84990  Biso   1.000  O
  O33      1.0000 0.15090  0.87990  0.26690  Biso   1.000  O
  C46      1.0000 0.18800  0.69170  0.87070  Biso   1.000  C
  O34      1.0000 0.08900  0.61540  0.68410  Biso   1.000  O
  O35      1.0000 0.22260  0.90700  0.16270  Biso   1.000  O
  O36      1.0000 0.11810  0.63110  0.88090  Biso   1.000  O
  C47      1.0000 0.26430  0.67750  0.87700  Biso   1.000  C
  C48      1.0000 0.11590  0.57900  0.64800  Biso   1.000  C
  C49      1.0000 0.07580  0.82210  0.07760  Biso   1.000  C
  C50      1.0000 0.34640  0.74740  0.87720  Biso   1.000  C
  H56      1.0000 0.09640  0.57890  0.59980  Biso   1.000  H
  N6       1.0000 0.15360  0.54100  0.64170  Biso   1.000  N
  H57      1.0000 0.12670  0.84430  0.05130  Biso   1.000  H
  C51      1.0000 0.07690  0.83350  0.15400  Biso   1.000  C
  H58      1.0000 0.35460  0.80210  0.87750  Biso   1.000  H
  C52      1.0000 0.15400  0.49200  0.57800  Biso   1.000  C
  C53      1.0000 0.15200  0.49000  0.70100  Biso   1.000  C
  C54      1.0000 0.15520  0.87700  0.19680  Biso   1.000  C
  H59      1.0000 0.95030  0.73670  0.40630  Biso   1.000  H
  H60      1.0000 0.04980  0.59510  0.42880  Biso   1.000  H
  H61      1.0000 0.19080  0.46920  0.58900  Biso   1.000  H
  H62      1.0000 0.09770  0.44590  0.56950  Biso   1.000  H
  H63      1.0000 0.17430  0.52710  0.53450  Biso   1.000  H
  H64      1.0000 0.18500  0.46390  0.68800  Biso   1.000  H
  H65      1.0000 0.17480  0.52350  0.74550  Biso   1.000  H
  H66      1.0000 0.09430  0.44620  0.71020  Biso   1.000  H
  Zn7      1.0000 0.34142  0.24309  0.83316  Biso   1.000  Zn
  O37      1.0000 0.28140  0.21230  0.92930  Biso   1.000  O
  O38      1.0000 0.44320  0.23970  0.84990  Biso   1.000  O
  O39      1.0000 0.27100  0.12010  0.26690  Biso   1.000  O
  C55      1.0000 0.49630  0.30830  0.87070  Biso   1.000  C
  O40      1.0000 0.47360  0.38460  0.68410  Biso   1.000  O
  O41      1.0000 0.31560  0.09300  0.16270  Biso   1.000  O
  O42      1.0000 0.48700  0.36890  0.88090  Biso   1.000  O
  C56      1.0000 0.58680  0.32250  0.87700  Biso   1.000  C
  C57      1.0000 0.53690  0.42100  0.64800  Biso   1.000  C
  C58      1.0000 0.25370  0.17790  0.07760  Biso   1.000  C
  C59      1.0000 0.59900  0.25260  0.87720  Biso   1.000  C
  H67      1.0000 0.51750  0.42110  0.59980  Biso   1.000  H
  N7       1.0000 0.61260  0.45900  0.64170  Biso   1.000  N
  H68      1.0000 0.28240  0.15570  0.05130  Biso   1.000  H
  C60      1.0000 0.24340  0.16650  0.15400  Biso   1.000  C
  H69      1.0000 0.55250  0.19790  0.87750  Biso   1.000  H
  C61      1.0000 0.66200  0.50800  0.57800  Biso   1.000  C
  C62      1.0000 0.66200  0.51000  0.70100  Biso   1.000  C
  C63      1.0000 0.27820  0.12300  0.19680  Biso   1.000  C
  H70      1.0000 0.21360  0.26330  0.40630  Biso   1.000  H
  H71      1.0000 0.45470  0.40490  0.42880  Biso   1.000  H
  H72      1.0000 0.72160  0.53080  0.58900  Biso   1.000  H
  H73      1.0000 0.65180  0.55410  0.56950  Biso   1.000  H
  H74      1.0000 0.64720  0.47290  0.53450  Biso   1.000  H
  H75      1.0000 0.72110  0.53610  0.68800  Biso   1.000  H
  H76      1.0000 0.65130  0.47650  0.74550  Biso   1.000  H
  H77      1.0000 0.64810  0.55380  0.71020  Biso   1.000  H
  Zn8      1.0000 0.90167  0.65858  0.83316  Biso   1.000  Zn
  O43      1.0000 0.93090  0.71860  0.92930  Biso   1.000  O
  O44      1.0000 0.79650  0.55680  0.84990  Biso   1.000  O
  O45      1.0000 0.84910  0.72900  0.26690  Biso   1.000  O
  C64      1.0000 0.81200  0.50370  0.87070  Biso   1.000  C
  O46      1.0000 0.91100  0.52640  0.68410  Biso   1.000  O
  O47      1.0000 0.77740  0.68440  0.16270  Biso   1.000  O
  O48      1.0000 0.88190  0.51300  0.88090  Biso   1.000  O
  C65      1.0000 0.73570  0.41320  0.87700  Biso   1.000  C
  C66      1.0000 0.88410  0.46310  0.64800  Biso   1.000  C
  C67      1.0000 0.92420  0.74630  0.07760  Biso   1.000  C
  C68      1.0000 0.65360  0.40100  0.87720  Biso   1.000  C
  H78      1.0000 0.90360  0.48250  0.59980  Biso   1.000  H
  N8       1.0000 0.84640  0.38740  0.64170  Biso   1.000  N
  H79      1.0000 0.87330  0.71760  0.05130  Biso   1.000  H
  C69      1.0000 0.92310  0.75660  0.15400  Biso   1.000  C
  H80      1.0000 0.64540  0.44750  0.87750  Biso   1.000  H
  C70      1.0000 0.84600  0.33800  0.57800  Biso   1.000  C
  C71      1.0000 0.84800  0.33800  0.70100  Biso   1.000  C
  C72      1.0000 0.84480  0.72180  0.19680  Biso   1.000  C
  H81      1.0000 0.04970  0.78640  0.40630  Biso   1.000  H
  H82      1.0000 0.95020  0.54530  0.42880  Biso   1.000  H
  H83      1.0000 0.80920  0.27840  0.58900  Biso   1.000  H
  H84      1.0000 0.90230  0.34820  0.56950  Biso   1.000  H
  H85      1.0000 0.82570  0.35280  0.53450  Biso   1.000  H
  H86      1.0000 0.81500  0.27890  0.68800  Biso   1.000  H
  H87      1.0000 0.82520  0.34870  0.74550  Biso   1.000  H
  H88      1.0000 0.90570  0.35190  0.71020  Biso   1.000  H
  Zn9      1.0000 0.75691  0.09833  0.83316  Biso   1.000  Zn
  O49      1.0000 0.78770  0.06910  0.92930  Biso   1.000  O
  O50      1.0000 0.76030  0.20350  0.84990  Biso   1.000  O
  O51      1.0000 0.87990  0.15090  0.26690  Biso   1.000  O
  C73      1.0000 0.69170  0.18800  0.87070  Biso   1.000  C
  O52      1.0000 0.61540  0.08900  0.68410  Biso   1.000  O
  O53      1.0000 0.90700  0.22260  0.16270  Biso   1.000  O
  O54      1.0000 0.63110  0.11810  0.88090  Biso   1.000  O
  C74      1.0000 0.67750  0.26430  0.87700  Biso   1.000  C
  C75      1.0000 0.57900  0.11590  0.64800  Biso   1.000  C
  C76      1.0000 0.82210  0.07580  0.07760  Biso   1.000  C
  C77      1.0000 0.74740  0.34640  0.87720  Biso   1.000  C
  H89      1.0000 0.57890  0.09640  0.59980  Biso   1.000  H
  N9       1.0000 0.54100  0.15360  0.64170  Biso   1.000  N
  H90      1.0000 0.84430  0.12670  0.05130  Biso   1.000  H
  C78      1.0000 0.83350  0.07690  0.15400  Biso   1.000  C
  H91      1.0000 0.80210  0.35460  0.87750  Biso   1.000  H
  C79      1.0000 0.49200  0.15400  0.57800  Biso   1.000  C
  C80      1.0000 0.49000  0.15200  0.70100  Biso   1.000  C
  C81      1.0000 0.87700  0.15520  0.19680  Biso   1.000  C
  H92      1.0000 0.73670  0.95030  0.40630  Biso   1.000  H
  H93      1.0000 0.59510  0.04980  0.42880  Biso   1.000  H
  H94      1.0000 0.46920  0.19080  0.58900  Biso   1.000  H
  H95      1.0000 0.44590  0.09770  0.56950  Biso   1.000  H
  H96      1.0000 0.52710  0.17430  0.53450  Biso   1.000  H
  H97      1.0000 0.46390  0.18500  0.68800  Biso   1.000  H
  H98      1.0000 0.52350  0.17480  0.74550  Biso   1.000  H
  H99      1.0000 0.44620  0.09430  0.71020  Biso   1.000  H
  Zn10     1.0000 0.65858  0.75691  0.33316  Biso   1.000  Zn
  O55      1.0000 0.71860  0.78770  0.42930  Biso   1.000  O
  O56      1.0000 0.55680  0.76030  0.34990  Biso   1.000  O
  O57      1.0000 0.72900  0.87990  0.76690  Biso   1.000  O
  C82      1.0000 0.50370  0.69170  0.37070  Biso   1.000  C
  O58      1.0000 0.52640  0.61540  0.18410  Biso   1.000  O
  O59      1.0000 0.68440  0.90700  0.66270  Biso   1.000  O
  O60      1.0000 0.51300  0.63110  0.38090  Biso   1.000  O
  C83      1.0000 0.41320  0.67750  0.37700  Biso   1.000  C
  C84      1.0000 0.46310  0.57900  0.14800  Biso   1.000  C
  C85      1.0000 0.74630  0.82210  0.57760  Biso   1.000  C
  C86      1.0000 0.40100  0.74740  0.37720  Biso   1.000  C
  H100     1.0000 0.48250  0.57890  0.09980  Biso   1.000  H
  N10      1.0000 0.38740  0.54100  0.14170  Biso   1.000  N
  H101     1.0000 0.71760  0.84430  0.55130  Biso   1.000  H
  C87      1.0000 0.75660  0.83350  0.65400  Biso   1.000  C
  H102     1.0000 0.44750  0.80210  0.37750  Biso   1.000  H
  C88      1.0000 0.33800  0.49200  0.07800  Biso   1.000  C
  C89      1.0000 0.33800  0.49000  0.20100  Biso   1.000  C
  C90      1.0000 0.72180  0.87700  0.69680  Biso   1.000  C
  H103     1.0000 0.78640  0.73670  0.90630  Biso   1.000  H
  H104     1.0000 0.54530  0.59510  0.92880  Biso   1.000  H
  H105     1.0000 0.27840  0.46920  0.08900  Biso   1.000  H
  H106     1.0000 0.34820  0.44590  0.06950  Biso   1.000  H
  H107     1.0000 0.35280  0.52710  0.03450  Biso   1.000  H
  H108     1.0000 0.27890  0.46390  0.18800  Biso   1.000  H
  H109     1.0000 0.34870  0.52350  0.24550  Biso   1.000  H
  H110     1.0000 0.35190  0.44620  0.21020  Biso   1.000  H
  Zn11     1.0000 0.09833  0.34142  0.33316  Biso   1.000  Zn
  O61      1.0000 0.06910  0.28140  0.42930  Biso   1.000  O
  O62      1.0000 0.20350  0.44320  0.34990  Biso   1.000  O
  O63      1.0000 0.15090  0.27100  0.76690  Biso   1.000  O
  C91      1.0000 0.18800  0.49630  0.37070  Biso   1.000  C
  O64      1.0000 0.08900  0.47360  0.18410  Biso   1.000  O
  O65      1.0000 0.22260  0.31560  0.66270  Biso   1.000  O
  O66      1.0000 0.11810  0.48700  0.38090  Biso   1.000  O
  C92      1.0000 0.26430  0.58680  0.37700  Biso   1.000  C
  C93      1.0000 0.11590  0.53690  0.14800  Biso   1.000  C
  C94      1.0000 0.07580  0.25370  0.57760  Biso   1.000  C
  C95      1.0000 0.34640  0.59900  0.37720  Biso   1.000  C
  H111     1.0000 0.09640  0.51750  0.09980  Biso   1.000  H
  N11      1.0000 0.15360  0.61260  0.14170  Biso   1.000  N
  H112     1.0000 0.12670  0.28240  0.55130  Biso   1.000  H
  C96      1.0000 0.07690  0.24340  0.65400  Biso   1.000  C
  H113     1.0000 0.35460  0.55250  0.37750  Biso   1.000  H
  C97      1.0000 0.15400  0.66200  0.07800  Biso   1.000  C
  C98      1.0000 0.15200  0.66200  0.20100  Biso   1.000  C
  C99      1.0000 0.15520  0.27820  0.69680  Biso   1.000  C
  H114     1.0000 0.95030  0.21360  0.90630  Biso   1.000  H
  H115     1.0000 0.04980  0.45470  0.92880  Biso   1.000  H
  H116     1.0000 0.19080  0.72160  0.08900  Biso   1.000  H
  H117     1.0000 0.09770  0.65180  0.06950  Biso   1.000  H
  H118     1.0000 0.17430  0.64720  0.03450  Biso   1.000  H
  H119     1.0000 0.18500  0.72110  0.18800  Biso   1.000  H
  H120     1.0000 0.17480  0.65130  0.24550  Biso   1.000  H
  H121     1.0000 0.09430  0.64810  0.21020  Biso   1.000  H
  Zn12     1.0000 0.24309  0.90167  0.33316  Biso   1.000  Zn
  O67      1.0000 0.21230  0.93090  0.42930  Biso   1.000  O
  O68      1.0000 0.23970  0.79650  0.34990  Biso   1.000  O
  O69      1.0000 0.12010  0.84910  0.76690  Biso   1.000  O
  C100     1.0000 0.30830  0.81200  0.37070  Biso   1.000  C
  O70      1.0000 0.38460  0.91100  0.18410  Biso   1.000  O
  O71      1.0000 0.09300  0.77740  0.66270  Biso   1.000  O
  O72      1.0000 0.36890  0.88190  0.38090  Biso   1.000  O
  C101     1.0000 0.32250  0.73570  0.37700  Biso   1.000  C
  C102     1.0000 0.42100  0.88410  0.14800  Biso   1.000  C
  C103     1.0000 0.17790  0.92420  0.57760  Biso   1.000  C
  C104     1.0000 0.25260  0.65360  0.37720  Biso   1.000  C
  H122     1.0000 0.42110  0.90360  0.09980  Biso   1.000  H
  N12      1.0000 0.45900  0.84640  0.14170  Biso   1.000  N
  H123     1.0000 0.15570  0.87330  0.55130  Biso   1.000  H
  C105     1.0000 0.16650  0.92310  0.65400  Biso   1.000  C
  H124     1.0000 0.19790  0.64540  0.37750  Biso   1.000  H
  C106     1.0000 0.50800  0.84600  0.07800  Biso   1.000  C
  C107     1.0000 0.51000  0.84800  0.20100  Biso   1.000  C
  C108     1.0000 0.12300  0.84480  0.69680  Biso   1.000  C
  H125     1.0000 0.26330  0.04970  0.90630  Biso   1.000  H
  H126     1.0000 0.40490  0.95020  0.92880  Biso   1.000  H
  H127     1.0000 0.53080  0.80920  0.08900  Biso   1.000  H
  H128     1.0000 0.55410  0.90230  0.06950  Biso   1.000  H
  H129     1.0000 0.47290  0.82570  0.03450  Biso   1.000  H
  H130     1.0000 0.53610  0.81500  0.18800  Biso   1.000  H
  H131     1.0000 0.47650  0.82520  0.24550  Biso   1.000  H
  H132     1.0000 0.55380  0.90570  0.21020  Biso   1.000  H
  O73      1.0000 0.65710  0.65710  0.29210  Biso   1.000  O
  Co1      1.0000 0.65066  0.65066  0.17540  Biso   1.000  Co
  C109     1.0000 0.76020  0.76020  0.46040  Biso   1.000  C
  O74      1.0000 0.63370  0.63370  0.06190  Biso   1.000  O
  C110     1.0000 0.77800  0.77800  0.53940  Biso   1.000  C
  C111     1.0000 0.68120  0.68120  0.01350  Biso   1.000  C
  H133     1.0000 0.73000  0.73000  0.02910  Biso   1.000  H
  N13      1.0000 0.66860  0.66860  0.94270  Biso   1.000  N
  C112     1.0000 0.73300  0.73300  0.89600  Biso   1.000  C
  C113     1.0000 0.59600  0.59600  0.91200  Biso   1.000  C
  C114     1.0000 0.80370  0.80370  0.69210  Biso   1.000  C
  H134     1.0000 0.71830  0.71830  0.84410  Biso   1.000  H
  H135     1.0000 0.59860  0.59860  0.85820  Biso   1.000  H
  H136     1.0000 0.81525  0.81525  0.74300  Biso   1.000  H
  O75      1.0000 0.34290  0.00000  0.29210  Biso   1.000  O
  Co2      1.0000 0.34934  0.00000  0.17540  Biso   1.000  Co
  C115     1.0000 0.23980  0.00000  0.46040  Biso   1.000  C
  O76      1.0000 0.36630  0.00000  0.06190  Biso   1.000  O
  C116     1.0000 0.22200  0.00000  0.53940  Biso   1.000  C
  C117     1.0000 0.31880  0.00000  0.01350  Biso   1.000  C
  H137     1.0000 0.27000  0.00000  0.02910  Biso   1.000  H
  N14      1.0000 0.33140  0.00000  0.94270  Biso   1.000  N
  C118     1.0000 0.26700  0.00000  0.89600  Biso   1.000  C
  C119     1.0000 0.40400  0.00000  0.91200  Biso   1.000  C
  C120     1.0000 0.19630  0.00000  0.69210  Biso   1.000  C
  H138     1.0000 0.28170  0.00000  0.84410  Biso   1.000  H
  H139     1.0000 0.40140  0.00000  0.85820  Biso   1.000  H
  H140     1.0000 0.18475  0.00000  0.74300  Biso   1.000  H
  O77      1.0000 0.00000  0.34290  0.29210  Biso   1.000  O
  Co3      1.0000 0.00000  0.34934  0.17540  Biso   1.000  Co
  C121     1.0000 0.00000  0.23980  0.46040  Biso   1.000  C
  O78      1.0000 0.00000  0.36630  0.06190  Biso   1.000  O
  C122     1.0000 0.00000  0.22200  0.53940  Biso   1.000  C
  C123     1.0000 0.00000  0.31880  0.01350  Biso   1.000  C
  H141     1.0000 0.00000  0.27000  0.02910  Biso   1.000  H
  N15      1.0000 0.00000  0.33140  0.94270  Biso   1.000  N
  C124     1.0000 0.00000  0.26700  0.89600  Biso   1.000  C
  C125     1.0000 0.00000  0.40400  0.91200  Biso   1.000  C
  C126     1.0000 0.00000  0.19630  0.69210  Biso   1.000  C
  H142     1.0000 0.00000  0.28170  0.84410  Biso   1.000  H
  H143     1.0000 0.00000  0.40140  0.85820  Biso   1.000  H
  H144     1.0000 0.00000  0.18475  0.74300  Biso   1.000  H
  O79      1.0000 0.34290  0.34290  0.79210  Biso   1.000  O
  Co4      1.0000 0.34934  0.34934  0.67540  Biso   1.000  Co
  C127     1.0000 0.23980  0.23980  0.96040  Biso   1.000  C
  O80      1.0000 0.36630  0.36630  0.56190  Biso   1.000  O
  C128     1.0000 0.22200  0.22200  0.03940  Biso   1.000  C
  C129     1.0000 0.31880  0.31880  0.51350  Biso   1.000  C
  H145     1.0000 0.27000  0.27000  0.52910  Biso   1.000  H
  N16      1.0000 0.33140  0.33140  0.44270  Biso   1.000  N
  C130     1.0000 0.26700  0.26700  0.39600  Biso   1.000  C
  C131     1.0000 0.40400  0.40400  0.41200  Biso   1.000  C
  C132     1.0000 0.19630  0.19630  0.19210  Biso   1.000  C
  H146     1.0000 0.28170  0.28170  0.34410  Biso   1.000  H
  H147     1.0000 0.40140  0.40140  0.35820  Biso   1.000  H
  H148     1.0000 0.18475  0.18475  0.24300  Biso   1.000  H
  O81      1.0000 0.65710  0.00000  0.79210  Biso   1.000  O
  Co5      1.0000 0.65066  0.00000  0.67540  Biso   1.000  Co
  C133     1.0000 0.76020  0.00000  0.96040  Biso   1.000  C
  O82      1.0000 0.63370  0.00000  0.56190  Biso   1.000  O
  C134     1.0000 0.77800  0.00000  0.03940  Biso   1.000  C
  C135     1.0000 0.68120  0.00000  0.51350  Biso   1.000  C
  H149     1.0000 0.73000  0.00000  0.52910  Biso   1.000  H
  N17      1.0000 0.66860  0.00000  0.44270  Biso   1.000  N
  C136     1.0000 0.73300  0.00000  0.39600  Biso   1.000  C
  C137     1.0000 0.59600  0.00000  0.41200  Biso   1.000  C
  C138     1.0000 0.80370  0.00000  0.19210  Biso   1.000  C
  H150     1.0000 0.71830  0.00000  0.34410  Biso   1.000  H
  H151     1.0000 0.59860  0.00000  0.35820  Biso   1.000  H
  H152     1.0000 0.81525  0.00000  0.24300  Biso   1.000  H
  O83      1.0000 0.00000  0.65710  0.79210  Biso   1.000  O
  Co6      1.0000 0.00000  0.65066  0.67540  Biso   1.000  Co
  C139     1.0000 0.00000  0.76020  0.96040  Biso   1.000  C
  O84      1.0000 0.00000  0.63370  0.56190  Biso   1.000  O
  C140     1.0000 0.00000  0.77800  0.03940  Biso   1.000  C
  C141     1.0000 0.00000  0.68120  0.51350  Biso   1.000  C
  H153     1.0000 0.00000  0.73000  0.52910  Biso   1.000  H
  N18      1.0000 0.00000  0.66860  0.44270  Biso   1.000  N
  C142     1.0000 0.00000  0.73300  0.39600  Biso   1.000  C
  C143     1.0000 0.00000  0.59600  0.41200  Biso   1.000  C
  C144     1.0000 0.00000  0.80370  0.19210  Biso   1.000  C
  H154     1.0000 0.00000  0.71830  0.34410  Biso   1.000  H
  H155     1.0000 0.00000  0.59860  0.35820  Biso   1.000  H
  H156     1.0000 0.00000  0.81525  0.24300  Biso   1.000  H
