data_image0
_cell_length_a       18.368
_cell_length_b       18.368
_cell_length_c       17.964
_cell_angle_alpha    90
_cell_angle_beta     90
_cell_angle_gamma    120

_symmetry_space_group_name_H-M    "P 1"
_symmetry_int_tables_number       1

loop_
  _symmetry_equiv_pos_as_xyz
  'x, y, z'

loop_
  _atom_site_label
  _atom_site_occupancy
  _atom_site_fract_x
  _atom_site_fract_y
  _atom_site_fract_z
  _atom_site_thermal_displace_type
  _atom_site_B_iso_or_equiv
  _atom_site_type_symbol
  O1       1.0000 0.38940  0.47910  0.82130  Biso   1.000  O
  O2       1.0000 0.31760  0.22430  0.84260  Biso   1.000  O
  Zn1      1.0000 0.24313  0.34157  0.67044  Biso   1.000  Zn
  C1       1.0000 0.42180  0.53120  0.86550  Biso   1.000  C
  C2       1.0000 0.27920  0.15740  0.80650  Biso   1.000  C
  O3       1.0000 0.21190  0.28190  0.57550  Biso   1.000  O
  O4       1.0000 0.23650  0.44200  0.65480  Biso   1.000  O
  O5       1.0000 0.15160  0.27130  0.73730  Biso   1.000  O
  N1       1.0000 0.46600  0.61100  0.86200  Biso   1.000  N
  H1       1.0000 0.41380  0.51040  0.91440  Biso   1.000  H
  C3       1.0000 0.24170  0.07590  0.84960  Biso   1.000  C
  C4       1.0000 0.30860  0.49900  0.63300  Biso   1.000  C
  C5       1.0000 0.51690  0.65570  0.80160  Biso   1.000  C
  C6       1.0000 0.49570  0.66410  0.92950  Biso   1.000  C
  C7       1.0000 0.25370  0.07600  0.92500  Biso   1.000  C
  O6       1.0000 0.36810  0.48600  0.62140  Biso   1.000  O
  C8       1.0000 0.32160  0.58590  0.62440  Biso   1.000  C
  H2       1.0000 0.21280  0.26260  0.10070  Biso   1.000  H
  H3       1.0000 0.45600  0.40620  0.07160  Biso   1.000  H
  H4       1.0000 0.54430  0.71550  0.81180  Biso   1.000  H
  H5       1.0000 0.55910  0.63950  0.79380  Biso   1.000  H
  H6       1.0000 0.48260  0.64310  0.75720  Biso   1.000  H
  H7       1.0000 0.52820  0.72270  0.91520  Biso   1.000  H
  H8       1.0000 0.44770  0.65530  0.95900  Biso   1.000  H
  H9       1.0000 0.53070  0.64900  0.95870  Biso   1.000  H
  H10      1.0000 0.28300  0.12730  0.95070  Biso   1.000  H
  C9       1.0000 0.25240  0.59870  0.62450  Biso   1.000  C
  H11      1.0000 0.19760  0.55220  0.62470  Biso   1.000  H
  O7       1.0000 0.52090  0.91030  0.82130  Biso   1.000  O
  O8       1.0000 0.77570  0.09330  0.84260  Biso   1.000  O
  Zn2      1.0000 0.65843  0.90156  0.67044  Biso   1.000  Zn
  C10      1.0000 0.46880  0.89060  0.86550  Biso   1.000  C
  C11      1.0000 0.84260  0.12180  0.80650  Biso   1.000  C
  O9       1.0000 0.71810  0.93000  0.57550  Biso   1.000  O
  O10      1.0000 0.55800  0.79450  0.65480  Biso   1.000  O
  O11      1.0000 0.72870  0.88030  0.73730  Biso   1.000  O
  N2       1.0000 0.38900  0.85500  0.86200  Biso   1.000  N
  H12      1.0000 0.48960  0.90340  0.91440  Biso   1.000  H
  C12      1.0000 0.92410  0.16580  0.84960  Biso   1.000  C
  C13      1.0000 0.50100  0.80960  0.63300  Biso   1.000  C
  C14      1.0000 0.34430  0.86120  0.80160  Biso   1.000  C
  C15      1.0000 0.33590  0.83160  0.92950  Biso   1.000  C
  C16      1.0000 0.92400  0.17770  0.92500  Biso   1.000  C
  O12      1.0000 0.51400  0.88210  0.62140  Biso   1.000  O
  C17      1.0000 0.41410  0.73570  0.62440  Biso   1.000  C
  H13      1.0000 0.73740  0.95020  0.10070  Biso   1.000  H
  H14      1.0000 0.59380  0.04980  0.07160  Biso   1.000  H
  H15      1.0000 0.28450  0.82880  0.81180  Biso   1.000  H
  H16      1.0000 0.36050  0.91960  0.79380  Biso   1.000  H
  H17      1.0000 0.35690  0.83950  0.75720  Biso   1.000  H
  H18      1.0000 0.27730  0.80550  0.91520  Biso   1.000  H
  H19      1.0000 0.34470  0.79240  0.95900  Biso   1.000  H
  H20      1.0000 0.35100  0.88170  0.95870  Biso   1.000  H
  H21      1.0000 0.87270  0.15570  0.95070  Biso   1.000  H
  C18      1.0000 0.40130  0.65370  0.62450  Biso   1.000  C
  H22      1.0000 0.44780  0.64540  0.62470  Biso   1.000  H
  O13      1.0000 0.08970  0.61060  0.82130  Biso   1.000  O
  O14      1.0000 0.90670  0.68240  0.84260  Biso   1.000  O
  Zn3      1.0000 0.09844  0.75687  0.67044  Biso   1.000  Zn
  C19      1.0000 0.10940  0.57820  0.86550  Biso   1.000  C
  C20      1.0000 0.87820  0.72080  0.80650  Biso   1.000  C
  O15      1.0000 0.07000  0.78810  0.57550  Biso   1.000  O
  O16      1.0000 0.20550  0.76350  0.65480  Biso   1.000  O
  O17      1.0000 0.11970  0.84840  0.73730  Biso   1.000  O
  N3       1.0000 0.14500  0.53400  0.86200  Biso   1.000  N
  H23      1.0000 0.09660  0.58620  0.91440  Biso   1.000  H
  C21      1.0000 0.83420  0.75830  0.84960  Biso   1.000  C
  C22      1.0000 0.19040  0.69140  0.63300  Biso   1.000  C
  C23      1.0000 0.13880  0.48310  0.80160  Biso   1.000  C
  C24      1.0000 0.16840  0.50430  0.92950  Biso   1.000  C
  C25      1.0000 0.82230  0.74630  0.92500  Biso   1.000  C
  O18      1.0000 0.11790  0.63190  0.62140  Biso   1.000  O
  C26      1.0000 0.26430  0.67840  0.62440  Biso   1.000  C
  H24      1.0000 0.04980  0.78720  0.10070  Biso   1.000  H
  H25      1.0000 0.95020  0.54400  0.07160  Biso   1.000  H
  H26      1.0000 0.17120  0.45570  0.81180  Biso   1.000  H
  H27      1.0000 0.08040  0.44090  0.79380  Biso   1.000  H
  H28      1.0000 0.16050  0.51740  0.75720  Biso   1.000  H
  H29      1.0000 0.19450  0.47180  0.91520  Biso   1.000  H
  H30      1.0000 0.20760  0.55230  0.95900  Biso   1.000  H
  H31      1.0000 0.11830  0.46930  0.95870  Biso   1.000  H
  H32      1.0000 0.84430  0.71700  0.95070  Biso   1.000  H
  C27      1.0000 0.34630  0.74760  0.62450  Biso   1.000  C
  H33      1.0000 0.35460  0.80240  0.62470  Biso   1.000  H
  O19      1.0000 0.61060  0.52090  0.32130  Biso   1.000  O
  O20      1.0000 0.68240  0.77570  0.34260  Biso   1.000  O
  Zn4      1.0000 0.75687  0.65843  0.17044  Biso   1.000  Zn
  C28      1.0000 0.57820  0.46880  0.36550  Biso   1.000  C
  C29      1.0000 0.72080  0.84260  0.30650  Biso   1.000  C
  O21      1.0000 0.78810  0.71810  0.07550  Biso   1.000  O
  O22      1.0000 0.76350  0.55800  0.15480  Biso   1.000  O
  O23      1.0000 0.84840  0.72870  0.23730  Biso   1.000  O
  N4       1.0000 0.53400  0.38900  0.36200  Biso   1.000  N
  H34      1.0000 0.58620  0.48960  0.41440  Biso   1.000  H
  C30      1.0000 0.75830  0.92410  0.34960  Biso   1.000  C
  C31      1.0000 0.69140  0.50100  0.13300  Biso   1.000  C
  C32      1.0000 0.48310  0.34430  0.30160  Biso   1.000  C
  C33      1.0000 0.50430  0.33590  0.42950  Biso   1.000  C
  C34      1.0000 0.74630  0.92400  0.42500  Biso   1.000  C
  O24      1.0000 0.63190  0.51400  0.12140  Biso   1.000  O
  C35      1.0000 0.67840  0.41410  0.12440  Biso   1.000  C
  H35      1.0000 0.78720  0.73740  0.60070  Biso   1.000  H
  H36      1.0000 0.54400  0.59380  0.57160  Biso   1.000  H
  H37      1.0000 0.45570  0.28450  0.31180  Biso   1.000  H
  H38      1.0000 0.44090  0.36050  0.29380  Biso   1.000  H
  H39      1.0000 0.51740  0.35690  0.25720  Biso   1.000  H
  H40      1.0000 0.47180  0.27730  0.41520  Biso   1.000  H
  H41      1.0000 0.55230  0.34470  0.45900  Biso   1.000  H
  H42      1.0000 0.46930  0.35100  0.45870  Biso   1.000  H
  H43      1.0000 0.71700  0.87270  0.45070  Biso   1.000  H
  C36      1.0000 0.74760  0.40130  0.12450  Biso   1.000  C
  H44      1.0000 0.80240  0.44780  0.12470  Biso   1.000  H
  O25      1.0000 0.47910  0.08970  0.32130  Biso   1.000  O
  O26      1.0000 0.22430  0.90670  0.34260  Biso   1.000  O
  Zn5      1.0000 0.34157  0.09844  0.17044  Biso   1.000  Zn
  C37      1.0000 0.53120  0.10940  0.36550  Biso   1.000  C
  C38      1.0000 0.15740  0.87820  0.30650  Biso   1.000  C
  O27      1.0000 0.28190  0.07000  0.07550  Biso   1.000  O
  O28      1.0000 0.44200  0.20550  0.15480  Biso   1.000  O
  O29      1.0000 0.27130  0.11970  0.23730  Biso   1.000  O
  N5       1.0000 0.61100  0.14500  0.36200  Biso   1.000  N
  H45      1.0000 0.51040  0.09660  0.41440  Biso   1.000  H
  C39      1.0000 0.07590  0.83420  0.34960  Biso   1.000  C
  C40      1.0000 0.49900  0.19040  0.13300  Biso   1.000  C
  C41      1.0000 0.65570  0.13880  0.30160  Biso   1.000  C
  C42      1.0000 0.66410  0.16840  0.42950  Biso   1.000  C
  C43      1.0000 0.07600  0.82230  0.42500  Biso   1.000  C
  O30      1.0000 0.48600  0.11790  0.12140  Biso   1.000  O
  C44      1.0000 0.58590  0.26430  0.12440  Biso   1.000  C
  H46      1.0000 0.26260  0.04980  0.60070  Biso   1.000  H
  H47      1.0000 0.40620  0.95020  0.57160  Biso   1.000  H
  H48      1.0000 0.71550  0.17120  0.31180  Biso   1.000  H
  H49      1.0000 0.63950  0.08040  0.29380  Biso   1.000  H
  H50      1.0000 0.64310  0.16050  0.25720  Biso   1.000  H
  H51      1.0000 0.72270  0.19450  0.41520  Biso   1.000  H
  H52      1.0000 0.65530  0.20760  0.45900  Biso   1.000  H
  H53      1.0000 0.64900  0.11830  0.45870  Biso   1.000  H
  H54      1.0000 0.12730  0.84430  0.45070  Biso   1.000  H
  C45      1.0000 0.59870  0.34630  0.12450  Biso   1.000  C
  H55      1.0000 0.55220  0.35460  0.12470  Biso   1.000  H
  O31      1.0000 0.91030  0.38940  0.32130  Biso   1.000  O
  O32      1.0000 0.09330  0.31760  0.34260  Biso   1.000  O
  Zn6      1.0000 0.90156  0.24313  0.17044  Biso   1.000  Zn
  C46      1.0000 0.89060  0.42180  0.36550  Biso   1.000  C
  C47      1.0000 0.12180  0.27920  0.30650  Biso   1.000  C
  O33      1.0000 0.93000  0.21190  0.07550  Biso   1.000  O
  O34      1.0000 0.79450  0.23650  0.15480  Biso   1.000  O
  O35      1.0000 0.88030  0.15160  0.23730  Biso   1.000  O
  N6       1.0000 0.85500  0.46600  0.36200  Biso   1.000  N
  H56      1.0000 0.90340  0.41380  0.41440  Biso   1.000  H
  C48      1.0000 0.16580  0.24170  0.34960  Biso   1.000  C
  C49      1.0000 0.80960  0.30860  0.13300  Biso   1.000  C
  C50      1.0000 0.86120  0.51690  0.30160  Biso   1.000  C
  C51      1.0000 0.83160  0.49570  0.42950  Biso   1.000  C
  C52      1.0000 0.17770  0.25370  0.42500  Biso   1.000  C
  O36      1.0000 0.88210  0.36810  0.12140  Biso   1.000  O
  C53      1.0000 0.73570  0.32160  0.12440  Biso   1.000  C
  H57      1.0000 0.95020  0.21280  0.60070  Biso   1.000  H
  H58      1.0000 0.04980  0.45600  0.57160  Biso   1.000  H
  H59      1.0000 0.82880  0.54430  0.31180  Biso   1.000  H
  H60      1.0000 0.91960  0.55910  0.29380  Biso   1.000  H
  H61      1.0000 0.83950  0.48260  0.25720  Biso   1.000  H
  H62      1.0000 0.80550  0.52820  0.41520  Biso   1.000  H
  H63      1.0000 0.79240  0.44770  0.45900  Biso   1.000  H
  H64      1.0000 0.88170  0.53070  0.45870  Biso   1.000  H
  H65      1.0000 0.15570  0.28300  0.45070  Biso   1.000  H
  C54      1.0000 0.65370  0.25240  0.12450  Biso   1.000  C
  H66      1.0000 0.64540  0.19760  0.12470  Biso   1.000  H
  O37      1.0000 0.52090  0.61060  0.32130  Biso   1.000  O
  O38      1.0000 0.77570  0.68240  0.34260  Biso   1.000  O
  Zn7      1.0000 0.65843  0.75687  0.17044  Biso   1.000  Zn
  C55      1.0000 0.46880  0.57820  0.36550  Biso   1.000  C
  C56      1.0000 0.84260  0.72080  0.30650  Biso   1.000  C
  O39      1.0000 0.71810  0.78810  0.07550  Biso   1.000  O
  O40      1.0000 0.55800  0.76350  0.15480  Biso   1.000  O
  O41      1.0000 0.72870  0.84840  0.23730  Biso   1.000  O
  N7       1.0000 0.38900  0.53400  0.36200  Biso   1.000  N
  H67      1.0000 0.48960  0.58620  0.41440  Biso   1.000  H
  C57      1.0000 0.92410  0.75830  0.34960  Biso   1.000  C
  C58      1.0000 0.50100  0.69140  0.13300  Biso   1.000  C
  C59      1.0000 0.34430  0.48310  0.30160  Biso   1.000  C
  C60      1.0000 0.33590  0.50430  0.42950  Biso   1.000  C
  C61      1.0000 0.92400  0.74630  0.42500  Biso   1.000  C
  O42      1.0000 0.51400  0.63190  0.12140  Biso   1.000  O
  C62      1.0000 0.41410  0.67840  0.12440  Biso   1.000  C
  H68      1.0000 0.73740  0.78720  0.60070  Biso   1.000  H
  H69      1.0000 0.59380  0.54400  0.57160  Biso   1.000  H
  H70      1.0000 0.28450  0.45570  0.31180  Biso   1.000  H
  H71      1.0000 0.36050  0.44090  0.29380  Biso   1.000  H
  H72      1.0000 0.35690  0.51740  0.25720  Biso   1.000  H
  H73      1.0000 0.27730  0.47180  0.41520  Biso   1.000  H
  H74      1.0000 0.34470  0.55230  0.45900  Biso   1.000  H
  H75      1.0000 0.35100  0.46930  0.45870  Biso   1.000  H
  H76      1.0000 0.87270  0.71700  0.45070  Biso   1.000  H
  C63      1.0000 0.40130  0.74760  0.12450  Biso   1.000  C
  H77      1.0000 0.44780  0.80240  0.12470  Biso   1.000  H
  O43      1.0000 0.08970  0.47910  0.32130  Biso   1.000  O
  O44      1.0000 0.90670  0.22430  0.34260  Biso   1.000  O
  Zn8      1.0000 0.09844  0.34157  0.17044  Biso   1.000  Zn
  C64      1.0000 0.10940  0.53120  0.36550  Biso   1.000  C
  C65      1.0000 0.87820  0.15740  0.30650  Biso   1.000  C
  O45      1.0000 0.07000  0.28190  0.07550  Biso   1.000  O
  O46      1.0000 0.20550  0.44200  0.15480  Biso   1.000  O
  O47      1.0000 0.11970  0.27130  0.23730  Biso   1.000  O
  N8       1.0000 0.14500  0.61100  0.36200  Biso   1.000  N
  H78      1.0000 0.09660  0.51040  0.41440  Biso   1.000  H
  C66      1.0000 0.83420  0.07590  0.34960  Biso   1.000  C
  C67      1.0000 0.19040  0.49900  0.13300  Biso   1.000  C
  C68      1.0000 0.13880  0.65570  0.30160  Biso   1.000  C
  C69      1.0000 0.16840  0.66410  0.42950  Biso   1.000  C
  C70      1.0000 0.82230  0.07600  0.42500  Biso   1.000  C
  O48      1.0000 0.11790  0.48600  0.12140  Biso   1.000  O
  C71      1.0000 0.26430  0.58590  0.12440  Biso   1.000  C
  H79      1.0000 0.04980  0.26260  0.60070  Biso   1.000  H
  H80      1.0000 0.95020  0.40620  0.57160  Biso   1.000  H
  H81      1.0000 0.17120  0.71550  0.31180  Biso   1.000  H
  H82      1.0000 0.08040  0.63950  0.29380  Biso   1.000  H
  H83      1.0000 0.16050  0.64310  0.25720  Biso   1.000  H
  H84      1.0000 0.19450  0.72270  0.41520  Biso   1.000  H
  H85      1.0000 0.20760  0.65530  0.45900  Biso   1.000  H
  H86      1.0000 0.11830  0.64900  0.45870  Biso   1.000  H
  H87      1.0000 0.84430  0.12730  0.45070  Biso   1.000  H
  C72      1.0000 0.34630  0.59870  0.12450  Biso   1.000  C
  H88      1.0000 0.35460  0.55220  0.12470  Biso   1.000  H
  O49      1.0000 0.38940  0.91030  0.32130  Biso   1.000  O
  O50      1.0000 0.31760  0.09330  0.34260  Biso   1.000  O
  Zn9      1.0000 0.24313  0.90156  0.17044  Biso   1.000  Zn
  C73      1.0000 0.42180  0.89060  0.36550  Biso   1.000  C
  C74      1.0000 0.27920  0.12180  0.30650  Biso   1.000  C
  O51      1.0000 0.21190  0.93000  0.07550  Biso   1.000  O
  O52      1.0000 0.23650  0.79450  0.15480  Biso   1.000  O
  O53      1.0000 0.15160  0.88030  0.23730  Biso   1.000  O
  N9       1.0000 0.46600  0.85500  0.36200  Biso   1.000  N
  H89      1.0000 0.41380  0.90340  0.41440  Biso   1.000  H
  C75      1.0000 0.24170  0.16580  0.34960  Biso   1.000  C
  C76      1.0000 0.30860  0.80960  0.13300  Biso   1.000  C
  C77      1.0000 0.51690  0.86120  0.30160  Biso   1.000  C
  C78      1.0000 0.49570  0.83160  0.42950  Biso   1.000  C
  C79      1.0000 0.25370  0.17770  0.42500  Biso   1.000  C
  O54      1.0000 0.36810  0.88210  0.12140  Biso   1.000  O
  C80      1.0000 0.32160  0.73570  0.12440  Biso   1.000  C
  H90      1.0000 0.21280  0.95020  0.60070  Biso   1.000  H
  H91      1.0000 0.45600  0.04980  0.57160  Biso   1.000  H
  H92      1.0000 0.54430  0.82880  0.31180  Biso   1.000  H
  H93      1.0000 0.55910  0.91960  0.29380  Biso   1.000  H
  H94      1.0000 0.48260  0.83950  0.25720  Biso   1.000  H
  H95      1.0000 0.52820  0.80550  0.41520  Biso   1.000  H
  H96      1.0000 0.44770  0.79240  0.45900  Biso   1.000  H
  H97      1.0000 0.53070  0.88170  0.45870  Biso   1.000  H
  H98      1.0000 0.28300  0.15570  0.45070  Biso   1.000  H
  C81      1.0000 0.25240  0.65370  0.12450  Biso   1.000  C
  H99      1.0000 0.19760  0.64540  0.12470  Biso   1.000  H
  O55      1.0000 0.47910  0.38940  0.82130  Biso   1.000  O
  O56      1.0000 0.22430  0.31760  0.84260  Biso   1.000  O
  Zn10     1.0000 0.34157  0.24313  0.67044  Biso   1.000  Zn
  C82      1.0000 0.53120  0.42180  0.86550  Biso   1.000  C
  C83      1.0000 0.15740  0.27920  0.80650  Biso   1.000  C
  O57      1.0000 0.28190  0.21190  0.57550  Biso   1.000  O
  O58      1.0000 0.44200  0.23650  0.65480  Biso   1.000  O
  O59      1.0000 0.27130  0.15160  0.73730  Biso   1.000  O
  N10      1.0000 0.61100  0.46600  0.86200  Biso   1.000  N
  H100     1.0000 0.51040  0.41380  0.91440  Biso   1.000  H
  C84      1.0000 0.07590  0.24170  0.84960  Biso   1.000  C
  C85      1.0000 0.49900  0.30860  0.63300  Biso   1.000  C
  C86      1.0000 0.65570  0.51690  0.80160  Biso   1.000  C
  C87      1.0000 0.66410  0.49570  0.92950  Biso   1.000  C
  C88      1.0000 0.07600  0.25370  0.92500  Biso   1.000  C
  O60      1.0000 0.48600  0.36810  0.62140  Biso   1.000  O
  C89      1.0000 0.58590  0.32160  0.62440  Biso   1.000  C
  H101     1.0000 0.26260  0.21280  0.10070  Biso   1.000  H
  H102     1.0000 0.40620  0.45600  0.07160  Biso   1.000  H
  H103     1.0000 0.71550  0.54430  0.81180  Biso   1.000  H
  H104     1.0000 0.63950  0.55910  0.79380  Biso   1.000  H
  H105     1.0000 0.64310  0.48260  0.75720  Biso   1.000  H
  H106     1.0000 0.72270  0.52820  0.91520  Biso   1.000  H
  H107     1.0000 0.65530  0.44770  0.95900  Biso   1.000  H
  H108     1.0000 0.64900  0.53070  0.95870  Biso   1.000  H
  H109     1.0000 0.12730  0.28300  0.95070  Biso   1.000  H
  C90      1.0000 0.59870  0.25240  0.62450  Biso   1.000  C
  H110     1.0000 0.55220  0.19760  0.62470  Biso   1.000  H
  O61      1.0000 0.91030  0.52090  0.82130  Biso   1.000  O
  O62      1.0000 0.09330  0.77570  0.84260  Biso   1.000  O
  Zn11     1.0000 0.90156  0.65843  0.67044  Biso   1.000  Zn
  C91      1.0000 0.89060  0.46880  0.86550  Biso   1.000  C
  C92      1.0000 0.12180  0.84260  0.80650  Biso   1.000  C
  O63      1.0000 0.93000  0.71810  0.57550  Biso   1.000  O
  O64      1.0000 0.79450  0.55800  0.65480  Biso   1.000  O
  O65      1.0000 0.88030  0.72870  0.73730  Biso   1.000  O
  N11      1.0000 0.85500  0.38900  0.86200  Biso   1.000  N
  H111     1.0000 0.90340  0.48960  0.91440  Biso   1.000  H
  C93      1.0000 0.16580  0.92410  0.84960  Biso   1.000  C
  C94      1.0000 0.80960  0.50100  0.63300  Biso   1.000  C
  C95      1.0000 0.86120  0.34430  0.80160  Biso   1.000  C
  C96      1.0000 0.83160  0.33590  0.92950  Biso   1.000  C
  C97      1.0000 0.17770  0.92400  0.92500  Biso   1.000  C
  O66      1.0000 0.88210  0.51400  0.62140  Biso   1.000  O
  C98      1.0000 0.73570  0.41410  0.62440  Biso   1.000  C
  H112     1.0000 0.95020  0.73740  0.10070  Biso   1.000  H
  H113     1.0000 0.04980  0.59380  0.07160  Biso   1.000  H
  H114     1.0000 0.82880  0.28450  0.81180  Biso   1.000  H
  H115     1.0000 0.91960  0.36050  0.79380  Biso   1.000  H
  H116     1.0000 0.83950  0.35690  0.75720  Biso   1.000  H
  H117     1.0000 0.80550  0.27730  0.91520  Biso   1.000  H
  H118     1.0000 0.79240  0.34470  0.95900  Biso   1.000  H
  H119     1.0000 0.88170  0.35100  0.95870  Biso   1.000  H
  H120     1.0000 0.15570  0.87270  0.95070  Biso   1.000  H
  C99      1.0000 0.65370  0.40130  0.62450  Biso   1.000  C
  H121     1.0000 0.64540  0.44780  0.62470  Biso   1.000  H
  O67      1.0000 0.61060  0.08970  0.82130  Biso   1.000  O
  O68      1.0000 0.68240  0.90670  0.84260  Biso   1.000  O
  Zn12     1.0000 0.75687  0.09844  0.67044  Biso   1.000  Zn
  C100     1.0000 0.57820  0.10940  0.86550  Biso   1.000  C
  C101     1.0000 0.72080  0.87820  0.80650  Biso   1.000  C
  O69      1.0000 0.78810  0.07000  0.57550  Biso   1.000  O
  O70      1.0000 0.76350  0.20550  0.65480  Biso   1.000  O
  O71      1.0000 0.84840  0.11970  0.73730  Biso   1.000  O
  N12      1.0000 0.53400  0.14500  0.86200  Biso   1.000  N
  H122     1.0000 0.58620  0.09660  0.91440  Biso   1.000  H
  C102     1.0000 0.75830  0.83420  0.84960  Biso   1.000  C
  C103     1.0000 0.69140  0.19040  0.63300  Biso   1.000  C
  C104     1.0000 0.48310  0.13880  0.80160  Biso   1.000  C
  C105     1.0000 0.50430  0.16840  0.92950  Biso   1.000  C
  C106     1.0000 0.74630  0.82230  0.92500  Biso   1.000  C
  O72      1.0000 0.63190  0.11790  0.62140  Biso   1.000  O
  C107     1.0000 0.67840  0.26430  0.62440  Biso   1.000  C
  H123     1.0000 0.78720  0.04980  0.10070  Biso   1.000  H
  H124     1.0000 0.54400  0.95020  0.07160  Biso   1.000  H
  H125     1.0000 0.45570  0.17120  0.81180  Biso   1.000  H
  H126     1.0000 0.44090  0.08040  0.79380  Biso   1.000  H
  H127     1.0000 0.51740  0.16050  0.75720  Biso   1.000  H
  H128     1.0000 0.47180  0.19450  0.91520  Biso   1.000  H
  H129     1.0000 0.55230  0.20760  0.95900  Biso   1.000  H
  H130     1.0000 0.46930  0.11830  0.95870  Biso   1.000  H
  H131     1.0000 0.71700  0.84430  0.95070  Biso   1.000  H
  C108     1.0000 0.74760  0.34630  0.62450  Biso   1.000  C
  H132     1.0000 0.80240  0.35460  0.62470  Biso   1.000  H
  Zn13     1.0000 0.34910  0.34910  0.82824  Biso   1.000  Zn
  O73      1.0000 0.34350  0.34350  0.71270  Biso   1.000  O
  O74      1.0000 0.36580  0.36580  0.94260  Biso   1.000  O
  C109     1.0000 0.31750  0.31750  0.98910  Biso   1.000  C
  H133     1.0000 0.26890  0.26890  0.97270  Biso   1.000  H
  N13      1.0000 0.33020  0.33020  0.06240  Biso   1.000  N
  C110     1.0000 0.23910  0.23910  0.54520  Biso   1.000  C
  C111     1.0000 0.26660  0.26660  0.11050  Biso   1.000  C
  C112     1.0000 0.40630  0.40630  0.08970  Biso   1.000  C
  C113     1.0000 0.22240  0.22240  0.46420  Biso   1.000  C
  H134     1.0000 0.28210  0.28210  0.16210  Biso   1.000  H
  H135     1.0000 0.40650  0.40650  0.14370  Biso   1.000  H
  Zn14     1.0000 0.65090  0.00000  0.82824  Biso   1.000  Zn
  O75      1.0000 0.65650  0.00000  0.71270  Biso   1.000  O
  O76      1.0000 0.63420  0.00000  0.94260  Biso   1.000  O
  C114     1.0000 0.68250  0.00000  0.98910  Biso   1.000  C
  H136     1.0000 0.73110  0.00000  0.97270  Biso   1.000  H
  N14      1.0000 0.66980  0.00000  0.06240  Biso   1.000  N
  C115     1.0000 0.76090  0.00000  0.54520  Biso   1.000  C
  C116     1.0000 0.73340  0.00000  0.11050  Biso   1.000  C
  C117     1.0000 0.59370  0.00000  0.08970  Biso   1.000  C
  C118     1.0000 0.77760  0.00000  0.46420  Biso   1.000  C
  H137     1.0000 0.71790  0.00000  0.16210  Biso   1.000  H
  H138     1.0000 0.59350  0.00000  0.14370  Biso   1.000  H
  Zn15     1.0000 0.00000  0.65090  0.82824  Biso   1.000  Zn
  O77      1.0000 0.00000  0.65650  0.71270  Biso   1.000  O
  O78      1.0000 0.00000  0.63420  0.94260  Biso   1.000  O
  C119     1.0000 0.00000  0.68250  0.98910  Biso   1.000  C
  H139     1.0000 0.00000  0.73110  0.97270  Biso   1.000  H
  N15      1.0000 0.00000  0.66980  0.06240  Biso   1.000  N
  C120     1.0000 0.00000  0.76090  0.54520  Biso   1.000  C
  C121     1.0000 0.00000  0.73340  0.11050  Biso   1.000  C
  C122     1.0000 0.00000  0.59370  0.08970  Biso   1.000  C
  C123     1.0000 0.00000  0.77760  0.46420  Biso   1.000  C
  H140     1.0000 0.00000  0.71790  0.16210  Biso   1.000  H
  H141     1.0000 0.00000  0.59350  0.14370  Biso   1.000  H
  Zn16     1.0000 0.65090  0.65090  0.32824  Biso   1.000  Zn
  O79      1.0000 0.65650  0.65650  0.21270  Biso   1.000  O
  O80      1.0000 0.63420  0.63420  0.44260  Biso   1.000  O
  C124     1.0000 0.68250  0.68250  0.48910  Biso   1.000  C
  H142     1.0000 0.73110  0.73110  0.47270  Biso   1.000  H
  N16      1.0000 0.66980  0.66980  0.56240  Biso   1.000  N
  C125     1.0000 0.76090  0.76090  0.04520  Biso   1.000  C
  C126     1.0000 0.73340  0.73340  0.61050  Biso   1.000  C
  C127     1.0000 0.59370  0.59370  0.58970  Biso   1.000  C
  C128     1.0000 0.77760  0.77760  0.96420  Biso   1.000  C
  H143     1.0000 0.71790  0.71790  0.66210  Biso   1.000  H
  H144     1.0000 0.59350  0.59350  0.64370  Biso   1.000  H
  Zn17     1.0000 0.34910  0.00000  0.32824  Biso   1.000  Zn
  O81      1.0000 0.34350  0.00000  0.21270  Biso   1.000  O
  O82      1.0000 0.36580  0.00000  0.44260  Biso   1.000  O
  C129     1.0000 0.31750  0.00000  0.48910  Biso   1.000  C
  H145     1.0000 0.26890  0.00000  0.47270  Biso   1.000  H
  N17      1.0000 0.33020  0.00000  0.56240  Biso   1.000  N
  C130     1.0000 0.23910  0.00000  0.04520  Biso   1.000  C
  C131     1.0000 0.26660  0.00000  0.61050  Biso   1.000  C
  C132     1.0000 0.40630  0.00000  0.58970  Biso   1.000  C
  C133     1.0000 0.22240  0.00000  0.96420  Biso   1.000  C
  H146     1.0000 0.28210  0.00000  0.66210  Biso   1.000  H
  H147     1.0000 0.40650  0.00000  0.64370  Biso   1.000  H
  Zn18     1.0000 0.00000  0.34910  0.32824  Biso   1.000  Zn
  O83      1.0000 0.00000  0.34350  0.21270  Biso   1.000  O
  O84      1.0000 0.00000  0.36580  0.44260  Biso   1.000  O
  C134     1.0000 0.00000  0.31750  0.48910  Biso   1.000  C
  H148     1.0000 0.00000  0.26890  0.47270  Biso   1.000  H
  N18      1.0000 0.00000  0.33020  0.56240  Biso   1.000  N
  C135     1.0000 0.00000  0.23910  0.04520  Biso   1.000  C
  C136     1.0000 0.00000  0.26660  0.61050  Biso   1.000  C
  C137     1.0000 0.00000  0.40630  0.58970  Biso   1.000  C
  C138     1.0000 0.00000  0.22240  0.96420  Biso   1.000  C
  H149     1.0000 0.00000  0.28210  0.66210  Biso   1.000  H
  H150     1.0000 0.00000  0.40650  0.64370  Biso   1.000  H
  C139     1.0000 0.19770  0.00000  0.81110  Biso   1.000  C
  H151     1.0000 0.18960  0.00000  0.75950  Biso   1.000  H
  C140     1.0000 0.00000  0.19770  0.81110  Biso   1.000  C
  H152     1.0000 0.00000  0.18960  0.75950  Biso   1.000  H
  C141     1.0000 0.80230  0.80230  0.81110  Biso   1.000  C
  H153     1.0000 0.81040  0.81040  0.75950  Biso   1.000  H
  C142     1.0000 0.80230  0.00000  0.31110  Biso   1.000  C
  H154     1.0000 0.81040  0.00000  0.25950  Biso   1.000  H
  C143     1.0000 0.00000  0.80230  0.31110  Biso   1.000  C
  H155     1.0000 0.00000  0.81040  0.25950  Biso   1.000  H
  C144     1.0000 0.19770  0.19770  0.31110  Biso   1.000  C
  H156     1.0000 0.18960  0.18960  0.25950  Biso   1.000  H
