data_image0
_cell_length_a       9.70968
_cell_length_b       20.906
_cell_length_c       24.7394
_cell_angle_alpha    104.603
_cell_angle_beta     90
_cell_angle_gamma    103.428

_symmetry_space_group_name_H-M    P 1
_symmetry_int_tables_number       1

loop_
  _symmetry_equiv_pos_as_xyz
  'x, y, z'

loop_
  _atom_site_label
  _atom_site_occupancy
  _atom_site_fract_x
  _atom_site_fract_y
  _atom_site_fract_z
  _atom_site_thermal_displace_type
  _atom_site_B_iso_or_equiv
  _atom_site_type_symbol
  Cu1      1.0000 0.64551  0.70924  0.46101  Biso   1.000  Cu
  Cu2      1.0000 0.03787  0.78468  0.50972  Biso   1.000  Cu
  Cu3      1.0000 0.76526  0.73872  0.60871  Biso   1.000  Cu
  Cu4      1.0000 0.93627  0.29076  0.03899  Biso   1.000  Cu
  Cu5      1.0000 0.25319  0.21532  0.99028  Biso   1.000  Cu
  Cu6      1.0000 0.02654  0.26128  0.89129  Biso   1.000  Cu
  Cu7      1.0000 0.35449  0.29076  0.53899  Biso   1.000  Cu
  Cu8      1.0000 0.96213  0.21532  0.49028  Biso   1.000  Cu
  Cu9      1.0000 0.23474  0.26128  0.39129  Biso   1.000  Cu
  Cu10     1.0000 0.06373  0.70924  0.96101  Biso   1.000  Cu
  Cu11     1.0000 0.74681  0.78468  0.00972  Biso   1.000  Cu
  Cu12     1.0000 0.97346  0.73872  0.10871  Biso   1.000  Cu
  H1       1.0000 0.26030  0.82000  0.91560  Biso   1.000  H
  H2       1.0000 0.42600  0.83060  0.84920  Biso   1.000  H
  H3       1.0000 0.40970  0.63240  0.82370  Biso   1.000  H
  H4       1.0000 0.24350  0.62700  0.88870  Biso   1.000  H
  H5       1.0000 0.76460  0.83160  0.72700  Biso   1.000  H
  H6       1.0000 0.63710  0.83040  0.80460  Biso   1.000  H
  H7       1.0000 0.45880  0.63640  0.73820  Biso   1.000  H
  H8       1.0000 0.58670  0.64320  0.66140  Biso   1.000  H
  H9       1.0000 0.12020  0.89660  0.45160  Biso   1.000  H
  H10      1.0000 0.29970  0.98900  0.45060  Biso   1.000  H
  H11      1.0000 0.53880  0.92400  0.54310  Biso   1.000  H
  H12      1.0000 0.35260  0.83560  0.54270  Biso   1.000  H
  H13      1.0000 0.25870  0.71440  0.53880  Biso   1.000  H
  H14      1.0000 0.30410  0.60780  0.51830  Biso   1.000  H
  H15      1.0000 0.97890  0.54580  0.40290  Biso   1.000  H
  H16      1.0000 0.94320  0.65320  0.42840  Biso   1.000  H
  H17      1.0000 0.60280  0.59400  0.55100  Biso   1.000  H
  H18      1.0000 0.62590  0.48540  0.52960  Biso   1.000  H
  H19      1.0000 0.96650  0.44320  0.41420  Biso   1.000  H
  H20      1.0000 0.99580  0.66400  0.60710  Biso   1.000  H
  H21      1.0000 0.44030  0.18000  0.58440  Biso   1.000  H
  H22      1.0000 0.59540  0.16940  0.65080  Biso   1.000  H
  H23      1.0000 0.77730  0.36760  0.67630  Biso   1.000  H
  H24      1.0000 0.61650  0.37300  0.61130  Biso   1.000  H
  H25      1.0000 0.93300  0.16840  0.77300  Biso   1.000  H
  H26      1.0000 0.80670  0.16960  0.69540  Biso   1.000  H
  H27      1.0000 0.82240  0.36360  0.76180  Biso   1.000  H
  H28      1.0000 0.94350  0.35680  0.83860  Biso   1.000  H
  H29      1.0000 0.22360  0.10340  0.04840  Biso   1.000  H
  H30      1.0000 0.31070  0.01100  0.04940  Biso   1.000  H
  H31      1.0000 0.61480  0.07600  0.95690  Biso   1.000  H
  H32      1.0000 0.51700  0.16440  0.95730  Biso   1.000  H
  H33      1.0000 0.54430  0.28560  0.96120  Biso   1.000  H
  H34      1.0000 0.69630  0.39220  0.98170  Biso   1.000  H
  H35      1.0000 0.43310  0.45420  0.09710  Biso   1.000  H
  H36      1.0000 0.29000  0.34680  0.07160  Biso   1.000  H
  H37      1.0000 0.00880  0.40600  0.94900  Biso   1.000  H
  H38      1.0000 0.14050  0.51460  0.97040  Biso   1.000  H
  H39      1.0000 0.52330  0.55680  0.08580  Biso   1.000  H
  H40      1.0000 0.33180  0.33600  0.89290  Biso   1.000  H
  H41      1.0000 0.73970  0.18000  0.08440  Biso   1.000  H
  H42      1.0000 0.57400  0.16940  0.15080  Biso   1.000  H
  H43      1.0000 0.59030  0.36760  0.17630  Biso   1.000  H
  H44      1.0000 0.75650  0.37300  0.11130  Biso   1.000  H
  H45      1.0000 0.23540  0.16840  0.27300  Biso   1.000  H
  H46      1.0000 0.36290  0.16960  0.19540  Biso   1.000  H
  H47      1.0000 0.54120  0.36360  0.26180  Biso   1.000  H
  H48      1.0000 0.41330  0.35680  0.33860  Biso   1.000  H
  H49      1.0000 0.87980  0.10340  0.54840  Biso   1.000  H
  H50      1.0000 0.70030  0.01100  0.54940  Biso   1.000  H
  H51      1.0000 0.46120  0.07600  0.45690  Biso   1.000  H
  H52      1.0000 0.64740  0.16440  0.45730  Biso   1.000  H
  H53      1.0000 0.74130  0.28560  0.46120  Biso   1.000  H
  H54      1.0000 0.69590  0.39220  0.48170  Biso   1.000  H
  H55      1.0000 0.02110  0.45420  0.59710  Biso   1.000  H
  H56      1.0000 0.05680  0.34680  0.57160  Biso   1.000  H
  H57      1.0000 0.39720  0.40600  0.44900  Biso   1.000  H
  H58      1.0000 0.37410  0.51460  0.47040  Biso   1.000  H
  H59      1.0000 0.03350  0.55680  0.58580  Biso   1.000  H
  H60      1.0000 0.00420  0.33600  0.39290  Biso   1.000  H
  H61      1.0000 0.55970  0.82000  0.41560  Biso   1.000  H
  H62      1.0000 0.40460  0.83060  0.34920  Biso   1.000  H
  H63      1.0000 0.22270  0.63240  0.32370  Biso   1.000  H
  H64      1.0000 0.38350  0.62700  0.38870  Biso   1.000  H
  H65      1.0000 0.06700  0.83160  0.22700  Biso   1.000  H
  H66      1.0000 0.19330  0.83040  0.30460  Biso   1.000  H
  H67      1.0000 0.17760  0.63640  0.23820  Biso   1.000  H
  H68      1.0000 0.05650  0.64320  0.16140  Biso   1.000  H
  H69      1.0000 0.77640  0.89660  0.95160  Biso   1.000  H
  H70      1.0000 0.68930  0.98900  0.95060  Biso   1.000  H
  H71      1.0000 0.38520  0.92400  0.04310  Biso   1.000  H
  H72      1.0000 0.48300  0.83560  0.04270  Biso   1.000  H
  H73      1.0000 0.45570  0.71440  0.03880  Biso   1.000  H
  H74      1.0000 0.30370  0.60780  0.01830  Biso   1.000  H
  H75      1.0000 0.56690  0.54580  0.90290  Biso   1.000  H
  H76      1.0000 0.71000  0.65320  0.92840  Biso   1.000  H
  H77      1.0000 0.99120  0.59400  0.05100  Biso   1.000  H
  H78      1.0000 0.85950  0.48540  0.02960  Biso   1.000  H
  H79      1.0000 0.47670  0.44320  0.91420  Biso   1.000  H
  H80      1.0000 0.66820  0.66400  0.10710  Biso   1.000  H
  W1       1.0000 0.79265  0.82018  0.53907  Biso   1.000  W
  W2       1.0000 0.97247  0.17982  0.96093  Biso   1.000  W
  W3       1.0000 0.20735  0.17982  0.46093  Biso   1.000  W
  W4       1.0000 0.02753  0.82018  0.03907  Biso   1.000  W
  C1       1.0000 0.28917  0.78154  0.89630  Biso   1.000  C
  C2       1.0000 0.38939  0.78838  0.85600  Biso   1.000  C
  C3       1.0000 0.43345  0.73150  0.82640  Biso   1.000  C
  C4       1.0000 0.37921  0.67122  0.84080  Biso   1.000  C
  C5       1.0000 0.27994  0.66848  0.88060  Biso   1.000  C
  C6       1.0000 0.69994  0.79148  0.72820  Biso   1.000  C
  C7       1.0000 0.62280  0.79120  0.77530  Biso   1.000  C
  C8       1.0000 0.52655  0.73410  0.77890  Biso   1.000  C
  C9       1.0000 0.51760  0.67780  0.73650  Biso   1.000  C
  C10      1.0000 0.59700  0.68240  0.69060  Biso   1.000  C
  C11      1.0000 0.20470  0.90320  0.47220  Biso   1.000  C
  C12      1.0000 0.31340  0.95900  0.47100  Biso   1.000  C
  C13      1.0000 0.44039  0.96998  0.49960  Biso   1.000  C
  C14      1.0000 0.45263  0.92126  0.52510  Biso   1.000  C
  C15      1.0000 0.33916  0.86792  0.52460  Biso   1.000  C
  C16      1.0000 0.19991  0.67962  0.51180  Biso   1.000  C
  C17      1.0000 0.22923  0.61546  0.49940  Biso   1.000  C
  C18      1.0000 0.14420  0.56320  0.45820  Biso   1.000  C
  C19      1.0000 0.03684  0.57888  0.43140  Biso   1.000  C
  C20      1.0000 0.01603  0.64386  0.44710  Biso   1.000  C
  C21      1.0000 0.69020  0.58620  0.55880  Biso   1.000  C
  C22      1.0000 0.70344  0.52088  0.54550  Biso   1.000  C
  C23      1.0000 0.16580  0.49320  0.44410  Biso   1.000  C
  C24      1.0000 0.05621  0.43722  0.42120  Biso   1.000  C
  C25      1.0000 0.92022  0.62724  0.59140  Biso   1.000  C
  C26      1.0000 0.64340  0.55620  0.41450  Biso   1.000  C
  C27      1.0000 0.50763  0.21846  0.60370  Biso   1.000  C
  C28      1.0000 0.60101  0.21162  0.64400  Biso   1.000  C
  C29      1.0000 0.70195  0.26850  0.67360  Biso   1.000  C
  C30      1.0000 0.70799  0.32878  0.65920  Biso   1.000  C
  C31      1.0000 0.61146  0.33152  0.61940  Biso   1.000  C
  C32      1.0000 0.90846  0.20852  0.77180  Biso   1.000  C
  C33      1.0000 0.83160  0.20880  0.72470  Biso   1.000  C
  C34      1.0000 0.79245  0.26590  0.72110  Biso   1.000  C
  C35      1.0000 0.83980  0.32220  0.76350  Biso   1.000  C
  C36      1.0000 0.91460  0.31760  0.80940  Biso   1.000  C
  C37      1.0000 0.30150  0.09680  0.02780  Biso   1.000  C
  C38      1.0000 0.35440  0.04100  0.02900  Biso   1.000  C
  C39      1.0000 0.47041  0.03002  0.00040  Biso   1.000  C
  C40      1.0000 0.53137  0.07874  0.97490  Biso   1.000  C
  C41      1.0000 0.47124  0.13208  0.97540  Biso   1.000  C
  C42      1.0000 0.52029  0.32038  0.98820  Biso   1.000  C
  C43      1.0000 0.61377  0.38454  0.00060  Biso   1.000  C
  C44      1.0000 0.58100  0.43680  0.04180  Biso   1.000  C
  C45      1.0000 0.45796  0.42112  0.06860  Biso   1.000  C
  C46      1.0000 0.37217  0.35614  0.05290  Biso   1.000  C
  C47      1.0000 0.10400  0.41380  0.94120  Biso   1.000  C
  C48      1.0000 0.18256  0.47912  0.95450  Biso   1.000  C
  C49      1.0000 0.67260  0.50680  0.05590  Biso   1.000  C
  C50      1.0000 0.61899  0.56278  0.07880  Biso   1.000  C
  C51      1.0000 0.29298  0.37276  0.90860  Biso   1.000  C
  C52      1.0000 0.08720  0.44380  0.08550  Biso   1.000  C
  C53      1.0000 0.71083  0.21846  0.10370  Biso   1.000  C
  C54      1.0000 0.61061  0.21162  0.14400  Biso   1.000  C
  C55      1.0000 0.56655  0.26850  0.17360  Biso   1.000  C
  C56      1.0000 0.62079  0.32878  0.15920  Biso   1.000  C
  C57      1.0000 0.72006  0.33152  0.11940  Biso   1.000  C
  C58      1.0000 0.30006  0.20852  0.27180  Biso   1.000  C
  C59      1.0000 0.37720  0.20880  0.22470  Biso   1.000  C
  C60      1.0000 0.47345  0.26590  0.22110  Biso   1.000  C
  C61      1.0000 0.48240  0.32220  0.26350  Biso   1.000  C
  C62      1.0000 0.40300  0.31760  0.30940  Biso   1.000  C
  C63      1.0000 0.79530  0.09680  0.52780  Biso   1.000  C
  C64      1.0000 0.68660  0.04100  0.52900  Biso   1.000  C
  C65      1.0000 0.55961  0.03002  0.50040  Biso   1.000  C
  C66      1.0000 0.54737  0.07874  0.47490  Biso   1.000  C
  C67      1.0000 0.66084  0.13208  0.47540  Biso   1.000  C
  C68      1.0000 0.80009  0.32038  0.48820  Biso   1.000  C
  C69      1.0000 0.77077  0.38454  0.50060  Biso   1.000  C
  C70      1.0000 0.85580  0.43680  0.54180  Biso   1.000  C
  C71      1.0000 0.96316  0.42112  0.56860  Biso   1.000  C
  C72      1.0000 0.98397  0.35614  0.55290  Biso   1.000  C
  C73      1.0000 0.30980  0.41380  0.44120  Biso   1.000  C
  C74      1.0000 0.29656  0.47912  0.45450  Biso   1.000  C
  C75      1.0000 0.83420  0.50680  0.55590  Biso   1.000  C
  C76      1.0000 0.94379  0.56278  0.57880  Biso   1.000  C
  C77      1.0000 0.07978  0.37276  0.40860  Biso   1.000  C
  C78      1.0000 0.35660  0.44380  0.58550  Biso   1.000  C
  C79      1.0000 0.49237  0.78154  0.39630  Biso   1.000  C
  C80      1.0000 0.39899  0.78838  0.35600  Biso   1.000  C
  C81      1.0000 0.29805  0.73150  0.32640  Biso   1.000  C
  C82      1.0000 0.29201  0.67122  0.34080  Biso   1.000  C
  C83      1.0000 0.38854  0.66848  0.38060  Biso   1.000  C
  C84      1.0000 0.09154  0.79148  0.22820  Biso   1.000  C
  C85      1.0000 0.16840  0.79120  0.27530  Biso   1.000  C
  C86      1.0000 0.20755  0.73410  0.27890  Biso   1.000  C
  C87      1.0000 0.16020  0.67780  0.23650  Biso   1.000  C
  C88      1.0000 0.08540  0.68240  0.19060  Biso   1.000  C
  C89      1.0000 0.69850  0.90320  0.97220  Biso   1.000  C
  C90      1.0000 0.64560  0.95900  0.97100  Biso   1.000  C
  C91      1.0000 0.52959  0.96998  0.99960  Biso   1.000  C
  C92      1.0000 0.46863  0.92126  0.02510  Biso   1.000  C
  C93      1.0000 0.52876  0.86792  0.02460  Biso   1.000  C
  C94      1.0000 0.47971  0.67962  0.01180  Biso   1.000  C
  C95      1.0000 0.38623  0.61546  0.99940  Biso   1.000  C
  C96      1.0000 0.41900  0.56320  0.95820  Biso   1.000  C
  C97      1.0000 0.54204  0.57888  0.93140  Biso   1.000  C
  C98      1.0000 0.62783  0.64386  0.94710  Biso   1.000  C
  C99      1.0000 0.89600  0.58620  0.05880  Biso   1.000  C
  C100     1.0000 0.81744  0.52088  0.04550  Biso   1.000  C
  C101     1.0000 0.32740  0.49320  0.94410  Biso   1.000  C
  C102     1.0000 0.38101  0.43722  0.92120  Biso   1.000  C
  C103     1.0000 0.70702  0.62724  0.09140  Biso   1.000  C
  C104     1.0000 0.91280  0.55620  0.91450  Biso   1.000  C
  S1       1.0000 0.85401  0.78442  0.45057  Biso   1.000  S
  S2       1.0000 0.96540  0.81672  0.59911  Biso   1.000  S
  S3       1.0000 0.58906  0.74862  0.55141  Biso   1.000  S
  S4       1.0000 0.65932  0.47764  0.38981  Biso   1.000  S
  S5       1.0000 0.06959  0.21558  0.04943  Biso   1.000  S
  S6       1.0000 0.14868  0.18328  0.90089  Biso   1.000  S
  S7       1.0000 0.84044  0.25138  0.94859  Biso   1.000  S
  S8       1.0000 0.18168  0.52236  0.11019  Biso   1.000  S
  S9       1.0000 0.14599  0.21558  0.54943  Biso   1.000  S
  S10      1.0000 0.03460  0.18328  0.40089  Biso   1.000  S
  S11      1.0000 0.41094  0.25138  0.44859  Biso   1.000  S
  S12      1.0000 0.34068  0.52236  0.61019  Biso   1.000  S
  S13      1.0000 0.93041  0.78442  0.95057  Biso   1.000  S
  S14      1.0000 0.85132  0.81672  0.09911  Biso   1.000  S
  S15      1.0000 0.15956  0.74862  0.05141  Biso   1.000  S
  S16      1.0000 0.81832  0.47764  0.88981  Biso   1.000  S
  N1       1.0000 0.63336  0.61092  0.43120  Biso   1.000  N
  N2       1.0000 0.51090  0.27740  0.59170  Biso   1.000  N
  N3       1.0000 0.68654  0.73848  0.68550  Biso   1.000  N
  N4       1.0000 0.21381  0.85902  0.50090  Biso   1.000  N
  N5       1.0000 0.09389  0.69398  0.48760  Biso   1.000  N
  N6       1.0000 0.79486  0.63992  0.58240  Biso   1.000  N
  N7       1.0000 0.02244  0.38908  0.06880  Biso   1.000  N
  N8       1.0000 0.23350  0.72260  0.90830  Biso   1.000  N
  N9       1.0000 0.94806  0.26152  0.81450  Biso   1.000  N
  N10      1.0000 0.35479  0.14098  0.99910  Biso   1.000  N
  N11      1.0000 0.39991  0.30602  0.01240  Biso   1.000  N
  N12      1.0000 0.15494  0.36008  0.91760  Biso   1.000  N
  N13      1.0000 0.36664  0.38908  0.56880  Biso   1.000  N
  N14      1.0000 0.48910  0.72260  0.40830  Biso   1.000  N
  N15      1.0000 0.31346  0.26152  0.31450  Biso   1.000  N
  N16      1.0000 0.78619  0.14098  0.49910  Biso   1.000  N
  N17      1.0000 0.90611  0.30602  0.51240  Biso   1.000  N
  N18      1.0000 0.20514  0.36008  0.41760  Biso   1.000  N
  N19      1.0000 0.97756  0.61092  0.93120  Biso   1.000  N
  N20      1.0000 0.76650  0.27740  0.09170  Biso   1.000  N
  N21      1.0000 0.05194  0.73848  0.18550  Biso   1.000  N
  N22      1.0000 0.64521  0.85902  0.00090  Biso   1.000  N
  N23      1.0000 0.60009  0.69398  0.98760  Biso   1.000  N
  N24      1.0000 0.84506  0.63992  0.08240  Biso   1.000  N
  O1       1.0000 0.76917  0.90174  0.55190  Biso   1.000  O
  O2       1.0000 0.86743  0.09826  0.94810  Biso   1.000  O
  O3       1.0000 0.23083  0.09826  0.44810  Biso   1.000  O
  O4       1.0000 0.13257  0.90174  0.05190  Biso   1.000  O
