data_image0
_cell_length_a       15.437
_cell_length_b       15.437
_cell_length_c       7.5112
_cell_angle_alpha    90
_cell_angle_beta     90
_cell_angle_gamma    90

_symmetry_space_group_name_H-M    "P 1"
_symmetry_int_tables_number       1

loop_
  _symmetry_equiv_pos_as_xyz
  'x, y, z'

loop_
  _atom_site_label
  _atom_site_occupancy
  _atom_site_fract_x
  _atom_site_fract_y
  _atom_site_fract_z
  _atom_site_thermal_displace_type
  _atom_site_B_iso_or_equiv
  _atom_site_type_symbol
  S1       1.0000 0.41788  0.52951  0.27047  Biso   1.000  S
  S2       1.0000 0.59615  0.58087  0.36300  Biso   1.000  S
  N1       1.0000 0.33320  0.68050  0.66020  Biso   1.000  N
  C1       1.0000 0.47560  0.59060  0.11300  Biso   1.000  C
  C2       1.0000 0.55650  0.61270  0.15760  Biso   1.000  C
  H1       1.0000 0.59080  0.64450  0.07970  Biso   1.000  H
  C3       1.0000 0.50300  0.52250  0.42370  Biso   1.000  C
  C4       1.0000 0.41910  0.69360  0.67500  Biso   1.000  C
  H2       1.0000 0.44660  0.72470  0.58540  Biso   1.000  H
  C5       1.0000 0.46870  0.66390  0.81350  Biso   1.000  C
  H3       1.0000 0.52790  0.67480  0.81600  Biso   1.000  H
  C6       1.0000 0.42970  0.61720  0.95030  Biso   1.000  C
  C7       1.0000 0.34250  0.59960  0.92980  Biso   1.000  C
  H4       1.0000 0.31390  0.56580  0.01390  Biso   1.000  H
  C8       1.0000 0.29760  0.63160  0.78580  Biso   1.000  C
  H5       1.0000 0.23910  0.61820  0.77580  Biso   1.000  H
  S3       1.0000 0.08212  0.97049  0.27047  Biso   1.000  S
  S4       1.0000 0.90385  0.91913  0.36300  Biso   1.000  S
  N2       1.0000 0.16680  0.81950  0.66020  Biso   1.000  N
  C9       1.0000 0.02440  0.90940  0.11300  Biso   1.000  C
  C10      1.0000 0.94350  0.88730  0.15760  Biso   1.000  C
  H6       1.0000 0.90920  0.85550  0.07970  Biso   1.000  H
  C11      1.0000 0.99700  0.97750  0.42370  Biso   1.000  C
  C12      1.0000 0.08090  0.80640  0.67500  Biso   1.000  C
  H7       1.0000 0.05340  0.77530  0.58540  Biso   1.000  H
  C13      1.0000 0.03130  0.83610  0.81350  Biso   1.000  C
  H8       1.0000 0.97210  0.82520  0.81600  Biso   1.000  H
  C14      1.0000 0.07030  0.88280  0.95030  Biso   1.000  C
  C15      1.0000 0.15750  0.90040  0.92980  Biso   1.000  C
  H9       1.0000 0.18610  0.93420  0.01390  Biso   1.000  H
  C16      1.0000 0.20240  0.86840  0.78580  Biso   1.000  C
  H10      1.0000 0.26090  0.88180  0.77580  Biso   1.000  H
  S5       1.0000 0.97049  0.41788  0.27047  Biso   1.000  S
  S6       1.0000 0.91913  0.59615  0.36300  Biso   1.000  S
  N3       1.0000 0.81950  0.33320  0.66020  Biso   1.000  N
  C17      1.0000 0.90940  0.47560  0.11300  Biso   1.000  C
  C18      1.0000 0.88730  0.55650  0.15760  Biso   1.000  C
  H11      1.0000 0.85550  0.59080  0.07970  Biso   1.000  H
  C19      1.0000 0.97750  0.50300  0.42370  Biso   1.000  C
  C20      1.0000 0.80640  0.41910  0.67500  Biso   1.000  C
  H12      1.0000 0.77530  0.44660  0.58540  Biso   1.000  H
  C21      1.0000 0.83610  0.46870  0.81350  Biso   1.000  C
  H13      1.0000 0.82520  0.52790  0.81600  Biso   1.000  H
  C22      1.0000 0.88280  0.42970  0.95030  Biso   1.000  C
  C23      1.0000 0.90040  0.34250  0.92980  Biso   1.000  C
  H14      1.0000 0.93420  0.31390  0.01390  Biso   1.000  H
  C24      1.0000 0.86840  0.29760  0.78580  Biso   1.000  C
  H15      1.0000 0.88180  0.23910  0.77580  Biso   1.000  H
  S7       1.0000 0.52951  0.08212  0.27047  Biso   1.000  S
  S8       1.0000 0.58087  0.90385  0.36300  Biso   1.000  S
  N4       1.0000 0.68050  0.16680  0.66020  Biso   1.000  N
  C25      1.0000 0.59060  0.02440  0.11300  Biso   1.000  C
  C26      1.0000 0.61270  0.94350  0.15760  Biso   1.000  C
  H16      1.0000 0.64450  0.90920  0.07970  Biso   1.000  H
  C27      1.0000 0.52250  0.99700  0.42370  Biso   1.000  C
  C28      1.0000 0.69360  0.08090  0.67500  Biso   1.000  C
  H17      1.0000 0.72470  0.05340  0.58540  Biso   1.000  H
  C29      1.0000 0.66390  0.03130  0.81350  Biso   1.000  C
  H18      1.0000 0.67480  0.97210  0.81600  Biso   1.000  H
  C30      1.0000 0.61720  0.07030  0.95030  Biso   1.000  C
  C31      1.0000 0.59960  0.15750  0.92980  Biso   1.000  C
  H19      1.0000 0.56580  0.18610  0.01390  Biso   1.000  H
  C32      1.0000 0.63160  0.20240  0.78580  Biso   1.000  C
  H20      1.0000 0.61820  0.26090  0.77580  Biso   1.000  H
  S9       1.0000 0.58212  0.47049  0.72953  Biso   1.000  S
  S10      1.0000 0.40385  0.41913  0.63700  Biso   1.000  S
  N5       1.0000 0.66680  0.31950  0.33980  Biso   1.000  N
  C33      1.0000 0.52440  0.40940  0.88700  Biso   1.000  C
  C34      1.0000 0.44350  0.38730  0.84240  Biso   1.000  C
  H21      1.0000 0.40920  0.35550  0.92030  Biso   1.000  H
  C35      1.0000 0.49700  0.47750  0.57630  Biso   1.000  C
  C36      1.0000 0.58090  0.30640  0.32500  Biso   1.000  C
  H22      1.0000 0.55340  0.27530  0.41460  Biso   1.000  H
  C37      1.0000 0.53130  0.33610  0.18650  Biso   1.000  C
  H23      1.0000 0.47210  0.32520  0.18400  Biso   1.000  H
  C38      1.0000 0.57030  0.38280  0.04970  Biso   1.000  C
  C39      1.0000 0.65750  0.40040  0.07020  Biso   1.000  C
  H24      1.0000 0.68610  0.43420  0.98610  Biso   1.000  H
  C40      1.0000 0.70240  0.36840  0.21420  Biso   1.000  C
  H25      1.0000 0.76090  0.38180  0.22420  Biso   1.000  H
  S11      1.0000 0.91788  0.02951  0.72953  Biso   1.000  S
  S12      1.0000 0.09615  0.08087  0.63700  Biso   1.000  S
  N6       1.0000 0.83320  0.18050  0.33980  Biso   1.000  N
  C41      1.0000 0.97560  0.09060  0.88700  Biso   1.000  C
  C42      1.0000 0.05650  0.11270  0.84240  Biso   1.000  C
  H26      1.0000 0.09080  0.14450  0.92030  Biso   1.000  H
  C43      1.0000 0.00300  0.02250  0.57630  Biso   1.000  C
  C44      1.0000 0.91910  0.19360  0.32500  Biso   1.000  C
  H27      1.0000 0.94660  0.22470  0.41460  Biso   1.000  H
  C45      1.0000 0.96870  0.16390  0.18650  Biso   1.000  C
  H28      1.0000 0.02790  0.17480  0.18400  Biso   1.000  H
  C46      1.0000 0.92970  0.11720  0.04970  Biso   1.000  C
  C47      1.0000 0.84250  0.09960  0.07020  Biso   1.000  C
  H29      1.0000 0.81390  0.06580  0.98610  Biso   1.000  H
  C48      1.0000 0.79760  0.13160  0.21420  Biso   1.000  C
  H30      1.0000 0.73910  0.11820  0.22420  Biso   1.000  H
  S13      1.0000 0.02951  0.58212  0.72953  Biso   1.000  S
  S14      1.0000 0.08087  0.40385  0.63700  Biso   1.000  S
  N7       1.0000 0.18050  0.66680  0.33980  Biso   1.000  N
  C49      1.0000 0.09060  0.52440  0.88700  Biso   1.000  C
  C50      1.0000 0.11270  0.44350  0.84240  Biso   1.000  C
  H31      1.0000 0.14450  0.40920  0.92030  Biso   1.000  H
  C51      1.0000 0.02250  0.49700  0.57630  Biso   1.000  C
  C52      1.0000 0.19360  0.58090  0.32500  Biso   1.000  C
  H32      1.0000 0.22470  0.55340  0.41460  Biso   1.000  H
  C53      1.0000 0.16390  0.53130  0.18650  Biso   1.000  C
  H33      1.0000 0.17480  0.47210  0.18400  Biso   1.000  H
  C54      1.0000 0.11720  0.57030  0.04970  Biso   1.000  C
  C55      1.0000 0.09960  0.65750  0.07020  Biso   1.000  C
  H34      1.0000 0.06580  0.68610  0.98610  Biso   1.000  H
  C56      1.0000 0.13160  0.70240  0.21420  Biso   1.000  C
  H35      1.0000 0.11820  0.76090  0.22420  Biso   1.000  H
  S15      1.0000 0.47049  0.91788  0.72953  Biso   1.000  S
  S16      1.0000 0.41913  0.09615  0.63700  Biso   1.000  S
  N8       1.0000 0.31950  0.83320  0.33980  Biso   1.000  N
  C57      1.0000 0.40940  0.97560  0.88700  Biso   1.000  C
  C58      1.0000 0.38730  0.05650  0.84240  Biso   1.000  C
  H36      1.0000 0.35550  0.09080  0.92030  Biso   1.000  H
  C59      1.0000 0.47750  0.00300  0.57630  Biso   1.000  C
  C60      1.0000 0.30640  0.91910  0.32500  Biso   1.000  C
  H37      1.0000 0.27530  0.94660  0.41460  Biso   1.000  H
  C61      1.0000 0.33610  0.96870  0.18650  Biso   1.000  C
  H38      1.0000 0.32520  0.02790  0.18400  Biso   1.000  H
  C62      1.0000 0.38280  0.92970  0.04970  Biso   1.000  C
  C63      1.0000 0.40040  0.84250  0.07020  Biso   1.000  C
  H39      1.0000 0.43420  0.81390  0.98610  Biso   1.000  H
  C64      1.0000 0.36840  0.79760  0.21420  Biso   1.000  C
  H40      1.0000 0.38180  0.73910  0.22420  Biso   1.000  H
  Cu1      1.0000 0.25000  0.75000  0.50000  Biso   1.000  Cu
  Cu2      1.0000 0.75000  0.25000  0.50000  Biso   1.000  Cu
