data_image0
_cell_length_a       22.28
_cell_length_b       22.2
_cell_length_c       11.198
_cell_angle_alpha    90
_cell_angle_beta     90.931
_cell_angle_gamma    90

_symmetry_space_group_name_H-M    "P 1"
_symmetry_int_tables_number       1

loop_
  _symmetry_equiv_pos_as_xyz
  'x, y, z'

loop_
  _atom_site_label
  _atom_site_occupancy
  _atom_site_fract_x
  _atom_site_fract_y
  _atom_site_fract_z
  _atom_site_thermal_displace_type
  _atom_site_B_iso_or_equiv
  _atom_site_type_symbol
  Cu1      1.0000 0.24721  0.18029  0.96773  Biso   1.000  Cu
  S1       1.0000 0.08555  0.17518  0.91112  Biso   1.000  S
  N1       1.0000 0.24768  0.08812  0.97380  Biso   1.000  N
  N2       1.0000 0.25198  0.77098  0.03020  Biso   1.000  N
  O1       1.0000 0.14381  0.17501  0.97460  Biso   1.000  O
  C1       1.0000 0.03179  0.17710  0.02660  Biso   1.000  C
  H1       1.0000 0.03720  0.14160  0.07910  Biso   1.000  H
  H2       1.0000 0.03790  0.21370  0.07570  Biso   1.000  H
  C2       1.0000 0.25080  0.89680  0.00730  Biso   1.000  C
  N3       1.0000 0.24785  0.17900  0.78460  Biso   1.000  N
  O2       1.0000 0.07646  0.22787  0.83830  Biso   1.000  O
  O3       1.0000 0.07518  0.11931  0.84530  Biso   1.000  O
  C3       1.0000 0.24860  0.18170  0.40080  Biso   1.000  C
  C4       1.0000 0.30330  0.86590  0.03140  Biso   1.000  C
  H3       1.0000 0.34010  0.88720  0.04020  Biso   1.000  H
  N4       1.0000 0.24787  0.18305  0.14970  Biso   1.000  N
  C5       1.0000 0.29240  0.20600  0.72410  Biso   1.000  C
  H4       1.0000 0.32310  0.22600  0.76860  Biso   1.000  H
  C6       1.0000 0.24810  0.18090  0.53420  Biso   1.000  C
  C7       1.0000 0.24940  0.96270  0.99500  Biso   1.000  C
  C8       1.0000 0.29730  0.16140  0.33910  Biso   1.000  C
  H5       1.0000 0.33190  0.14730  0.38100  Biso   1.000  H
  C9       1.0000 0.20060  0.20510  0.33650  Biso   1.000  C
  H6       1.0000 0.16680  0.22110  0.37660  Biso   1.000  H
  C10      1.0000 0.20230  0.20510  0.21150  Biso   1.000  C
  H7       1.0000 0.16920  0.22170  0.16850  Biso   1.000  H
  C11      1.0000 0.29150  0.99320  0.92670  Biso   1.000  C
  H8       1.0000 0.32200  0.97150  0.88670  Biso   1.000  H
  C12      1.0000 0.20390  0.15380  0.71970  Biso   1.000  C
  H9       1.0000 0.17210  0.13450  0.76020  Biso   1.000  H
  C13      1.0000 0.29580  0.20630  0.60120  Biso   1.000  C
  H10      1.0000 0.32950  0.22310  0.56260  Biso   1.000  H
  C14      1.0000 0.19800  0.86300  0.99520  Biso   1.000  C
  H11      1.0000 0.16070  0.88260  0.98030  Biso   1.000  H
  C15      1.0000 0.20670  0.05920  0.04020  Biso   1.000  C
  H12      1.0000 0.17710  0.08220  0.08000  Biso   1.000  H
  C16      1.0000 0.28820  0.05560  0.91780  Biso   1.000  C
  H13      1.0000 0.31640  0.07590  0.86920  Biso   1.000  H
  C17      1.0000 0.20050  0.80150  0.00520  Biso   1.000  C
  H14      1.0000 0.16450  0.77920  0.99400  Biso   1.000  H
  C18      1.0000 0.29570  0.16170  0.21490  Biso   1.000  C
  H15      1.0000 0.32930  0.14640  0.17360  Biso   1.000  H
  C19      1.0000 0.30230  0.80350  0.04300  Biso   1.000  C
  H16      1.0000 0.33890  0.78310  0.06070  Biso   1.000  H
  C20      1.0000 0.20240  0.15440  0.59610  Biso   1.000  C
  H17      1.0000 0.16960  0.13650  0.55400  Biso   1.000  H
  C21      1.0000 0.20650  0.99740  0.05190  Biso   1.000  C
  H18      1.0000 0.17690  0.97850  0.09910  Biso   1.000  H
  Cu2      1.0000 0.74721  0.68029  0.96773  Biso   1.000  Cu
  S2       1.0000 0.58555  0.67518  0.91112  Biso   1.000  S
  N5       1.0000 0.74768  0.58812  0.97380  Biso   1.000  N
  N6       1.0000 0.75198  0.27098  0.03020  Biso   1.000  N
  O4       1.0000 0.64381  0.67501  0.97460  Biso   1.000  O
  C22      1.0000 0.53179  0.67710  0.02660  Biso   1.000  C
  H19      1.0000 0.53720  0.64160  0.07910  Biso   1.000  H
  H20      1.0000 0.53790  0.71370  0.07570  Biso   1.000  H
  C23      1.0000 0.75080  0.39680  0.00730  Biso   1.000  C
  N7       1.0000 0.74785  0.67900  0.78460  Biso   1.000  N
  O5       1.0000 0.57646  0.72787  0.83830  Biso   1.000  O
  O6       1.0000 0.57518  0.61931  0.84530  Biso   1.000  O
  C24      1.0000 0.74860  0.68170  0.40080  Biso   1.000  C
  C25      1.0000 0.80330  0.36590  0.03140  Biso   1.000  C
  H21      1.0000 0.84010  0.38720  0.04020  Biso   1.000  H
  N8       1.0000 0.74787  0.68305  0.14970  Biso   1.000  N
  C26      1.0000 0.79240  0.70600  0.72410  Biso   1.000  C
  H22      1.0000 0.82310  0.72600  0.76860  Biso   1.000  H
  C27      1.0000 0.74810  0.68090  0.53420  Biso   1.000  C
  C28      1.0000 0.74940  0.46270  0.99500  Biso   1.000  C
  C29      1.0000 0.79730  0.66140  0.33910  Biso   1.000  C
  H23      1.0000 0.83190  0.64730  0.38100  Biso   1.000  H
  C30      1.0000 0.70060  0.70510  0.33650  Biso   1.000  C
  H24      1.0000 0.66680  0.72110  0.37660  Biso   1.000  H
  C31      1.0000 0.70230  0.70510  0.21150  Biso   1.000  C
  H25      1.0000 0.66920  0.72170  0.16850  Biso   1.000  H
  C32      1.0000 0.79150  0.49320  0.92670  Biso   1.000  C
  H26      1.0000 0.82200  0.47150  0.88670  Biso   1.000  H
  C33      1.0000 0.70390  0.65380  0.71970  Biso   1.000  C
  H27      1.0000 0.67210  0.63450  0.76020  Biso   1.000  H
  C34      1.0000 0.79580  0.70630  0.60120  Biso   1.000  C
  H28      1.0000 0.82950  0.72310  0.56260  Biso   1.000  H
  C35      1.0000 0.69800  0.36300  0.99520  Biso   1.000  C
  H29      1.0000 0.66070  0.38260  0.98030  Biso   1.000  H
  C36      1.0000 0.70670  0.55920  0.04020  Biso   1.000  C
  H30      1.0000 0.67710  0.58220  0.08000  Biso   1.000  H
  C37      1.0000 0.78820  0.55560  0.91780  Biso   1.000  C
  H31      1.0000 0.81640  0.57590  0.86920  Biso   1.000  H
  C38      1.0000 0.70050  0.30150  0.00520  Biso   1.000  C
  H32      1.0000 0.66450  0.27920  0.99400  Biso   1.000  H
  C39      1.0000 0.79570  0.66170  0.21490  Biso   1.000  C
  H33      1.0000 0.82930  0.64640  0.17360  Biso   1.000  H
  C40      1.0000 0.80230  0.30350  0.04300  Biso   1.000  C
  H34      1.0000 0.83890  0.28310  0.06070  Biso   1.000  H
  C41      1.0000 0.70240  0.65440  0.59610  Biso   1.000  C
  H35      1.0000 0.66960  0.63650  0.55400  Biso   1.000  H
  C42      1.0000 0.70650  0.49740  0.05190  Biso   1.000  C
  H36      1.0000 0.67690  0.47850  0.09910  Biso   1.000  H
  Cu3      1.0000 0.75279  0.18029  0.03227  Biso   1.000  Cu
  S3       1.0000 0.91445  0.17518  0.08888  Biso   1.000  S
  N9       1.0000 0.75232  0.08812  0.02620  Biso   1.000  N
  N10      1.0000 0.74802  0.77098  0.96980  Biso   1.000  N
  O7       1.0000 0.85619  0.17501  0.02540  Biso   1.000  O
  C43      1.0000 0.96821  0.17710  0.97340  Biso   1.000  C
  H37      1.0000 0.96280  0.14160  0.92090  Biso   1.000  H
  H38      1.0000 0.96210  0.21370  0.92430  Biso   1.000  H
  C44      1.0000 0.74920  0.89680  0.99270  Biso   1.000  C
  N11      1.0000 0.75215  0.17900  0.21540  Biso   1.000  N
  O8       1.0000 0.92354  0.22787  0.16170  Biso   1.000  O
  O9       1.0000 0.92482  0.11931  0.15470  Biso   1.000  O
  C45      1.0000 0.75140  0.18170  0.59920  Biso   1.000  C
  C46      1.0000 0.69670  0.86590  0.96860  Biso   1.000  C
  H39      1.0000 0.65990  0.88720  0.95980  Biso   1.000  H
  N12      1.0000 0.75213  0.18305  0.85030  Biso   1.000  N
  C47      1.0000 0.70760  0.20600  0.27590  Biso   1.000  C
  H40      1.0000 0.67690  0.22600  0.23140  Biso   1.000  H
  C48      1.0000 0.75190  0.18090  0.46580  Biso   1.000  C
  C49      1.0000 0.75060  0.96270  0.00500  Biso   1.000  C
  C50      1.0000 0.70270  0.16140  0.66090  Biso   1.000  C
  H41      1.0000 0.66810  0.14730  0.61900  Biso   1.000  H
  C51      1.0000 0.79940  0.20510  0.66350  Biso   1.000  C
  H42      1.0000 0.83320  0.22110  0.62340  Biso   1.000  H
  C52      1.0000 0.79770  0.20510  0.78850  Biso   1.000  C
  H43      1.0000 0.83080  0.22170  0.83150  Biso   1.000  H
  C53      1.0000 0.70850  0.99320  0.07330  Biso   1.000  C
  H44      1.0000 0.67800  0.97150  0.11330  Biso   1.000  H
  C54      1.0000 0.79610  0.15380  0.28030  Biso   1.000  C
  H45      1.0000 0.82790  0.13450  0.23980  Biso   1.000  H
  C55      1.0000 0.70420  0.20630  0.39880  Biso   1.000  C
  H46      1.0000 0.67050  0.22310  0.43740  Biso   1.000  H
  C56      1.0000 0.80200  0.86300  0.00480  Biso   1.000  C
  H47      1.0000 0.83930  0.88260  0.01970  Biso   1.000  H
  C57      1.0000 0.79330  0.05920  0.95980  Biso   1.000  C
  H48      1.0000 0.82290  0.08220  0.92000  Biso   1.000  H
  C58      1.0000 0.71180  0.05560  0.08220  Biso   1.000  C
  H49      1.0000 0.68360  0.07590  0.13080  Biso   1.000  H
  C59      1.0000 0.79950  0.80150  0.99480  Biso   1.000  C
  H50      1.0000 0.83550  0.77920  0.00600  Biso   1.000  H
  C60      1.0000 0.70430  0.16170  0.78510  Biso   1.000  C
  H51      1.0000 0.67070  0.14640  0.82640  Biso   1.000  H
  C61      1.0000 0.69770  0.80350  0.95700  Biso   1.000  C
  H52      1.0000 0.66110  0.78310  0.93930  Biso   1.000  H
  C62      1.0000 0.79760  0.15440  0.40390  Biso   1.000  C
  H53      1.0000 0.83040  0.13650  0.44600  Biso   1.000  H
  C63      1.0000 0.79350  0.99740  0.94810  Biso   1.000  C
  H54      1.0000 0.82310  0.97850  0.90090  Biso   1.000  H
  Cu4      1.0000 0.25279  0.68029  0.03227  Biso   1.000  Cu
  S4       1.0000 0.41445  0.67518  0.08888  Biso   1.000  S
  N13      1.0000 0.25232  0.58812  0.02620  Biso   1.000  N
  N14      1.0000 0.24802  0.27098  0.96980  Biso   1.000  N
  O10      1.0000 0.35619  0.67501  0.02540  Biso   1.000  O
  C64      1.0000 0.46821  0.67710  0.97340  Biso   1.000  C
  H55      1.0000 0.46280  0.64160  0.92090  Biso   1.000  H
  H56      1.0000 0.46210  0.71370  0.92430  Biso   1.000  H
  C65      1.0000 0.24920  0.39680  0.99270  Biso   1.000  C
  N15      1.0000 0.25215  0.67900  0.21540  Biso   1.000  N
  O11      1.0000 0.42354  0.72787  0.16170  Biso   1.000  O
  O12      1.0000 0.42482  0.61931  0.15470  Biso   1.000  O
  C66      1.0000 0.25140  0.68170  0.59920  Biso   1.000  C
  C67      1.0000 0.19670  0.36590  0.96860  Biso   1.000  C
  H57      1.0000 0.15990  0.38720  0.95980  Biso   1.000  H
  N16      1.0000 0.25213  0.68305  0.85030  Biso   1.000  N
  C68      1.0000 0.20760  0.70600  0.27590  Biso   1.000  C
  H58      1.0000 0.17690  0.72600  0.23140  Biso   1.000  H
  C69      1.0000 0.25190  0.68090  0.46580  Biso   1.000  C
  C70      1.0000 0.25060  0.46270  0.00500  Biso   1.000  C
  C71      1.0000 0.20270  0.66140  0.66090  Biso   1.000  C
  H59      1.0000 0.16810  0.64730  0.61900  Biso   1.000  H
  C72      1.0000 0.29940  0.70510  0.66350  Biso   1.000  C
  H60      1.0000 0.33320  0.72110  0.62340  Biso   1.000  H
  C73      1.0000 0.29770  0.70510  0.78850  Biso   1.000  C
  H61      1.0000 0.33080  0.72170  0.83150  Biso   1.000  H
  C74      1.0000 0.20850  0.49320  0.07330  Biso   1.000  C
  H62      1.0000 0.17800  0.47150  0.11330  Biso   1.000  H
  C75      1.0000 0.29610  0.65380  0.28030  Biso   1.000  C
  H63      1.0000 0.32790  0.63450  0.23980  Biso   1.000  H
  C76      1.0000 0.20420  0.70630  0.39880  Biso   1.000  C
  H64      1.0000 0.17050  0.72310  0.43740  Biso   1.000  H
  C77      1.0000 0.30200  0.36300  0.00480  Biso   1.000  C
  H65      1.0000 0.33930  0.38260  0.01970  Biso   1.000  H
  C78      1.0000 0.29330  0.55920  0.95980  Biso   1.000  C
  H66      1.0000 0.32290  0.58220  0.92000  Biso   1.000  H
  C79      1.0000 0.21180  0.55560  0.08220  Biso   1.000  C
  H67      1.0000 0.18360  0.57590  0.13080  Biso   1.000  H
  C80      1.0000 0.29950  0.30150  0.99480  Biso   1.000  C
  H68      1.0000 0.33550  0.27920  0.00600  Biso   1.000  H
  C81      1.0000 0.20430  0.66170  0.78510  Biso   1.000  C
  H69      1.0000 0.17070  0.64640  0.82640  Biso   1.000  H
  C82      1.0000 0.19770  0.30350  0.95700  Biso   1.000  C
  H70      1.0000 0.16110  0.28310  0.93930  Biso   1.000  H
  C83      1.0000 0.29760  0.65440  0.40390  Biso   1.000  C
  H71      1.0000 0.33040  0.63650  0.44600  Biso   1.000  H
  C84      1.0000 0.29350  0.49740  0.94810  Biso   1.000  C
  H72      1.0000 0.32310  0.47850  0.90090  Biso   1.000  H
  N17      1.0000 0.40815  0.35469  0.52050  Biso   1.000  N
  N18      1.0000 0.09088  0.35840  0.52300  Biso   1.000  N
  C85      1.0000 0.28301  0.35670  0.53250  Biso   1.000  C
  C86      1.0000 0.21546  0.35750  0.53360  Biso   1.000  C
  C87      1.0000 0.31210  0.33600  0.42970  Biso   1.000  C
  H73      1.0000 0.28960  0.32350  0.36130  Biso   1.000  H
  C88      1.0000 0.18340  0.32910  0.62100  Biso   1.000  C
  H74      1.0000 0.20340  0.30960  0.68600  Biso   1.000  H
  C89      1.0000 0.12370  0.38720  0.44110  Biso   1.000  C
  H75      1.0000 0.10340  0.40870  0.37930  Biso   1.000  H
  C90      1.0000 0.37990  0.37450  0.61890  Biso   1.000  C
  H76      1.0000 0.40340  0.38860  0.68460  Biso   1.000  H
  C91      1.0000 0.18520  0.38680  0.44280  Biso   1.000  C
  H77      1.0000 0.20670  0.40660  0.38170  Biso   1.000  H
  C92      1.0000 0.12130  0.32950  0.61210  Biso   1.000  C
  H78      1.0000 0.09910  0.30870  0.67090  Biso   1.000  H
  C93      1.0000 0.31840  0.37510  0.62770  Biso   1.000  C
  H79      1.0000 0.30040  0.38820  0.69940  Biso   1.000  H
  C94      1.0000 0.37350  0.33430  0.43030  Biso   1.000  C
  H80      1.0000 0.39280  0.31760  0.36280  Biso   1.000  H
  C95      1.0000 0.48400  0.17270  0.60070  Biso   1.000  C
  H81      1.0000 0.47260  0.15210  0.67120  Biso   1.000  H
  C96      1.0000 0.48470  0.23560  0.59820  Biso   1.000  C
  H82      1.0000 0.47410  0.25740  0.66770  Biso   1.000  H
  C97      1.0000 0.00550  0.17270  0.39600  Biso   1.000  C
  H83      1.0000 0.00830  0.15240  0.32160  Biso   1.000  H
  C98      1.0000 0.96660  0.97930  0.42070  Biso   1.000  C
  H84      1.0000 0.94180  0.95820  0.36500  Biso   1.000  H
  C99      1.0000 0.47440  0.04150  0.40620  Biso   1.000  C
  H85      1.0000 0.45660  0.06190  0.33990  Biso   1.000  H
  C100     1.0000 0.00680  0.23410  0.39970  Biso   1.000  C
  H86      1.0000 0.01290  0.25560  0.32750  Biso   1.000  H
  C101     1.0000 0.47500  0.97920  0.40990  Biso   1.000  C
  H87      1.0000 0.45680  0.95760  0.34570  Biso   1.000  H
  C102     1.0000 0.96670  0.04120  0.41680  Biso   1.000  C
  H88      1.0000 0.94400  0.06190  0.35720  Biso   1.000  H
  N19      1.0000 0.90815  0.85469  0.52050  Biso   1.000  N
  N20      1.0000 0.59088  0.85840  0.52300  Biso   1.000  N
  C103     1.0000 0.78301  0.85670  0.53250  Biso   1.000  C
  C104     1.0000 0.71546  0.85750  0.53360  Biso   1.000  C
  C105     1.0000 0.81210  0.83600  0.42970  Biso   1.000  C
  H89      1.0000 0.78960  0.82350  0.36130  Biso   1.000  H
  C106     1.0000 0.68340  0.82910  0.62100  Biso   1.000  C
  H90      1.0000 0.70340  0.80960  0.68600  Biso   1.000  H
  C107     1.0000 0.62370  0.88720  0.44110  Biso   1.000  C
  H91      1.0000 0.60340  0.90870  0.37930  Biso   1.000  H
  C108     1.0000 0.87990  0.87450  0.61890  Biso   1.000  C
  H92      1.0000 0.90340  0.88860  0.68460  Biso   1.000  H
  C109     1.0000 0.68520  0.88680  0.44280  Biso   1.000  C
  H93      1.0000 0.70670  0.90660  0.38170  Biso   1.000  H
  C110     1.0000 0.62130  0.82950  0.61210  Biso   1.000  C
  H94      1.0000 0.59910  0.80870  0.67090  Biso   1.000  H
  C111     1.0000 0.81840  0.87510  0.62770  Biso   1.000  C
  H95      1.0000 0.80040  0.88820  0.69940  Biso   1.000  H
  C112     1.0000 0.87350  0.83430  0.43030  Biso   1.000  C
  H96      1.0000 0.89280  0.81760  0.36280  Biso   1.000  H
  C113     1.0000 0.98400  0.67270  0.60070  Biso   1.000  C
  H97      1.0000 0.97260  0.65210  0.67120  Biso   1.000  H
  C114     1.0000 0.98470  0.73560  0.59820  Biso   1.000  C
  H98      1.0000 0.97410  0.75740  0.66770  Biso   1.000  H
  C115     1.0000 0.50550  0.67270  0.39600  Biso   1.000  C
  H99      1.0000 0.50830  0.65240  0.32160  Biso   1.000  H
  C116     1.0000 0.46660  0.47930  0.42070  Biso   1.000  C
  H100     1.0000 0.44180  0.45820  0.36500  Biso   1.000  H
  C117     1.0000 0.97440  0.54150  0.40620  Biso   1.000  C
  H101     1.0000 0.95660  0.56190  0.33990  Biso   1.000  H
  C118     1.0000 0.50680  0.73410  0.39970  Biso   1.000  C
  H102     1.0000 0.51290  0.75560  0.32750  Biso   1.000  H
  C119     1.0000 0.97500  0.47920  0.40990  Biso   1.000  C
  H103     1.0000 0.95680  0.45760  0.34570  Biso   1.000  H
  C120     1.0000 0.46670  0.54120  0.41680  Biso   1.000  C
  H104     1.0000 0.44400  0.56190  0.35720  Biso   1.000  H
  N21      1.0000 0.59185  0.35469  0.47950  Biso   1.000  N
  N22      1.0000 0.90912  0.35840  0.47700  Biso   1.000  N
  C121     1.0000 0.71699  0.35670  0.46750  Biso   1.000  C
  C122     1.0000 0.78454  0.35750  0.46640  Biso   1.000  C
  C123     1.0000 0.68790  0.33600  0.57030  Biso   1.000  C
  H105     1.0000 0.71040  0.32350  0.63870  Biso   1.000  H
  C124     1.0000 0.81660  0.32910  0.37900  Biso   1.000  C
  H106     1.0000 0.79660  0.30960  0.31400  Biso   1.000  H
  C125     1.0000 0.87630  0.38720  0.55890  Biso   1.000  C
  H107     1.0000 0.89660  0.40870  0.62070  Biso   1.000  H
  C126     1.0000 0.62010  0.37450  0.38110  Biso   1.000  C
  H108     1.0000 0.59660  0.38860  0.31540  Biso   1.000  H
  C127     1.0000 0.81480  0.38680  0.55720  Biso   1.000  C
  H109     1.0000 0.79330  0.40660  0.61830  Biso   1.000  H
  C128     1.0000 0.87870  0.32950  0.38790  Biso   1.000  C
  H110     1.0000 0.90090  0.30870  0.32910  Biso   1.000  H
  C129     1.0000 0.68160  0.37510  0.37230  Biso   1.000  C
  H111     1.0000 0.69960  0.38820  0.30060  Biso   1.000  H
  C130     1.0000 0.62650  0.33430  0.56970  Biso   1.000  C
  H112     1.0000 0.60720  0.31760  0.63720  Biso   1.000  H
  C131     1.0000 0.51600  0.17270  0.39930  Biso   1.000  C
  H113     1.0000 0.52740  0.15210  0.32880  Biso   1.000  H
  C132     1.0000 0.51530  0.23560  0.40180  Biso   1.000  C
  H114     1.0000 0.52590  0.25740  0.33230  Biso   1.000  H
  C133     1.0000 0.99450  0.17270  0.60400  Biso   1.000  C
  H115     1.0000 0.99170  0.15240  0.67840  Biso   1.000  H
  C134     1.0000 0.03340  0.97930  0.57930  Biso   1.000  C
  H116     1.0000 0.05820  0.95820  0.63500  Biso   1.000  H
  C135     1.0000 0.52560  0.04150  0.59380  Biso   1.000  C
  H117     1.0000 0.54340  0.06190  0.66010  Biso   1.000  H
  C136     1.0000 0.99320  0.23410  0.60030  Biso   1.000  C
  H118     1.0000 0.98710  0.25560  0.67250  Biso   1.000  H
  C137     1.0000 0.52500  0.97920  0.59010  Biso   1.000  C
  H119     1.0000 0.54320  0.95760  0.65430  Biso   1.000  H
  C138     1.0000 0.03330  0.04120  0.58320  Biso   1.000  C
  H120     1.0000 0.05600  0.06190  0.64280  Biso   1.000  H
  N23      1.0000 0.09185  0.85469  0.47950  Biso   1.000  N
  N24      1.0000 0.40912  0.85840  0.47700  Biso   1.000  N
  C139     1.0000 0.21699  0.85670  0.46750  Biso   1.000  C
  C140     1.0000 0.28454  0.85750  0.46640  Biso   1.000  C
  C141     1.0000 0.18790  0.83600  0.57030  Biso   1.000  C
  H121     1.0000 0.21040  0.82350  0.63870  Biso   1.000  H
  C142     1.0000 0.31660  0.82910  0.37900  Biso   1.000  C
  H122     1.0000 0.29660  0.80960  0.31400  Biso   1.000  H
  C143     1.0000 0.37630  0.88720  0.55890  Biso   1.000  C
  H123     1.0000 0.39660  0.90870  0.62070  Biso   1.000  H
  C144     1.0000 0.12010  0.87450  0.38110  Biso   1.000  C
  H124     1.0000 0.09660  0.88860  0.31540  Biso   1.000  H
  C145     1.0000 0.31480  0.88680  0.55720  Biso   1.000  C
  H125     1.0000 0.29330  0.90660  0.61830  Biso   1.000  H
  C146     1.0000 0.37870  0.82950  0.38790  Biso   1.000  C
  H126     1.0000 0.40090  0.80870  0.32910  Biso   1.000  H
  C147     1.0000 0.18160  0.87510  0.37230  Biso   1.000  C
  H127     1.0000 0.19960  0.88820  0.30060  Biso   1.000  H
  C148     1.0000 0.12650  0.83430  0.56970  Biso   1.000  C
  H128     1.0000 0.10720  0.81760  0.63720  Biso   1.000  H
  C149     1.0000 0.01600  0.67270  0.39930  Biso   1.000  C
  H129     1.0000 0.02740  0.65210  0.32880  Biso   1.000  H
  C150     1.0000 0.01530  0.73560  0.40180  Biso   1.000  C
  H130     1.0000 0.02590  0.75740  0.33230  Biso   1.000  H
  C151     1.0000 0.49450  0.67270  0.60400  Biso   1.000  C
  H131     1.0000 0.49170  0.65240  0.67840  Biso   1.000  H
  C152     1.0000 0.53340  0.47930  0.57930  Biso   1.000  C
  H132     1.0000 0.55820  0.45820  0.63500  Biso   1.000  H
  C153     1.0000 0.02560  0.54150  0.59380  Biso   1.000  C
  H133     1.0000 0.04340  0.56190  0.66010  Biso   1.000  H
  C154     1.0000 0.49320  0.73410  0.60030  Biso   1.000  C
  H134     1.0000 0.48710  0.75560  0.67250  Biso   1.000  H
  C155     1.0000 0.02500  0.47920  0.59010  Biso   1.000  C
  H135     1.0000 0.04320  0.45760  0.65430  Biso   1.000  H
  C156     1.0000 0.53330  0.54120  0.58320  Biso   1.000  C
  H136     1.0000 0.55600  0.56190  0.64280  Biso   1.000  H
  Cu5      1.0000 0.50000  0.35700  0.50000  Biso   1.000  Cu
  N25      1.0000 0.50000  0.94830  0.50000  Biso   1.000  N
  N26      1.0000 0.50000  0.26560  0.50000  Biso   1.000  N
  C157     1.0000 0.50000  0.07420  0.50000  Biso   1.000  C
  C158     1.0000 0.50000  0.14020  0.50000  Biso   1.000  C
  Cu6      1.0000 0.00000  0.85700  0.50000  Biso   1.000  Cu
  N27      1.0000 0.00000  0.44830  0.50000  Biso   1.000  N
  N28      1.0000 0.00000  0.76560  0.50000  Biso   1.000  N
  C159     1.0000 0.00000  0.57420  0.50000  Biso   1.000  C
  C160     1.0000 0.00000  0.64020  0.50000  Biso   1.000  C
  Cu7      1.0000 0.00000  0.35719  0.50000  Biso   1.000  Cu
  N29      1.0000 0.00000  0.26520  0.50000  Biso   1.000  N
  N30      1.0000 0.00000  0.94680  0.50000  Biso   1.000  N
  C161     1.0000 0.00000  0.14020  0.50000  Biso   1.000  C
  C162     1.0000 0.00000  0.07270  0.50000  Biso   1.000  C
  Cu8      1.0000 0.50000  0.85719  0.50000  Biso   1.000  Cu
  N31      1.0000 0.50000  0.76520  0.50000  Biso   1.000  N
  N32      1.0000 0.50000  0.44680  0.50000  Biso   1.000  N
  C163     1.0000 0.50000  0.64020  0.50000  Biso   1.000  C
  C164     1.0000 0.50000  0.57270  0.50000  Biso   1.000  C
