data_image0
_cell_length_a       12.385
_cell_length_b       15.352
_cell_length_c       25.0378
_cell_angle_alpha    107.853
_cell_angle_beta     104.319
_cell_angle_gamma    90.0001

_symmetry_space_group_name_H-M    P 1
_symmetry_int_tables_number       1

loop_
  _symmetry_equiv_pos_as_xyz
  'x, y, z'

loop_
  _atom_site_label
  _atom_site_occupancy
  _atom_site_fract_x
  _atom_site_fract_y
  _atom_site_fract_z
  _atom_site_thermal_displace_type
  _atom_site_B_iso_or_equiv
  _atom_site_type_symbol
  Sc1      1.0000 0.47934  0.04169  0.20854  Biso   1.000  Sc
  Sc2      1.0000 0.68745  0.99980  0.12486  Biso   1.000  Sc
  Sc3      1.0000 0.60412  0.79173  0.45818  Biso   1.000  Sc
  Sc4      1.0000 0.22920  0.16685  0.20854  Biso   1.000  Sc
  Sc5      1.0000 0.93741  0.12506  0.12486  Biso   1.000  Sc
  Sc6      1.0000 0.35406  0.66645  0.45818  Biso   1.000  Sc
  Sc7      1.0000 0.27080  0.45831  0.79146  Biso   1.000  Sc
  Sc8      1.0000 0.56259  0.50020  0.87514  Biso   1.000  Sc
  Sc9      1.0000 0.14594  0.70827  0.54182  Biso   1.000  Sc
  Sc10     1.0000 0.02066  0.33315  0.79146  Biso   1.000  Sc
  Sc11     1.0000 0.81255  0.37494  0.87514  Biso   1.000  Sc
  Sc12     1.0000 0.89588  0.83355  0.54182  Biso   1.000  Sc
  H1       1.0000 0.56900  0.12810  0.15800  Biso   1.000  H
  H2       1.0000 0.92430  0.93900  0.25560  Biso   1.000  H
  H3       1.0000 0.10120  0.01440  0.29340  Biso   1.000  H
  H4       1.0000 0.40500  0.91670  0.33360  Biso   1.000  H
  H5       1.0000 0.14210  0.81970  0.37460  Biso   1.000  H
  H6       1.0000 0.00160  0.89580  0.41180  Biso   1.000  H
  H7       1.0000 0.67840  0.91760  0.33340  Biso   1.000  H
  H8       1.0000 0.24240  0.84800  0.07740  Biso   1.000  H
  H9       1.0000 0.06610  0.88590  0.03920  Biso   1.000  H
  H10      1.0000 0.08900  0.02990  0.15800  Biso   1.000  H
  H11      1.0000 0.83130  0.31660  0.25560  Biso   1.000  H
  H12      1.0000 0.69220  0.27900  0.29340  Biso   1.000  H
  H13      1.0000 0.42860  0.41690  0.33360  Biso   1.000  H
  H14      1.0000 0.73250  0.55490  0.37460  Biso   1.000  H
  H15      1.0000 0.91020  0.51600  0.41180  Biso   1.000  H
  H16      1.0000 0.15500  0.41580  0.33340  Biso   1.000  H
  H17      1.0000 0.33500  0.22940  0.07740  Biso   1.000  H
  H18      1.0000 0.47310  0.15330  0.03920  Biso   1.000  H
  H19      1.0000 0.41100  0.37190  0.84200  Biso   1.000  H
  H20      1.0000 0.66870  0.56100  0.74440  Biso   1.000  H
  H21      1.0000 0.80780  0.48560  0.70660  Biso   1.000  H
  H22      1.0000 0.07140  0.58330  0.66640  Biso   1.000  H
  H23      1.0000 0.76750  0.68030  0.62540  Biso   1.000  H
  H24      1.0000 0.58980  0.60420  0.58820  Biso   1.000  H
  H25      1.0000 0.34500  0.58240  0.66660  Biso   1.000  H
  H26      1.0000 0.16500  0.65200  0.92260  Biso   1.000  H
  H27      1.0000 0.02690  0.61410  0.96080  Biso   1.000  H
  H28      1.0000 0.93100  0.47010  0.84200  Biso   1.000  H
  H29      1.0000 0.57570  0.18340  0.74440  Biso   1.000  H
  H30      1.0000 0.39880  0.22100  0.70660  Biso   1.000  H
  H31      1.0000 0.09500  0.08310  0.66640  Biso   1.000  H
  H32      1.0000 0.35790  0.94510  0.62540  Biso   1.000  H
  H33      1.0000 0.49840  0.98400  0.58820  Biso   1.000  H
  H34      1.0000 0.82160  0.08420  0.66660  Biso   1.000  H
  H35      1.0000 0.25760  0.27060  0.92260  Biso   1.000  H
  H36      1.0000 0.43390  0.34670  0.96080  Biso   1.000  H
  H37      1.0000 0.85060  0.10060  0.20120  Biso   1.000  H
  H38      1.0000 0.64940  0.39940  0.79880  Biso   1.000  H
  H39      1.0000 0.31610  0.06610  0.13220  Biso   1.000  H
  H40      1.0000 0.18390  0.43390  0.86780  Biso   1.000  H
  H41      1.0000 0.51720  0.76720  0.53440  Biso   1.000  H
  H42      1.0000 0.98280  0.73280  0.46560  Biso   1.000  H
  H43      1.0000 0.75000  0.69800  0.50000  Biso   1.000  H
  H44      1.0000 0.25000  0.80200  0.50000  Biso   1.000  H
  H45      1.0000 0.48760  0.75000  0.00000  Biso   1.000  H
  H46      1.0000 0.76140  0.75000  0.00000  Biso   1.000  H
  H47      1.0000 0.01240  0.25000  0.00000  Biso   1.000  H
  H48      1.0000 0.73860  0.25000  0.00000  Biso   1.000  H
  C1       1.0000 0.70460  0.95300  0.24060  Biso   1.000  C
  C2       1.0000 0.78930  0.93130  0.28760  Biso   1.000  C
  C3       1.0000 0.90180  0.93010  0.28720  Biso   1.000  C
  C4       1.0000 0.98080  0.91590  0.33320  Biso   1.000  C
  C5       1.0000 0.10210  0.91590  0.33320  Biso   1.000  C
  C6       1.0000 0.14720  0.97400  0.30920  Biso   1.000  C
  C7       1.0000 0.25980  0.97220  0.30820  Biso   1.000  C
  C8       1.0000 0.30420  0.02830  0.27880  Biso   1.000  C
  C9       1.0000 0.32820  0.91660  0.33340  Biso   1.000  C
  C10      1.0000 0.28440  0.86050  0.35840  Biso   1.000  C
  C11      1.0000 0.35890  0.80560  0.38860  Biso   1.000  C
  C12      1.0000 0.17160  0.85920  0.35800  Biso   1.000  C
  C13      1.0000 0.94740  0.90310  0.37960  Biso   1.000  C
  C14      1.0000 0.83420  0.90110  0.37900  Biso   1.000  C
  C15      1.0000 0.75500  0.91680  0.33320  Biso   1.000  C
  C16      1.0000 0.79680  0.88110  0.42600  Biso   1.000  C
  C17      1.0000 0.46100  0.88080  0.09300  Biso   1.000  C
  C18      1.0000 0.37900  0.81030  0.04580  Biso   1.000  C
  C19      1.0000 0.26490  0.80820  0.04540  Biso   1.000  C
  C20      1.0000 0.01960  0.82990  0.02340  Biso   1.000  C
  C21      1.0000 0.90680  0.83120  0.02480  Biso   1.000  C
  C22      1.0000 0.86240  0.91640  0.05520  Biso   1.000  C
  C23      1.0000 0.03600  0.28760  0.24060  Biso   1.000  C
  C24      1.0000 0.99830  0.35630  0.28760  Biso   1.000  C
  C25      1.0000 0.88540  0.35710  0.28720  Biso   1.000  C
  C26      1.0000 0.85240  0.41730  0.33320  Biso   1.000  C
  C27      1.0000 0.73110  0.41730  0.33320  Biso   1.000  C
  C28      1.0000 0.66200  0.33520  0.30920  Biso   1.000  C
  C29      1.0000 0.54840  0.33600  0.30820  Biso   1.000  C
  C30      1.0000 0.47460  0.25050  0.27880  Biso   1.000  C
  C31      1.0000 0.50520  0.41680  0.33340  Biso   1.000  C
  C32      1.0000 0.57400  0.49790  0.35840  Biso   1.000  C
  C33      1.0000 0.52970  0.58300  0.38860  Biso   1.000  C
  C34      1.0000 0.68640  0.49880  0.35800  Biso   1.000  C
  C35      1.0000 0.93220  0.47650  0.37960  Biso   1.000  C
  C36      1.0000 0.04480  0.47790  0.37900  Biso   1.000  C
  C37      1.0000 0.07820  0.41640  0.33320  Biso   1.000  C
  C38      1.0000 0.12920  0.54490  0.42600  Biso   1.000  C
  C39      1.0000 0.13200  0.21220  0.09300  Biso   1.000  C
  C40      1.0000 0.16680  0.23550  0.04580  Biso   1.000  C
  C41      1.0000 0.28050  0.23720  0.04540  Biso   1.000  C
  C42      1.0000 0.50380  0.19350  0.02340  Biso   1.000  C
  C43      1.0000 0.61800  0.19360  0.02480  Biso   1.000  C
  C44      1.0000 0.69280  0.13880  0.05520  Biso   1.000  C
  C45      1.0000 0.46400  0.54700  0.75940  Biso   1.000  C
  C46      1.0000 0.50170  0.56870  0.71240  Biso   1.000  C
  C47      1.0000 0.61460  0.56990  0.71280  Biso   1.000  C
  C48      1.0000 0.64760  0.58410  0.66680  Biso   1.000  C
  C49      1.0000 0.76890  0.58410  0.66680  Biso   1.000  C
  C50      1.0000 0.83800  0.52600  0.69080  Biso   1.000  C
  C51      1.0000 0.95160  0.52780  0.69180  Biso   1.000  C
  C52      1.0000 0.02540  0.47170  0.72120  Biso   1.000  C
  C53      1.0000 0.99480  0.58340  0.66660  Biso   1.000  C
  C54      1.0000 0.92600  0.63950  0.64160  Biso   1.000  C
  C55      1.0000 0.97030  0.69440  0.61140  Biso   1.000  C
  C56      1.0000 0.81360  0.64080  0.64200  Biso   1.000  C
  C57      1.0000 0.56780  0.59690  0.62040  Biso   1.000  C
  C58      1.0000 0.45520  0.59890  0.62100  Biso   1.000  C
  C59      1.0000 0.42180  0.58320  0.66680  Biso   1.000  C
  C60      1.0000 0.37080  0.61890  0.57400  Biso   1.000  C
  C61      1.0000 0.36800  0.61920  0.90700  Biso   1.000  C
  C62      1.0000 0.33320  0.68970  0.95420  Biso   1.000  C
  C63      1.0000 0.21950  0.69180  0.95460  Biso   1.000  C
  C64      1.0000 0.99620  0.67010  0.97660  Biso   1.000  C
  C65      1.0000 0.88200  0.66880  0.97520  Biso   1.000  C
  C66      1.0000 0.80720  0.58360  0.94480  Biso   1.000  C
  C67      1.0000 0.79540  0.21240  0.75940  Biso   1.000  C
  C68      1.0000 0.71070  0.14370  0.71240  Biso   1.000  C
  C69      1.0000 0.59820  0.14290  0.71280  Biso   1.000  C
  C70      1.0000 0.51920  0.08270  0.66680  Biso   1.000  C
  C71      1.0000 0.39790  0.08270  0.66680  Biso   1.000  C
  C72      1.0000 0.35280  0.16480  0.69080  Biso   1.000  C
  C73      1.0000 0.24020  0.16400  0.69180  Biso   1.000  C
  C74      1.0000 0.19580  0.24950  0.72120  Biso   1.000  C
  C75      1.0000 0.17180  0.08320  0.66660  Biso   1.000  C
  C76      1.0000 0.21560  0.00210  0.64160  Biso   1.000  C
  C77      1.0000 0.14110  0.91700  0.61140  Biso   1.000  C
  C78      1.0000 0.32840  0.00120  0.64200  Biso   1.000  C
  C79      1.0000 0.55260  0.02350  0.62040  Biso   1.000  C
  C80      1.0000 0.66580  0.02210  0.62100  Biso   1.000  C
  C81      1.0000 0.74500  0.08360  0.66680  Biso   1.000  C
  C82      1.0000 0.70320  0.95510  0.57400  Biso   1.000  C
  C83      1.0000 0.03900  0.28780  0.90700  Biso   1.000  C
  C84      1.0000 0.12100  0.26450  0.95420  Biso   1.000  C
  C85      1.0000 0.23510  0.26280  0.95460  Biso   1.000  C
  C86      1.0000 0.48040  0.30650  0.97660  Biso   1.000  C
  C87      1.0000 0.59320  0.30640  0.97520  Biso   1.000  C
  C88      1.0000 0.63760  0.36120  0.94480  Biso   1.000  C
  C89      1.0000 0.41090  0.75000  0.00000  Biso   1.000  C
  C90      1.0000 0.18590  0.75000  0.00000  Biso   1.000  C
  C91      1.0000 0.06370  0.75000  0.00000  Biso   1.000  C
  C92      1.0000 0.83810  0.75000  0.00000  Biso   1.000  C
  C93      1.0000 0.08910  0.25000  0.00000  Biso   1.000  C
  C94      1.0000 0.31410  0.25000  0.00000  Biso   1.000  C
  C95      1.0000 0.43630  0.25000  0.00000  Biso   1.000  C
  C96      1.0000 0.66190  0.25000  0.00000  Biso   1.000  C
  O1       1.0000 0.72913  0.94103  0.19266  Biso   1.000  O
  O2       1.0000 0.61517  0.98227  0.25174  Biso   1.000  O
  O3       1.0000 0.69629  0.85079  0.41518  Biso   1.000  O
  O4       1.0000 0.86998  0.89268  0.47416  Biso   1.000  O
  O5       1.0000 0.31552  0.73722  0.39624  Biso   1.000  O
  O6       1.0000 0.46330  0.82960  0.40440  Biso   1.000  O
  O7       1.0000 0.39228  0.00348  0.26216  Biso   1.000  O
  O8       1.0000 0.25311  0.09641  0.27042  Biso   1.000  O
  O9       1.0000 0.55194  0.89784  0.08168  Biso   1.000  O
  O10      1.0000 0.43808  0.91568  0.14136  Biso   1.000  O
  O11      1.0000 0.91360  0.99290  0.06280  Biso   1.000  O
  O12      1.0000 0.77400  0.90830  0.07120  Biso   1.000  O
  O13      1.0000 0.58368  0.08098  0.16716  Biso   1.000  O
  O14      1.0000 0.96353  0.25163  0.19266  Biso   1.000  O
  O15      1.0000 0.13657  0.26947  0.25174  Biso   1.000  O
  O16      1.0000 0.21889  0.56439  0.41518  Biso   1.000  O
  O17      1.0000 0.10418  0.58148  0.47416  Biso   1.000  O
  O18      1.0000 0.58072  0.65902  0.39624  Biso   1.000  O
  O19      1.0000 0.44110  0.57480  0.40440  Biso   1.000  O
  O20      1.0000 0.36988  0.25868  0.26216  Biso   1.000  O
  O21      1.0000 0.51731  0.17401  0.27042  Biso   1.000  O
  O22      1.0000 0.02974  0.18384  0.08168  Biso   1.000  O
  O23      1.0000 0.20328  0.22568  0.14136  Biso   1.000  O
  O24      1.0000 0.64920  0.06990  0.06280  Biso   1.000  O
  O25      1.0000 0.79720  0.16290  0.07120  Biso   1.000  O
  O26      1.0000 0.08348  0.08618  0.16716  Biso   1.000  O
  O27      1.0000 0.53647  0.55897  0.80734  Biso   1.000  O
  O28      1.0000 0.36343  0.51773  0.74826  Biso   1.000  O
  O29      1.0000 0.28111  0.64921  0.58482  Biso   1.000  O
  O30      1.0000 0.39582  0.60732  0.52584  Biso   1.000  O
  O31      1.0000 0.91928  0.76278  0.60376  Biso   1.000  O
  O32      1.0000 0.05890  0.67040  0.59560  Biso   1.000  O
  O33      1.0000 0.13012  0.49652  0.73784  Biso   1.000  O
  O34      1.0000 0.98269  0.40359  0.72958  Biso   1.000  O
  O35      1.0000 0.47026  0.60216  0.91832  Biso   1.000  O
  O36      1.0000 0.29672  0.58432  0.85864  Biso   1.000  O
  O37      1.0000 0.85080  0.50710  0.93720  Biso   1.000  O
  O38      1.0000 0.70280  0.59170  0.92880  Biso   1.000  O
  O39      1.0000 0.41652  0.41902  0.83284  Biso   1.000  O
  O40      1.0000 0.77087  0.24837  0.80734  Biso   1.000  O
  O41      1.0000 0.88483  0.23053  0.74826  Biso   1.000  O
  O42      1.0000 0.80371  0.93561  0.58482  Biso   1.000  O
  O43      1.0000 0.63002  0.91852  0.52584  Biso   1.000  O
  O44      1.0000 0.18448  0.84098  0.60376  Biso   1.000  O
  O45      1.0000 0.03670  0.92520  0.59560  Biso   1.000  O
  O46      1.0000 0.10772  0.24132  0.73784  Biso   1.000  O
  O47      1.0000 0.24689  0.32599  0.72958  Biso   1.000  O
  O48      1.0000 0.94806  0.31616  0.91832  Biso   1.000  O
  O49      1.0000 0.06192  0.27432  0.85864  Biso   1.000  O
  O50      1.0000 0.58640  0.43010  0.93720  Biso   1.000  O
  O51      1.0000 0.72600  0.33710  0.92880  Biso   1.000  O
  O52      1.0000 0.91632  0.41382  0.83284  Biso   1.000  O
  O53      1.0000 0.83249  0.08249  0.16498  Biso   1.000  O
  O54      1.0000 0.66751  0.41751  0.83502  Biso   1.000  O
  O55      1.0000 0.33420  0.08420  0.16840  Biso   1.000  O
  O56      1.0000 0.16580  0.41580  0.83160  Biso   1.000  O
  O57      1.0000 0.49910  0.74910  0.49820  Biso   1.000  O
  O58      1.0000 0.00090  0.75090  0.50180  Biso   1.000  O
  O59      1.0000 0.75000  0.75240  0.50000  Biso   1.000  O
  O60      1.0000 0.25000  0.74760  0.50000  Biso   1.000  O
