data_image0
_cell_length_a       7.1635
_cell_length_b       18.607
_cell_length_c       18.607
_cell_angle_alpha    90
_cell_angle_beta     90
_cell_angle_gamma    90

_symmetry_space_group_name_H-M    P 1
_symmetry_int_tables_number       1

loop_
  _symmetry_equiv_pos_as_xyz
  'x, y, z'

loop_
  _atom_site_label
  _atom_site_occupancy
  _atom_site_fract_x
  _atom_site_fract_y
  _atom_site_fract_z
  _atom_site_thermal_displace_type
  _atom_site_B_iso_or_equiv
  _atom_site_type_symbol
  Co1      1.0000 0.75000  0.25000  0.75000  Biso   1.000  Co
  Co2      1.0000 0.25000  0.75000  0.25000  Biso   1.000  Co
  Co3      1.0000 0.75000  0.75000  0.25000  Biso   1.000  Co
  Co4      1.0000 0.25000  0.25000  0.75000  Biso   1.000  Co
  H1       1.0000 0.91630  0.39180  0.67840  Biso   1.000  H
  H2       1.0000 0.81640  0.46270  0.64840  Biso   1.000  H
  H3       1.0000 0.79290  0.44050  0.73100  Biso   1.000  H
  H4       1.0000 0.22930  0.47640  0.56230  Biso   1.000  H
  H5       1.0000 0.91630  0.10820  0.82160  Biso   1.000  H
  H6       1.0000 0.81640  0.03730  0.85160  Biso   1.000  H
  H7       1.0000 0.79290  0.05950  0.76900  Biso   1.000  H
  H8       1.0000 0.22930  0.02360  0.93770  Biso   1.000  H
  H9       1.0000 0.41630  0.82160  0.39180  Biso   1.000  H
  H10      1.0000 0.31640  0.85160  0.46270  Biso   1.000  H
  H11      1.0000 0.29290  0.76900  0.44050  Biso   1.000  H
  H12      1.0000 0.72930  0.93770  0.47640  Biso   1.000  H
  H13      1.0000 0.41630  0.67840  0.10820  Biso   1.000  H
  H14      1.0000 0.31640  0.64840  0.03730  Biso   1.000  H
  H15      1.0000 0.29290  0.73100  0.05950  Biso   1.000  H
  H16      1.0000 0.72930  0.56230  0.02360  Biso   1.000  H
  H17      1.0000 0.58370  0.60820  0.17840  Biso   1.000  H
  H18      1.0000 0.68360  0.53730  0.14840  Biso   1.000  H
  H19      1.0000 0.70710  0.55950  0.23100  Biso   1.000  H
  H20      1.0000 0.27070  0.52360  0.06230  Biso   1.000  H
  H21      1.0000 0.58370  0.89180  0.32160  Biso   1.000  H
  H22      1.0000 0.68360  0.96270  0.35160  Biso   1.000  H
  H23      1.0000 0.70710  0.94050  0.26900  Biso   1.000  H
  H24      1.0000 0.27070  0.97640  0.43770  Biso   1.000  H
  H25      1.0000 0.08370  0.17840  0.89180  Biso   1.000  H
  H26      1.0000 0.18360  0.14840  0.96270  Biso   1.000  H
  H27      1.0000 0.20710  0.23100  0.94050  Biso   1.000  H
  H28      1.0000 0.77070  0.06230  0.97640  Biso   1.000  H
  H29      1.0000 0.08370  0.32160  0.60820  Biso   1.000  H
  H30      1.0000 0.18360  0.35160  0.53730  Biso   1.000  H
  H31      1.0000 0.20710  0.26900  0.55950  Biso   1.000  H
  H32      1.0000 0.77070  0.43770  0.52360  Biso   1.000  H
  H33      1.0000 0.08370  0.60820  0.32160  Biso   1.000  H
  H34      1.0000 0.18360  0.53730  0.35160  Biso   1.000  H
  H35      1.0000 0.20710  0.55950  0.26900  Biso   1.000  H
  H36      1.0000 0.77070  0.52360  0.43770  Biso   1.000  H
  H37      1.0000 0.08370  0.89180  0.17840  Biso   1.000  H
  H38      1.0000 0.18360  0.96270  0.14840  Biso   1.000  H
  H39      1.0000 0.20710  0.94050  0.23100  Biso   1.000  H
  H40      1.0000 0.77070  0.97640  0.06230  Biso   1.000  H
  H41      1.0000 0.58370  0.17840  0.60820  Biso   1.000  H
  H42      1.0000 0.68360  0.14840  0.53730  Biso   1.000  H
  H43      1.0000 0.70710  0.23100  0.55950  Biso   1.000  H
  H44      1.0000 0.27070  0.06230  0.52360  Biso   1.000  H
  H45      1.0000 0.58370  0.32160  0.89180  Biso   1.000  H
  H46      1.0000 0.68360  0.35160  0.96270  Biso   1.000  H
  H47      1.0000 0.70710  0.26900  0.94050  Biso   1.000  H
  H48      1.0000 0.27070  0.43770  0.97640  Biso   1.000  H
  H49      1.0000 0.41630  0.39180  0.82160  Biso   1.000  H
  H50      1.0000 0.31640  0.46270  0.85160  Biso   1.000  H
  H51      1.0000 0.29290  0.44050  0.76900  Biso   1.000  H
  H52      1.0000 0.72930  0.47640  0.93770  Biso   1.000  H
  H53      1.0000 0.41630  0.10820  0.67840  Biso   1.000  H
  H54      1.0000 0.31640  0.03730  0.64840  Biso   1.000  H
  H55      1.0000 0.29290  0.05950  0.73100  Biso   1.000  H
  H56      1.0000 0.72930  0.02360  0.56230  Biso   1.000  H
  H57      1.0000 0.91630  0.82160  0.10820  Biso   1.000  H
  H58      1.0000 0.81640  0.85160  0.03730  Biso   1.000  H
  H59      1.0000 0.79290  0.76900  0.05950  Biso   1.000  H
  H60      1.0000 0.22930  0.93770  0.02360  Biso   1.000  H
  H61      1.0000 0.91630  0.67840  0.39180  Biso   1.000  H
  H62      1.0000 0.81640  0.64840  0.46270  Biso   1.000  H
  H63      1.0000 0.79290  0.73100  0.44050  Biso   1.000  H
  H64      1.0000 0.22930  0.56230  0.47640  Biso   1.000  H
  C1       1.0000 0.80490  0.42220  0.68180  Biso   1.000  C
  C2       1.0000 0.63160  0.37790  0.66260  Biso   1.000  C
  C3       1.0000 0.34160  0.48580  0.53680  Biso   1.000  C
  C4       1.0000 0.80490  0.07780  0.81820  Biso   1.000  C
  C5       1.0000 0.63160  0.12210  0.83740  Biso   1.000  C
  C6       1.0000 0.34160  0.01420  0.96320  Biso   1.000  C
  C7       1.0000 0.30490  0.81820  0.42220  Biso   1.000  C
  C8       1.0000 0.13160  0.83740  0.37790  Biso   1.000  C
  C9       1.0000 0.84160  0.96320  0.48580  Biso   1.000  C
  C10      1.0000 0.30490  0.68180  0.07780  Biso   1.000  C
  C11      1.0000 0.13160  0.66260  0.12210  Biso   1.000  C
  C12      1.0000 0.84160  0.53680  0.01420  Biso   1.000  C
  C13      1.0000 0.69510  0.57780  0.18180  Biso   1.000  C
  C14      1.0000 0.86840  0.62210  0.16260  Biso   1.000  C
  C15      1.0000 0.15840  0.51420  0.03680  Biso   1.000  C
  C16      1.0000 0.69510  0.92220  0.31820  Biso   1.000  C
  C17      1.0000 0.86840  0.87790  0.33740  Biso   1.000  C
  C18      1.0000 0.15840  0.98580  0.46320  Biso   1.000  C
  C19      1.0000 0.19510  0.18180  0.92220  Biso   1.000  C
  C20      1.0000 0.36840  0.16260  0.87790  Biso   1.000  C
  C21      1.0000 0.65840  0.03680  0.98580  Biso   1.000  C
  C22      1.0000 0.19510  0.31820  0.57780  Biso   1.000  C
  C23      1.0000 0.36840  0.33740  0.62210  Biso   1.000  C
  C24      1.0000 0.65840  0.46320  0.51420  Biso   1.000  C
  C25      1.0000 0.19510  0.57780  0.31820  Biso   1.000  C
  C26      1.0000 0.36840  0.62210  0.33740  Biso   1.000  C
  C27      1.0000 0.65840  0.51420  0.46320  Biso   1.000  C
  C28      1.0000 0.19510  0.92220  0.18180  Biso   1.000  C
  C29      1.0000 0.36840  0.87790  0.16260  Biso   1.000  C
  C30      1.0000 0.65840  0.98580  0.03680  Biso   1.000  C
  C31      1.0000 0.69510  0.18180  0.57780  Biso   1.000  C
  C32      1.0000 0.86840  0.16260  0.62210  Biso   1.000  C
  C33      1.0000 0.15840  0.03680  0.51420  Biso   1.000  C
  C34      1.0000 0.69510  0.31820  0.92220  Biso   1.000  C
  C35      1.0000 0.86840  0.33740  0.87790  Biso   1.000  C
  C36      1.0000 0.15840  0.46320  0.98580  Biso   1.000  C
  C37      1.0000 0.30490  0.42220  0.81820  Biso   1.000  C
  C38      1.0000 0.13160  0.37790  0.83740  Biso   1.000  C
  C39      1.0000 0.84160  0.48580  0.96320  Biso   1.000  C
  C40      1.0000 0.30490  0.07780  0.68180  Biso   1.000  C
  C41      1.0000 0.13160  0.12210  0.66260  Biso   1.000  C
  C42      1.0000 0.84160  0.01420  0.53680  Biso   1.000  C
  C43      1.0000 0.80490  0.81820  0.07780  Biso   1.000  C
  C44      1.0000 0.63160  0.83740  0.12210  Biso   1.000  C
  C45      1.0000 0.34160  0.96320  0.01420  Biso   1.000  C
  C46      1.0000 0.80490  0.68180  0.42220  Biso   1.000  C
  C47      1.0000 0.63160  0.66260  0.37790  Biso   1.000  C
  C48      1.0000 0.34160  0.53680  0.48580  Biso   1.000  C
  C49      1.0000 0.50000  0.39010  0.60990  Biso   1.000  C
  C50      1.0000 0.50000  0.44640  0.55360  Biso   1.000  C
  C51      1.0000 0.50000  0.10990  0.89010  Biso   1.000  C
  C52      1.0000 0.50000  0.05360  0.94640  Biso   1.000  C
  C53      1.0000 0.00000  0.89010  0.39010  Biso   1.000  C
  C54      1.0000 0.00000  0.94640  0.44640  Biso   1.000  C
  C55      1.0000 0.00000  0.60990  0.10990  Biso   1.000  C
  C56      1.0000 0.00000  0.55360  0.05360  Biso   1.000  C
  C57      1.0000 0.50000  0.60990  0.39010  Biso   1.000  C
  C58      1.0000 0.50000  0.55360  0.44640  Biso   1.000  C
  C59      1.0000 0.50000  0.89010  0.10990  Biso   1.000  C
  C60      1.0000 0.50000  0.94640  0.05360  Biso   1.000  C
  C61      1.0000 0.00000  0.10990  0.60990  Biso   1.000  C
  C62      1.0000 0.00000  0.05360  0.55360  Biso   1.000  C
  C63      1.0000 0.00000  0.39010  0.89010  Biso   1.000  C
  C64      1.0000 0.00000  0.44640  0.94640  Biso   1.000  C
  N1       1.0000 0.58380  0.32220  0.70360  Biso   1.000  N
  N2       1.0000 0.58380  0.17780  0.79640  Biso   1.000  N
  N3       1.0000 0.08380  0.79640  0.32220  Biso   1.000  N
  N4       1.0000 0.08380  0.70360  0.17780  Biso   1.000  N
  N5       1.0000 0.91620  0.67780  0.20360  Biso   1.000  N
  N6       1.0000 0.91620  0.82220  0.29640  Biso   1.000  N
  N7       1.0000 0.41620  0.20360  0.82220  Biso   1.000  N
  N8       1.0000 0.41620  0.29640  0.67780  Biso   1.000  N
  N9       1.0000 0.41620  0.67780  0.29640  Biso   1.000  N
  N10      1.0000 0.41620  0.82220  0.20360  Biso   1.000  N
  N11      1.0000 0.91620  0.20360  0.67780  Biso   1.000  N
  N12      1.0000 0.91620  0.29640  0.82220  Biso   1.000  N
  N13      1.0000 0.08380  0.32220  0.79640  Biso   1.000  N
  N14      1.0000 0.08380  0.17780  0.70360  Biso   1.000  N
  N15      1.0000 0.58380  0.79640  0.17780  Biso   1.000  N
  N16      1.0000 0.58380  0.70360  0.32220  Biso   1.000  N
