data_image0
_cell_length_a       9.3925
_cell_length_b       10.1977
_cell_length_c       24.4616
_cell_angle_alpha    91.926
_cell_angle_beta     90
_cell_angle_gamma    90

_symmetry_space_group_name_H-M    P 1
_symmetry_int_tables_number       1

loop_
  _symmetry_equiv_pos_as_xyz
  'x, y, z'

loop_
  _atom_site_label
  _atom_site_occupancy
  _atom_site_fract_x
  _atom_site_fract_y
  _atom_site_fract_z
  _atom_site_thermal_displace_type
  _atom_site_B_iso_or_equiv
  _atom_site_type_symbol
  Co1      1.0000 0.65741  0.25140  0.12680  Biso   1.000  Co
  Co2      1.0000 0.00130  0.74930  0.37750  Biso   1.000  Co
  Co3      1.0000 0.34259  0.25140  0.62680  Biso   1.000  Co
  Co4      1.0000 0.99870  0.74930  0.87750  Biso   1.000  Co
  H1       1.0000 0.89880  0.15150  0.06240  Biso   1.000  H
  H2       1.0000 0.10770  0.01850  0.07030  Biso   1.000  H
  H3       1.0000 0.92340  0.87010  0.19800  Biso   1.000  H
  H4       1.0000 0.74160  0.01900  0.19220  Biso   1.000  H
  H5       1.0000 0.33650  0.95030  0.11330  Biso   1.000  H
  H6       1.0000 0.23370  0.86540  0.07500  Biso   1.000  H
  H7       1.0000 0.22520  0.66880  0.17600  Biso   1.000  H
  H8       1.0000 0.32590  0.56350  0.14830  Biso   1.000  H
  H9       1.0000 0.96510  0.57780  0.03730  Biso   1.000  H
  H10      1.0000 0.76260  0.46470  0.05630  Biso   1.000  H
  H11      1.0000 0.92380  0.33020  0.18780  Biso   1.000  H
  H12      1.0000 0.11790  0.44130  0.17940  Biso   1.000  H
  H13      1.0000 0.50320  0.86780  0.16370  Biso   1.000  H
  H14      1.0000 0.38470  0.82320  0.20490  Biso   1.000  H
  H15      1.0000 0.60000  0.89790  0.24780  Biso   1.000  H
  H16      1.0000 0.76520  0.89800  0.32960  Biso   1.000  H
  H17      1.0000 0.90360  0.56600  0.27900  Biso   1.000  H
  H18      1.0000 0.71590  0.52150  0.22640  Biso   1.000  H
  H19      1.0000 0.53220  0.64000  0.08710  Biso   1.000  H
  H20      1.0000 0.40800  0.67190  0.04710  Biso   1.000  H
  H21      1.0000 0.68020  0.98260  0.01830  Biso   1.000  H
  H22      1.0000 0.85110  0.96130  0.94880  Biso   1.000  H
  H23      1.0000 0.77230  0.58400  0.94230  Biso   1.000  H
  H24      1.0000 0.59060  0.60610  0.99320  Biso   1.000  H
  H25      1.0000 0.40240  0.45590  0.25210  Biso   1.000  H
  H26      1.0000 0.04180  0.34800  0.32670  Biso   1.000  H
  H27      1.0000 0.25450  0.08810  0.23030  Biso   1.000  H
  H28      1.0000 0.02690  0.13690  0.93510  Biso   1.000  H
  H29      1.0000 0.25630  0.41680  0.01400  Biso   1.000  H
  H30      1.0000 0.40570  0.04790  0.00060  Biso   1.000  H
  H31      1.0000 0.96410  0.14310  0.30840  Biso   1.000  H
  H32      1.0000 0.10120  0.15150  0.56240  Biso   1.000  H
  H33      1.0000 0.89230  0.01850  0.57030  Biso   1.000  H
  H34      1.0000 0.07660  0.87010  0.69800  Biso   1.000  H
  H35      1.0000 0.25840  0.01900  0.69220  Biso   1.000  H
  H36      1.0000 0.66350  0.95030  0.61330  Biso   1.000  H
  H37      1.0000 0.76630  0.86540  0.57500  Biso   1.000  H
  H38      1.0000 0.77480  0.66880  0.67600  Biso   1.000  H
  H39      1.0000 0.67410  0.56350  0.64830  Biso   1.000  H
  H40      1.0000 0.03490  0.57780  0.53730  Biso   1.000  H
  H41      1.0000 0.23740  0.46470  0.55630  Biso   1.000  H
  H42      1.0000 0.07620  0.33020  0.68780  Biso   1.000  H
  H43      1.0000 0.88210  0.44130  0.67940  Biso   1.000  H
  H44      1.0000 0.49680  0.86780  0.66370  Biso   1.000  H
  H45      1.0000 0.61530  0.82320  0.70490  Biso   1.000  H
  H46      1.0000 0.40000  0.89790  0.74780  Biso   1.000  H
  H47      1.0000 0.23480  0.89800  0.82960  Biso   1.000  H
  H48      1.0000 0.09640  0.56600  0.77900  Biso   1.000  H
  H49      1.0000 0.28410  0.52150  0.72640  Biso   1.000  H
  H50      1.0000 0.46780  0.64000  0.58710  Biso   1.000  H
  H51      1.0000 0.59200  0.67190  0.54710  Biso   1.000  H
  H52      1.0000 0.31980  0.98260  0.51830  Biso   1.000  H
  H53      1.0000 0.14890  0.96130  0.44880  Biso   1.000  H
  H54      1.0000 0.22770  0.58400  0.44230  Biso   1.000  H
  H55      1.0000 0.40940  0.60610  0.49320  Biso   1.000  H
  H56      1.0000 0.59760  0.45590  0.75210  Biso   1.000  H
  H57      1.0000 0.95820  0.34800  0.82670  Biso   1.000  H
  H58      1.0000 0.74550  0.08810  0.73030  Biso   1.000  H
  H59      1.0000 0.97310  0.13690  0.43510  Biso   1.000  H
  H60      1.0000 0.74370  0.41680  0.51400  Biso   1.000  H
  H61      1.0000 0.59430  0.04790  0.50060  Biso   1.000  H
  H62      1.0000 0.03590  0.14310  0.80840  Biso   1.000  H
  C1       1.0000 0.90900  0.09900  0.09240  Biso   1.000  C
  C2       1.0000 0.03900  0.02400  0.09780  Biso   1.000  C
  C3       1.0000 0.05400  0.96200  0.14490  Biso   1.000  C
  C4       1.0000 0.92890  0.93910  0.17420  Biso   1.000  C
  C5       1.0000 0.81600  0.02000  0.16700  Biso   1.000  C
  C6       1.0000 0.27500  0.87400  0.11130  Biso   1.000  C
  C7       1.0000 0.36170  0.73700  0.12840  Biso   1.000  C
  C8       1.0000 0.27200  0.64290  0.14210  Biso   1.000  C
  C9       1.0000 0.05500  0.54900  0.11550  Biso   1.000  C
  C10      1.0000 0.95300  0.53700  0.07050  Biso   1.000  C
  C11      1.0000 0.83600  0.46100  0.08160  Biso   1.000  C
  C12      1.0000 0.92800  0.38500  0.15820  Biso   1.000  C
  C13      1.0000 0.04300  0.45400  0.15520  Biso   1.000  C
  C14      1.0000 0.44600  0.79400  0.17510  Biso   1.000  C
  C15      1.0000 0.63100  0.70700  0.23310  Biso   1.000  C
  C16      1.0000 0.64900  0.82300  0.25800  Biso   1.000  C
  C17      1.0000 0.76100  0.82300  0.30690  Biso   1.000  C
  C18      1.0000 0.83000  0.62690  0.27940  Biso   1.000  C
  C19      1.0000 0.72600  0.60300  0.24380  Biso   1.000  C
  C20      1.0000 0.46500  0.70700  0.07730  Biso   1.000  C
  C21      1.0000 0.63700  0.79500  0.02110  Biso   1.000  C
  C22      1.0000 0.70300  0.90000  0.00340  Biso   1.000  C
  C23      1.0000 0.80590  0.88810  0.96240  Biso   1.000  C
  C24      1.0000 0.75400  0.66690  0.95770  Biso   1.000  C
  C25      1.0000 0.65400  0.67500  0.98960  Biso   1.000  C
  C26      1.0000 0.49400  0.24100  0.20200  Biso   1.000  C
  C27      1.0000 0.34740  0.26700  0.23550  Biso   1.000  C
  C28      1.0000 0.33450  0.39230  0.25910  Biso   1.000  C
  C29      1.0000 0.22000  0.42270  0.29330  Biso   1.000  C
  C30      1.0000 0.11840  0.32770  0.30380  Biso   1.000  C
  C31      1.0000 0.13130  0.20230  0.28030  Biso   1.000  C
  C32      1.0000 0.24580  0.17190  0.24610  Biso   1.000  C
  C33      1.0000 0.17700  0.56700  0.31290  Biso   1.000  C
  C34      1.0000 0.20000  0.94000  0.94290  Biso   1.000  C
  C35      1.0000 0.21360  0.07090  0.96480  Biso   1.000  C
  C36      1.0000 0.10810  0.16240  0.95440  Biso   1.000  C
  C37      1.0000 0.12410  0.29200  0.97280  Biso   1.000  C
  C38      1.0000 0.24560  0.33010  0.00170  Biso   1.000  C
  C39      1.0000 0.35110  0.23860  0.01210  Biso   1.000  C
  C40      1.0000 0.33510  0.10910  0.99360  Biso   1.000  C
  C41      1.0000 0.46430  0.27770  0.04830  Biso   1.000  C
  C42      1.0000 0.09100  0.09900  0.59240  Biso   1.000  C
  C43      1.0000 0.96100  0.02400  0.59780  Biso   1.000  C
  C44      1.0000 0.94600  0.96200  0.64490  Biso   1.000  C
  C45      1.0000 0.07110  0.93910  0.67420  Biso   1.000  C
  C46      1.0000 0.18400  0.02000  0.66700  Biso   1.000  C
  C47      1.0000 0.72500  0.87400  0.61130  Biso   1.000  C
  C48      1.0000 0.63830  0.73700  0.62840  Biso   1.000  C
  C49      1.0000 0.72800  0.64290  0.64210  Biso   1.000  C
  C50      1.0000 0.94500  0.54900  0.61550  Biso   1.000  C
  C51      1.0000 0.04700  0.53700  0.57050  Biso   1.000  C
  C52      1.0000 0.16400  0.46100  0.58160  Biso   1.000  C
  C53      1.0000 0.07200  0.38500  0.65820  Biso   1.000  C
  C54      1.0000 0.95700  0.45400  0.65520  Biso   1.000  C
  C55      1.0000 0.55400  0.79400  0.67510  Biso   1.000  C
  C56      1.0000 0.36900  0.70700  0.73310  Biso   1.000  C
  C57      1.0000 0.35100  0.82300  0.75800  Biso   1.000  C
  C58      1.0000 0.23900  0.82300  0.80690  Biso   1.000  C
  C59      1.0000 0.17000  0.62690  0.77940  Biso   1.000  C
  C60      1.0000 0.27400  0.60300  0.74380  Biso   1.000  C
  C61      1.0000 0.53500  0.70700  0.57730  Biso   1.000  C
  C62      1.0000 0.36300  0.79500  0.52110  Biso   1.000  C
  C63      1.0000 0.29700  0.90000  0.50340  Biso   1.000  C
  C64      1.0000 0.19410  0.88810  0.46240  Biso   1.000  C
  C65      1.0000 0.24600  0.66690  0.45770  Biso   1.000  C
  C66      1.0000 0.34600  0.67500  0.48960  Biso   1.000  C
  C67      1.0000 0.50600  0.24100  0.70200  Biso   1.000  C
  C68      1.0000 0.65260  0.26700  0.73550  Biso   1.000  C
  C69      1.0000 0.66550  0.39230  0.75910  Biso   1.000  C
  C70      1.0000 0.78000  0.42270  0.79330  Biso   1.000  C
  C71      1.0000 0.88160  0.32770  0.80380  Biso   1.000  C
  C72      1.0000 0.86870  0.20230  0.78030  Biso   1.000  C
  C73      1.0000 0.75420  0.17190  0.74610  Biso   1.000  C
  C74      1.0000 0.82300  0.56700  0.81290  Biso   1.000  C
  C75      1.0000 0.80000  0.94000  0.44290  Biso   1.000  C
  C76      1.0000 0.78640  0.07090  0.46480  Biso   1.000  C
  C77      1.0000 0.89190  0.16240  0.45440  Biso   1.000  C
  C78      1.0000 0.87590  0.29200  0.47280  Biso   1.000  C
  C79      1.0000 0.75440  0.33010  0.50170  Biso   1.000  C
  C80      1.0000 0.64890  0.23860  0.51210  Biso   1.000  C
  C81      1.0000 0.66490  0.10910  0.49360  Biso   1.000  C
  C82      1.0000 0.53570  0.27770  0.54830  Biso   1.000  C
  N1       1.0000 0.80710  0.09470  0.12810  Biso   1.000  N
  N2       1.0000 0.81310  0.38120  0.12430  Biso   1.000  N
  N3       1.0000 0.84300  0.73050  0.31710  Biso   1.000  N
  N4       1.0000 0.83800  0.76150  0.94290  Biso   1.000  N
  N5       1.0000 0.19290  0.09470  0.62810  Biso   1.000  N
  N6       1.0000 0.18690  0.38120  0.62430  Biso   1.000  N
  N7       1.0000 0.15700  0.73050  0.81710  Biso   1.000  N
  N8       1.0000 0.16200  0.76150  0.44290  Biso   1.000  N
  O1       1.0000 0.16260  0.88050  0.15470  Biso   1.000  O
  O2       1.0000 0.17180  0.61700  0.10290  Biso   1.000  O
  O3       1.0000 0.53650  0.68480  0.19100  Biso   1.000  O
  O4       1.0000 0.86370  0.63990  0.42660  Biso   1.000  O
  O5       1.0000 0.53970  0.81430  0.05950  Biso   1.000  O
  O6       1.0000 0.58000  0.30700  0.20220  Biso   1.000  O
  O7       1.0000 0.46810  0.13450  0.16850  Biso   1.000  O
  O8       1.0000 0.02600  0.11040  0.28880  Biso   1.000  O
  O9       1.0000 0.09280  0.58260  0.34670  Biso   1.000  O
  O10      1.0000 0.30090  0.64210  0.30520  Biso   1.000  O
  O11      1.0000 0.09820  0.91450  0.90860  Biso   1.000  O
  O12      1.0000 0.24350  0.84370  0.97160  Biso   1.000  O
  O13      1.0000 0.02500  0.38470  0.96360  Biso   1.000  O
  O14      1.0000 0.47700  0.39500  0.06780  Biso   1.000  O
  O15      1.0000 0.59500  0.21900  0.04800  Biso   1.000  O
  O16      1.0000 0.83740  0.88050  0.65470  Biso   1.000  O
  O17      1.0000 0.82820  0.61700  0.60290  Biso   1.000  O
  O18      1.0000 0.46350  0.68480  0.69100  Biso   1.000  O
  O19      1.0000 0.13630  0.63990  0.92660  Biso   1.000  O
  O20      1.0000 0.46030  0.81430  0.55950  Biso   1.000  O
  O21      1.0000 0.42000  0.30700  0.70220  Biso   1.000  O
  O22      1.0000 0.53190  0.13450  0.66850  Biso   1.000  O
  O23      1.0000 0.97400  0.11040  0.78880  Biso   1.000  O
  O24      1.0000 0.90720  0.58260  0.84670  Biso   1.000  O
  O25      1.0000 0.69910  0.64210  0.80520  Biso   1.000  O
  O26      1.0000 0.90180  0.91450  0.40860  Biso   1.000  O
  O27      1.0000 0.75650  0.84370  0.47160  Biso   1.000  O
  O28      1.0000 0.97500  0.38470  0.46360  Biso   1.000  O
  O29      1.0000 0.52300  0.39500  0.56780  Biso   1.000  O
  O30      1.0000 0.40500  0.21900  0.54800  Biso   1.000  O
