data_EXOTUH
_audit_creation_date              2015-05-19
_audit_creation_method            'Materials Studio'
_symmetry_space_group_name_H-M    'P1'
_symmetry_Int_Tables_number       1
_symmetry_cell_setting            triclinic
loop_
_symmetry_equiv_pos_as_xyz
  x,y,z
_cell_length_a                    15.2140
_cell_length_b                    15.2140
_cell_length_c                    19.6860
_cell_angle_alpha                 90.0000
_cell_angle_beta                  90.0000
_cell_angle_gamma                 120.0000
loop_
_atom_site_label
_atom_site_type_symbol
_atom_site_fract_x
_atom_site_fract_y
_atom_site_fract_z
_atom_site_U_iso_or_equiv
_atom_site_adp_type
_atom_site_occupancy
C1     C     0.75490   0.59960   0.25850   0.00000  Uiso   1.00
H2     H     0.69070   0.57240   0.23920   0.00000  Uiso   1.00
C3     C     0.77340   0.54540   0.30780   0.00000  Uiso   1.00
H4     H     0.72160   0.48200   0.32150   0.00000  Uiso   1.00
C5     C     0.86950   0.58610   0.33650   0.00000  Uiso   1.00
C6     C     0.94690   0.68080   0.31600   0.00000  Uiso   1.00
C7     C     0.92840   0.73500   0.26670   0.00000  Uiso   1.00
C8     C     0.83240   0.69440   0.23800   0.00000  Uiso   1.00
H9     H     0.82000   0.73060   0.20500   0.00000  Uiso   1.00
C10    C     0.87300   0.51300   0.37800   0.00000  Uiso   1.00
C11    C     0.00600   0.82930   0.23380   0.00000  Uiso   1.00
C12    C     0.32920   0.96350   0.21900   0.00000  Uiso   1.00
H13    H     0.28540   0.93860   0.25600   0.00000  Uiso   1.00
C14    C     0.41870   0.96160   0.21980   0.00000  Uiso   1.00
H15    H     0.43460   0.93410   0.25680   0.00000  Uiso   1.00
C16    C     0.93480   0.09040   0.99200   0.00000  Uiso   1.00
H17    H     0.99890   0.09680   0.99280   0.00000  Uiso   1.00
C18    C     0.88210   0.07150   0.05190   0.00000  Uiso   1.00
H19    H     0.91300   0.07310   0.09300   0.00000  Uiso   1.00
C20    C     0.78020   0.04970   0.05020   0.00000  Uiso   1.00
C21    C     0.74920   0.06180   0.99060   0.00000  Uiso   1.00
H22    H     0.68400   0.05220   0.98740   0.00000  Uiso   1.00
C23    C     0.80700   0.08760   0.93250   0.00000  Uiso   1.00
H24    H     0.78110   0.09650   0.89190   0.00000  Uiso   1.00
C25    C     0.72100   0.02270   0.11200   0.00000  Uiso   1.00
N26    N     0.89890   0.09980   0.93420   0.00000  Uiso   1.00
N27    N     0.63560   0.02620   0.10930   0.00000  Uiso   1.00
O28    O     0.09200   0.84650   0.23150   0.00000  Uiso   1.00
O29    O     0.90800   0.55200   0.43000   0.00000  Uiso   1.00
O30    O     0.85100   0.41800   0.38700   0.00000  Uiso   1.00
O31    O     0.98230   0.88690   0.21300   0.00000  Uiso   1.00
H32    H     0.41052   0.87951   0.56267   0.00000  Uiso   1.00
C33    C     0.40040   0.15530   0.92517   0.00000  Uiso   1.00
H34    H     0.42760   0.11830   0.90587   0.00000  Uiso   1.00
C35    C     0.45460   0.22800   0.97447   0.00000  Uiso   1.00
H36    H     0.51800   0.23960   0.98817   0.00000  Uiso   1.00
C37    C     0.41390   0.28340   0.00317   0.00000  Uiso   1.00
C38    C     0.31920   0.26610   0.98267   0.00000  Uiso   1.00
C39    C     0.26500   0.19340   0.93337   0.00000  Uiso   1.00
C40    C     0.30560   0.13800   0.90467   0.00000  Uiso   1.00
H41    H     0.26940   0.08940   0.87167   0.00000  Uiso   1.00
C42    C     0.48700   0.36000   0.04467   0.00000  Uiso   1.00
C43    C     0.17070   0.17670   0.90047   0.00000  Uiso   1.00
C44    C     0.03650   0.36570   0.88567   0.00000  Uiso   1.00
H45    H     0.06140   0.34680   0.92267   0.00000  Uiso   1.00
C46    C     0.03840   0.45710   0.88647   0.00000  Uiso   1.00
H47    H     0.06590   0.50050   0.92347   0.00000  Uiso   1.00
C48    C     0.90960   0.84440   0.65867   0.00000  Uiso   1.00
H49    H     0.90320   0.90210   0.65947   0.00000  Uiso   1.00
C50    C     0.92850   0.81060   0.71857   0.00000  Uiso   1.00
H51    H     0.92690   0.83990   0.75967   0.00000  Uiso   1.00
C52    C     0.95030   0.73050   0.71687   0.00000  Uiso   1.00
C53    C     0.93820   0.68740   0.65727   0.00000  Uiso   1.00
H54    H     0.94780   0.63180   0.65407   0.00000  Uiso   1.00
C55    C     0.91240   0.71940   0.59917   0.00000  Uiso   1.00
H56    H     0.90350   0.68460   0.55857   0.00000  Uiso   1.00
C57    C     0.97730   0.69830   0.77867   0.00000  Uiso   1.00
N58    N     0.90020   0.79910   0.60087   0.00000  Uiso   1.00
N59    N     0.97380   0.60940   0.77597   0.00000  Uiso   1.00
O60    O     0.15350   0.24550   0.89817   0.00000  Uiso   1.00
O61    O     0.44800   0.35600   0.09667   0.00000  Uiso   1.00
O62    O     0.58200   0.43300   0.05367   0.00000  Uiso   1.00
O63    O     0.11310   0.09540   0.87967   0.00000  Uiso   1.00
H64    H     0.12049   0.53101   0.22934   0.00000  Uiso   1.00
C65    C     0.84470   0.24510   0.59183   0.00000  Uiso   1.00
H66    H     0.88170   0.30930   0.57253   0.00000  Uiso   1.00
C67    C     0.77200   0.22660   0.64113   0.00000  Uiso   1.00
H68    H     0.76040   0.27840   0.65483   0.00000  Uiso   1.00
C69    C     0.71660   0.13050   0.66983   0.00000  Uiso   1.00
C70    C     0.73390   0.05310   0.64933   0.00000  Uiso   1.00
C71    C     0.80660   0.07160   0.60003   0.00000  Uiso   1.00
C72    C     0.86200   0.16760   0.57133   0.00000  Uiso   1.00
H73    H     0.91060   0.18000   0.53833   0.00000  Uiso   1.00
C74    C     0.64000   0.12700   0.71133   0.00000  Uiso   1.00
C75    C     0.82330   0.99400   0.56713   0.00000  Uiso   1.00
C76    C     0.63430   0.67080   0.55233   0.00000  Uiso   1.00
H77    H     0.65320   0.71460   0.58933   0.00000  Uiso   1.00
C78    C     0.54290   0.58130   0.55313   0.00000  Uiso   1.00
H79    H     0.49950   0.56540   0.59013   0.00000  Uiso   1.00
C80    C     0.15560   0.06520   0.32533   0.00000  Uiso   1.00
H81    H     0.09790   0.00110   0.32613   0.00000  Uiso   1.00
C82    C     0.18940   0.11790   0.38523   0.00000  Uiso   1.00
H83    H     0.16010   0.08700   0.42633   0.00000  Uiso   1.00
C84    C     0.26950   0.21980   0.38353   0.00000  Uiso   1.00
C85    C     0.31260   0.25080   0.32393   0.00000  Uiso   1.00
H86    H     0.36820   0.31600   0.32073   0.00000  Uiso   1.00
C87    C     0.28060   0.19300   0.26583   0.00000  Uiso   1.00
H88    H     0.31540   0.21890   0.22523   0.00000  Uiso   1.00
C89    C     0.30170   0.27900   0.44533   0.00000  Uiso   1.00
N90    N     0.20090   0.10110   0.26753   0.00000  Uiso   1.00
N91    N     0.39060   0.36440   0.44263   0.00000  Uiso   1.00
O92    O     0.75450   0.90800   0.56483   0.00000  Uiso   1.00
O93    O     0.64400   0.09200   0.76333   0.00000  Uiso   1.00
O94    O     0.56700   0.14900   0.72033   0.00000  Uiso   1.00
O95    O     0.90460   0.01770   0.54633   0.00000  Uiso   1.00
H96    H     0.46899   0.58948   0.89601   0.00000  Uiso   1.00
C97    C     0.59960   0.75490   0.74150   0.00000  Uiso   1.00
H98    H     0.57240   0.69070   0.76080   0.00000  Uiso   1.00
C99    C     0.54540   0.77340   0.69220   0.00000  Uiso   1.00
H100   H     0.48200   0.72160   0.67850   0.00000  Uiso   1.00
C101   C     0.58610   0.86950   0.66350   0.00000  Uiso   1.00
C102   C     0.68080   0.94690   0.68400   0.00000  Uiso   1.00
C103   C     0.73500   0.92840   0.73330   0.00000  Uiso   1.00
C104   C     0.69440   0.83240   0.76200   0.00000  Uiso   1.00
H105   H     0.73060   0.82000   0.79500   0.00000  Uiso   1.00
C106   C     0.51300   0.87300   0.62200   0.00000  Uiso   1.00
C107   C     0.82930   0.00600   0.76620   0.00000  Uiso   1.00
C108   C     0.96350   0.32920   0.78100   0.00000  Uiso   1.00
H109   H     0.93860   0.28540   0.74400   0.00000  Uiso   1.00
C110   C     0.96160   0.41870   0.78020   0.00000  Uiso   1.00
H111   H     0.93410   0.43460   0.74320   0.00000  Uiso   1.00
C112   C     0.09040   0.93480   0.00800   0.00000  Uiso   1.00
H113   H     0.09680   0.99890   0.00720   0.00000  Uiso   1.00
C114   C     0.07150   0.88210   0.94810   0.00000  Uiso   1.00
H115   H     0.07310   0.91300   0.90700   0.00000  Uiso   1.00
C116   C     0.04970   0.78020   0.94980   0.00000  Uiso   1.00
C117   C     0.06180   0.74920   0.00940   0.00000  Uiso   1.00
H118   H     0.05220   0.68400   0.01260   0.00000  Uiso   1.00
C119   C     0.08760   0.80700   0.06750   0.00000  Uiso   1.00
H120   H     0.09650   0.78110   0.10810   0.00000  Uiso   1.00
C121   C     0.02270   0.72100   0.88800   0.00000  Uiso   1.00
N122   N     0.09980   0.89890   0.06580   0.00000  Uiso   1.00
N123   N     0.02620   0.63560   0.89070   0.00000  Uiso   1.00
O124   O     0.84650   0.09200   0.76850   0.00000  Uiso   1.00
O125   O     0.55200   0.90800   0.57000   0.00000  Uiso   1.00
O126   O     0.41800   0.85100   0.61300   0.00000  Uiso   1.00
O127   O     0.88690   0.98230   0.78700   0.00000  Uiso   1.00
H128   H     0.87951   0.41052   0.43733   0.00000  Uiso   1.00
C129   C     0.15530   0.40040   0.07483   0.00000  Uiso   1.00
H130   H     0.11830   0.42760   0.09413   0.00000  Uiso   1.00
C131   C     0.22800   0.45460   0.02553   0.00000  Uiso   1.00
H132   H     0.23960   0.51800   0.01183   0.00000  Uiso   1.00
C133   C     0.28340   0.41390   0.99683   0.00000  Uiso   1.00
C134   C     0.26610   0.31920   0.01733   0.00000  Uiso   1.00
C135   C     0.19340   0.26500   0.06663   0.00000  Uiso   1.00
C136   C     0.13800   0.30560   0.09533   0.00000  Uiso   1.00
H137   H     0.08940   0.26940   0.12833   0.00000  Uiso   1.00
C138   C     0.36000   0.48700   0.95533   0.00000  Uiso   1.00
C139   C     0.17670   0.17070   0.09953   0.00000  Uiso   1.00
C140   C     0.36570   0.03650   0.11433   0.00000  Uiso   1.00
H141   H     0.34680   0.06140   0.07733   0.00000  Uiso   1.00
C142   C     0.45710   0.03840   0.11353   0.00000  Uiso   1.00
H143   H     0.50050   0.06590   0.07653   0.00000  Uiso   1.00
C144   C     0.84440   0.90960   0.34133   0.00000  Uiso   1.00
H145   H     0.90210   0.90320   0.34053   0.00000  Uiso   1.00
C146   C     0.81060   0.92850   0.28143   0.00000  Uiso   1.00
H147   H     0.83990   0.92690   0.24033   0.00000  Uiso   1.00
C148   C     0.73050   0.95030   0.28313   0.00000  Uiso   1.00
C149   C     0.68740   0.93820   0.34273   0.00000  Uiso   1.00
H150   H     0.63180   0.94780   0.34593   0.00000  Uiso   1.00
C151   C     0.71940   0.91240   0.40083   0.00000  Uiso   1.00
H152   H     0.68460   0.90350   0.44143   0.00000  Uiso   1.00
C153   C     0.69830   0.97730   0.22133   0.00000  Uiso   1.00
N154   N     0.79910   0.90020   0.39913   0.00000  Uiso   1.00
N155   N     0.60940   0.97380   0.22403   0.00000  Uiso   1.00
O156   O     0.24550   0.15350   0.10183   0.00000  Uiso   1.00
O157   O     0.35600   0.44800   0.90333   0.00000  Uiso   1.00
O158   O     0.43300   0.58200   0.94633   0.00000  Uiso   1.00
O159   O     0.09540   0.11310   0.12033   0.00000  Uiso   1.00
H160   H     0.53101   0.12049   0.77066   0.00000  Uiso   1.00
C161   C     0.24510   0.84470   0.40817   0.00000  Uiso   1.00
H162   H     0.30930   0.88170   0.42747   0.00000  Uiso   1.00
C163   C     0.22660   0.77200   0.35887   0.00000  Uiso   1.00
H164   H     0.27840   0.76040   0.34517   0.00000  Uiso   1.00
C165   C     0.13050   0.71660   0.33017   0.00000  Uiso   1.00
C166   C     0.05310   0.73390   0.35067   0.00000  Uiso   1.00
C167   C     0.07160   0.80660   0.39997   0.00000  Uiso   1.00
C168   C     0.16760   0.86200   0.42867   0.00000  Uiso   1.00
H169   H     0.18000   0.91060   0.46167   0.00000  Uiso   1.00
C170   C     0.12700   0.64000   0.28867   0.00000  Uiso   1.00
C171   C     0.99400   0.82330   0.43287   0.00000  Uiso   1.00
C172   C     0.67080   0.63430   0.44767   0.00000  Uiso   1.00
H173   H     0.71460   0.65320   0.41067   0.00000  Uiso   1.00
C174   C     0.58130   0.54290   0.44687   0.00000  Uiso   1.00
H175   H     0.56540   0.49950   0.40987   0.00000  Uiso   1.00
C176   C     0.06520   0.15560   0.67467   0.00000  Uiso   1.00
H177   H     0.00110   0.09790   0.67387   0.00000  Uiso   1.00
C178   C     0.11790   0.18940   0.61477   0.00000  Uiso   1.00
H179   H     0.08700   0.16010   0.57367   0.00000  Uiso   1.00
C180   C     0.21980   0.26950   0.61647   0.00000  Uiso   1.00
C181   C     0.25080   0.31260   0.67607   0.00000  Uiso   1.00
H182   H     0.31600   0.36820   0.67927   0.00000  Uiso   1.00
C183   C     0.19300   0.28060   0.73417   0.00000  Uiso   1.00
H184   H     0.21890   0.31540   0.77477   0.00000  Uiso   1.00
C185   C     0.27900   0.30170   0.55467   0.00000  Uiso   1.00
N186   N     0.10110   0.20090   0.73247   0.00000  Uiso   1.00
N187   N     0.36440   0.39060   0.55737   0.00000  Uiso   1.00
O188   O     0.90800   0.75450   0.43517   0.00000  Uiso   1.00
O189   O     0.09200   0.64400   0.23667   0.00000  Uiso   1.00
O190   O     0.14900   0.56700   0.27967   0.00000  Uiso   1.00
O191   O     0.01770   0.90460   0.45367   0.00000  Uiso   1.00
H192   H     0.58948   0.46899   0.10399   0.00000  Uiso   1.00
C193   C     0.58050  -0.00000   0.16667   0.00000  Uiso   1.00
C194   C     0.48340  -0.00000   0.16667   0.00000  Uiso   1.00
Cd195  Cd    0.14365  -0.00000   0.16667   0.00000  Uiso   1.00
N196   N     0.30550  -0.00000   0.16667   0.00000  Uiso   1.00
N197   N     0.75670  -0.00000   0.16667   0.00000  Uiso   1.00
C198   C    -0.00000   0.58050   0.83333   0.00000  Uiso   1.00
C199   C    -0.00000   0.48340   0.83333   0.00000  Uiso   1.00
Cd200  Cd   -0.00000   0.14365   0.83333   0.00000  Uiso   1.00
N201   N    -0.00000   0.30550   0.83333   0.00000  Uiso   1.00
N202   N    -0.00000   0.75670   0.83333   0.00000  Uiso   1.00
C203   C     0.41950   0.41950   0.50000   0.00000  Uiso   1.00
C204   C     0.51660   0.51660   0.50000   0.00000  Uiso   1.00
Cd205  Cd    0.85635   0.85635   0.50000   0.00000  Uiso   1.00
N206   N     0.69450   0.69450   0.50000   0.00000  Uiso   1.00
N207   N     0.24330   0.24330   0.50000   0.00000  Uiso   1.00
