data_image0
_cell_length_a       11.709
_cell_length_b       12.626
_cell_length_c       13.1949
_cell_angle_alpha    103.482
_cell_angle_beta     116.34
_cell_angle_gamma    90

_symmetry_space_group_name_H-M    P 1
_symmetry_int_tables_number       1

loop_
  _symmetry_equiv_pos_as_xyz
  'x, y, z'

loop_
  _atom_site_label
  _atom_site_occupancy
  _atom_site_fract_x
  _atom_site_fract_y
  _atom_site_fract_z
  _atom_site_thermal_displace_type
  _atom_site_B_iso_or_equiv
  _atom_site_type_symbol
  Cu1      1.0000 0.98647  0.09456  0.97294  Biso   1.000  Cu
  Cu2      1.0000 0.01353  0.90544  0.02706  Biso   1.000  Cu
  Cu3      1.0000 0.00000  0.50000  0.00000  Biso   1.000  Cu
  H1       1.0000 0.93250  0.15690  0.73100  Biso   1.000  H
  H2       1.0000 0.75350  0.30150  0.64100  Biso   1.000  H
  H3       1.0000 0.82340  0.95620  0.24840  Biso   1.000  H
  H4       1.0000 0.94580  0.02410  0.35820  Biso   1.000  H
  H5       1.0000 0.91170  0.17640  0.28760  Biso   1.000  H
  H6       1.0000 0.77590  0.12300  0.18780  Biso   1.000  H
  H7       1.0000 0.20150  0.84310  0.26900  Biso   1.000  H
  H8       1.0000 0.11250  0.69850  0.35900  Biso   1.000  H
  H9       1.0000 0.57500  0.04380  0.75160  Biso   1.000  H
  H10      1.0000 0.58760  0.97590  0.64180  Biso   1.000  H
  H11      1.0000 0.62410  0.82360  0.71240  Biso   1.000  H
  H12      1.0000 0.58810  0.87700  0.81220  Biso   1.000  H
  H13      1.0000 0.06750  0.84310  0.26900  Biso   1.000  H
  H14      1.0000 0.24650  0.69850  0.35900  Biso   1.000  H
  H15      1.0000 0.17660  0.04380  0.75160  Biso   1.000  H
  H16      1.0000 0.05420  0.97590  0.64180  Biso   1.000  H
  H17      1.0000 0.08830  0.82360  0.71240  Biso   1.000  H
  H18      1.0000 0.22410  0.87700  0.81220  Biso   1.000  H
  H19      1.0000 0.79850  0.15690  0.73100  Biso   1.000  H
  H20      1.0000 0.88750  0.30150  0.64100  Biso   1.000  H
  H21      1.0000 0.42500  0.95620  0.24840  Biso   1.000  H
  H22      1.0000 0.41240  0.02410  0.35820  Biso   1.000  H
  H23      1.0000 0.37590  0.17640  0.28760  Biso   1.000  H
  H24      1.0000 0.41190  0.12300  0.18780  Biso   1.000  H
  C1       1.0000 0.84069  0.13640  0.47218  Biso   1.000  C
  C2       1.0000 0.85910  0.02870  0.30100  Biso   1.000  C
  C3       1.0000 0.86280  0.10790  0.23260  Biso   1.000  C
  C4       1.0000 0.92008  0.06950  0.14996  Biso   1.000  C
  C5       1.0000 0.36851  0.86360  0.52782  Biso   1.000  C
  C6       1.0000 0.55810  0.97130  0.69900  Biso   1.000  C
  C7       1.0000 0.63020  0.89210  0.76740  Biso   1.000  C
  C8       1.0000 0.77012  0.93050  0.85004  Biso   1.000  C
  C9       1.0000 0.15931  0.86360  0.52782  Biso   1.000  C
  C10      1.0000 0.14090  0.97130  0.69900  Biso   1.000  C
  C11      1.0000 0.13720  0.89210  0.76740  Biso   1.000  C
  C12      1.0000 0.07992  0.93050  0.85004  Biso   1.000  C
  C13      1.0000 0.63149  0.13640  0.47218  Biso   1.000  C
  C14      1.0000 0.44190  0.02870  0.30100  Biso   1.000  C
  C15      1.0000 0.36980  0.10790  0.23260  Biso   1.000  C
  C16      1.0000 0.22988  0.06950  0.14996  Biso   1.000  C
  C17      1.0000 0.92700  0.28670  0.85400  Biso   1.000  C
  C18      1.0000 0.86830  0.20330  0.73660  Biso   1.000  C
  C19      1.0000 0.81810  0.25540  0.63620  Biso   1.000  C
  C20      1.0000 0.65140  0.02910  0.30280  Biso   1.000  C
  C21      1.0000 0.07300  0.71330  0.14600  Biso   1.000  C
  C22      1.0000 0.13170  0.79670  0.26340  Biso   1.000  C
  C23      1.0000 0.18190  0.74460  0.36380  Biso   1.000  C
  C24      1.0000 0.34860  0.97090  0.69720  Biso   1.000  C
  N1       1.0000 0.78083  0.06480  0.36166  Biso   1.000  N
  N2       1.0000 0.41917  0.93520  0.63834  Biso   1.000  N
  N3       1.0000 0.21917  0.93520  0.63834  Biso   1.000  N
  N4       1.0000 0.58083  0.06480  0.36166  Biso   1.000  N
  N5       1.0000 0.76150  0.17120  0.52300  Biso   1.000  N
  N6       1.0000 0.23850  0.82880  0.47700  Biso   1.000  N
  O1       1.0000 0.95071  0.97420  0.14022  Biso   1.000  O
  O2       1.0000 0.92967  0.13340  0.09554  Biso   1.000  O
  O3       1.0000 0.95364  0.16620  0.52028  Biso   1.000  O
  O4       1.0000 0.81049  0.02580  0.85978  Biso   1.000  O
  O5       1.0000 0.83413  0.86660  0.90446  Biso   1.000  O
  O6       1.0000 0.43336  0.83380  0.47972  Biso   1.000  O
  O7       1.0000 0.04929  0.02580  0.85978  Biso   1.000  O
  O8       1.0000 0.07033  0.86660  0.90446  Biso   1.000  O
  O9       1.0000 0.04636  0.83380  0.47972  Biso   1.000  O
  O10      1.0000 0.18951  0.97420  0.14022  Biso   1.000  O
  O11      1.0000 0.16587  0.13340  0.09554  Biso   1.000  O
  O12      1.0000 0.56664  0.16620  0.52028  Biso   1.000  O
  O13      1.0000 0.97289  0.25260  0.94578  Biso   1.000  O
  O14      1.0000 0.92820  0.38560  0.85640  Biso   1.000  O
  O15      1.0000 0.60230  0.97240  0.20460  Biso   1.000  O
  O16      1.0000 0.02711  0.74740  0.05422  Biso   1.000  O
  O17      1.0000 0.07180  0.61440  0.14360  Biso   1.000  O
  O18      1.0000 0.39770  0.02760  0.79540  Biso   1.000  O
  O19      1.0000 0.16270  0.50000  0.00000  Biso   1.000  O
  O20      1.0000 0.83730  0.50000  0.00000  Biso   1.000  O
