data_image0
_cell_length_a       8.9114
_cell_length_b       11.39
_cell_length_c       13.2137
_cell_angle_alpha    115.53
_cell_angle_beta     92.9955
_cell_angle_gamma    90

_symmetry_space_group_name_H-M    P 1
_symmetry_int_tables_number       1

loop_
  _symmetry_equiv_pos_as_xyz
  'x, y, z'

loop_
  _atom_site_label
  _atom_site_occupancy
  _atom_site_fract_x
  _atom_site_fract_y
  _atom_site_fract_z
  _atom_site_thermal_displace_type
  _atom_site_B_iso_or_equiv
  _atom_site_type_symbol
  Cu1      1.0000 0.00000  0.00000  0.00000  Biso   1.000  Cu
  Cu2      1.0000 0.62777  0.03032  0.06064  Biso   1.000  Cu
  Cu3      1.0000 0.37223  0.96968  0.93936  Biso   1.000  Cu
  H1       1.0000 0.95070  0.15460  0.44700  Biso   1.000  H
  H2       1.0000 0.75580  0.66170  0.76660  Biso   1.000  H
  H3       1.0000 0.68180  0.59710  0.83580  Biso   1.000  H
  H4       1.0000 0.45600  0.56170  0.70940  Biso   1.000  H
  H5       1.0000 0.55990  0.59540  0.63260  Biso   1.000  H
  H6       1.0000 0.92020  0.20650  0.01900  Biso   1.000  H
  H7       1.0000 0.75010  0.08580  0.30880  Biso   1.000  H
  H8       1.0000 0.04930  0.70760  0.55300  Biso   1.000  H
  H9       1.0000 0.24420  0.89510  0.23340  Biso   1.000  H
  H10      1.0000 0.31820  0.76130  0.16420  Biso   1.000  H
  H11      1.0000 0.54400  0.85230  0.29060  Biso   1.000  H
  H12      1.0000 0.44010  0.96280  0.36740  Biso   1.000  H
  H13      1.0000 0.07980  0.18750  0.98100  Biso   1.000  H
  H14      1.0000 0.24990  0.77700  0.69120  Biso   1.000  H
  H15      1.0000 0.04930  0.84540  0.55300  Biso   1.000  H
  H16      1.0000 0.24420  0.33830  0.23340  Biso   1.000  H
  H17      1.0000 0.31820  0.40290  0.16420  Biso   1.000  H
  H18      1.0000 0.54400  0.43830  0.29060  Biso   1.000  H
  H19      1.0000 0.44010  0.40460  0.36740  Biso   1.000  H
  H20      1.0000 0.07980  0.79350  0.98100  Biso   1.000  H
  H21      1.0000 0.24990  0.91420  0.69120  Biso   1.000  H
  H22      1.0000 0.95070  0.29240  0.44700  Biso   1.000  H
  H23      1.0000 0.75580  0.10490  0.76660  Biso   1.000  H
  H24      1.0000 0.68180  0.23870  0.83580  Biso   1.000  H
  H25      1.0000 0.45600  0.14770  0.70940  Biso   1.000  H
  H26      1.0000 0.55990  0.03720  0.63260  Biso   1.000  H
  H27      1.0000 0.92020  0.81250  0.01900  Biso   1.000  H
  H28      1.0000 0.75010  0.22300  0.30880  Biso   1.000  H
  C1       1.0000 0.59360  0.77580  0.86660  Biso   1.000  C
  C2       1.0000 0.66090  0.64520  0.79160  Biso   1.000  C
  C3       1.0000 0.55860  0.56030  0.68760  Biso   1.000  C
  C4       1.0000 0.71830  0.38740  0.55860  Biso   1.000  C
  C5       1.0000 0.40640  0.90920  0.13340  Biso   1.000  C
  C6       1.0000 0.33910  0.85360  0.20840  Biso   1.000  C
  C7       1.0000 0.44140  0.87270  0.31240  Biso   1.000  C
  C8       1.0000 0.28170  0.82880  0.44140  Biso   1.000  C
  C9       1.0000 0.40640  0.22420  0.13340  Biso   1.000  C
  C10      1.0000 0.33910  0.35480  0.20840  Biso   1.000  C
  C11      1.0000 0.44140  0.43970  0.31240  Biso   1.000  C
  C12      1.0000 0.28170  0.61260  0.44140  Biso   1.000  C
  C13      1.0000 0.59360  0.09080  0.86660  Biso   1.000  C
  C14      1.0000 0.66090  0.14640  0.79160  Biso   1.000  C
  C15      1.0000 0.55860  0.12730  0.68760  Biso   1.000  C
  C16      1.0000 0.71830  0.17120  0.55860  Biso   1.000  C
  C17      1.0000 0.92570  0.11260  0.22520  Biso   1.000  C
  C18      1.0000 0.81210  0.15850  0.31700  Biso   1.000  C
  C19      1.0000 0.88750  0.21810  0.43620  Biso   1.000  C
  C20      1.0000 0.55920  0.34190  0.68380  Biso   1.000  C
  C21      1.0000 0.07430  0.88740  0.77480  Biso   1.000  C
  C22      1.0000 0.18790  0.84150  0.68300  Biso   1.000  C
  C23      1.0000 0.11250  0.78190  0.56380  Biso   1.000  C
  C24      1.0000 0.44080  0.65810  0.31620  Biso   1.000  C
  N1       1.0000 0.61110  0.42340  0.63700  Biso   1.000  N
  N2       1.0000 0.38890  0.78640  0.36300  Biso   1.000  N
  N3       1.0000 0.38890  0.57660  0.36300  Biso   1.000  N
  N4       1.0000 0.61110  0.21360  0.63700  Biso   1.000  N
  N5       1.0000 0.76960  0.26090  0.52180  Biso   1.000  N
  N6       1.0000 0.23040  0.73910  0.47820  Biso   1.000  N
  O1       1.0000 0.67740  0.85260  0.95020  Biso   1.000  O
  O2       1.0000 0.46100  0.79907  0.84514  Biso   1.000  O
  O3       1.0000 0.76370  0.46290  0.52220  Biso   1.000  O
  O4       1.0000 0.32260  0.90240  0.04980  Biso   1.000  O
  O5       1.0000 0.53900  0.95393  0.15486  Biso   1.000  O
  O6       1.0000 0.23630  0.94070  0.47780  Biso   1.000  O
  O7       1.0000 0.32260  0.14740  0.04980  Biso   1.000  O
  O8       1.0000 0.53900  0.20093  0.15486  Biso   1.000  O
  O9       1.0000 0.23630  0.53710  0.47780  Biso   1.000  O
  O10      1.0000 0.67740  0.09760  0.95020  Biso   1.000  O
  O11      1.0000 0.46100  0.04607  0.84514  Biso   1.000  O
  O12      1.0000 0.76370  0.05930  0.52220  Biso   1.000  O
  O13      1.0000 0.86290  0.06150  0.12300  Biso   1.000  O
  O14      1.0000 0.06340  0.12270  0.24540  Biso   1.000  O
  O15      1.0000 0.47170  0.38020  0.76040  Biso   1.000  O
  O16      1.0000 0.13710  0.93850  0.87700  Biso   1.000  O
  O17      1.0000 0.93660  0.87730  0.75460  Biso   1.000  O
  O18      1.0000 0.52830  0.61980  0.23960  Biso   1.000  O
  O19      1.0000 0.00000  0.17240  0.00000  Biso   1.000  O
  O20      1.0000 0.00000  0.82760  0.00000  Biso   1.000  O
