data_image0
_cell_length_a       25.4614
_cell_length_b       25.4614
_cell_length_c       14.2628
_cell_angle_alpha    90
_cell_angle_beta     90
_cell_angle_gamma    120

_symmetry_space_group_name_H-M    "P 1"
_symmetry_int_tables_number       1

loop_
  _symmetry_equiv_pos_as_xyz
  'x, y, z'

loop_
  _atom_site_label
  _atom_site_occupancy
  _atom_site_fract_x
  _atom_site_fract_y
  _atom_site_fract_z
  _atom_site_thermal_displace_type
  _atom_site_B_iso_or_equiv
  _atom_site_type_symbol
  Mn1      1.0000 0.08062  0.40207  0.18801  Biso   1.000  Mn
  O1       1.0000 0.06808  0.41727  0.33383  Biso   1.000  O
  N1       1.0000 0.09096  0.49346  0.19080  Biso   1.000  N
  O2       1.0000 0.05910  0.47636  0.43680  Biso   1.000  O
  C1       1.0000 0.09470  0.53713  0.13320  Biso   1.000  C
  C2       1.0000 0.11440  0.54213  0.03450  Biso   1.000  C
  C3       1.0000 0.06550  0.46400  0.35420  Biso   1.000  C
  C4       1.0000 0.07294  0.50515  0.27550  Biso   1.000  C
  C5       1.0000 0.15080  0.54770  0.84930  Biso   1.000  C
  H1       1.0000 0.16340  0.55030  0.78740  Biso   1.000  H
  C6       1.0000 0.08680  0.55750  0.96340  Biso   1.000  C
  H2       1.0000 0.05640  0.56620  0.97810  Biso   1.000  H
  C7       1.0000 0.10470  0.55990  0.87150  Biso   1.000  C
  C8       1.0000 0.17730  0.53200  0.91780  Biso   1.000  C
  H3       1.0000 0.20770  0.52330  0.90270  Biso   1.000  H
  C9       1.0000 0.15910  0.52890  0.01150  Biso   1.000  C
  H4       1.0000 0.17730  0.51790  0.05820  Biso   1.000  H
  C10      1.0000 0.06606  0.55569  0.26510  Biso   1.000  C
  O3       1.0000 0.03220  0.57486  0.41080  Biso   1.000  O
  C11      1.0000 0.04770  0.58981  0.32790  Biso   1.000  C
  O4       1.0000 0.08100  0.57520  0.80000  Biso   1.000  O
  H5       1.0000 0.07940  0.55570  0.75330  Biso   1.000  H
  O5       1.0000 0.04729  0.63524  0.29160  Biso   1.000  O
  N2       1.0000 0.08010  0.57557  0.17390  Biso   1.000  N
  O6       1.0000 0.05420  0.31045  0.23860  Biso   1.000  O
  H6       1.0000 0.02800  0.30030  0.27910  Biso   1.000  H
  O7       1.0000 0.97798  0.35960  0.16720  Biso   1.000  O
  H7       1.0000 0.96880  0.34550  0.11410  Biso   1.000  H
  O8       1.0000 0.07130  0.55470  0.60170  Biso   1.000  O
  H8       1.0000 0.10240  0.57840  0.57370  Biso   1.000  H
  H9       1.0000 0.00000  0.39660  0.14800  Biso   1.000  H
  H10      1.0000 0.07000  0.58200  0.63600  Biso   1.000  H
  H11      1.0000 0.03300  0.28000  0.20300  Biso   1.000  H
  Mn2      1.0000 0.74729  0.73540  0.52134  Biso   1.000  Mn
  O9       1.0000 0.73475  0.75060  0.66716  Biso   1.000  O
  N3       1.0000 0.75763  0.82679  0.52413  Biso   1.000  N
  O10      1.0000 0.72577  0.80969  0.77013  Biso   1.000  O
  C12      1.0000 0.76137  0.87046  0.46653  Biso   1.000  C
  C13      1.0000 0.78107  0.87546  0.36783  Biso   1.000  C
  C14      1.0000 0.73217  0.79733  0.68753  Biso   1.000  C
  C15      1.0000 0.73961  0.83848  0.60883  Biso   1.000  C
  C16      1.0000 0.81747  0.88103  0.18263  Biso   1.000  C
  H12      1.0000 0.83007  0.88363  0.12073  Biso   1.000  H
  C17      1.0000 0.75347  0.89083  0.29673  Biso   1.000  C
  H13      1.0000 0.72307  0.89953  0.31143  Biso   1.000  H
  C18      1.0000 0.77137  0.89323  0.20483  Biso   1.000  C
  C19      1.0000 0.84397  0.86533  0.25113  Biso   1.000  C
  H14      1.0000 0.87437  0.85663  0.23603  Biso   1.000  H
  C20      1.0000 0.82577  0.86223  0.34483  Biso   1.000  C
  H15      1.0000 0.84397  0.85123  0.39153  Biso   1.000  H
  C21      1.0000 0.73273  0.88902  0.59843  Biso   1.000  C
  O11      1.0000 0.69887  0.90819  0.74413  Biso   1.000  O
  C22      1.0000 0.71437  0.92314  0.66123  Biso   1.000  C
  O12      1.0000 0.74767  0.90853  0.13333  Biso   1.000  O
  H16      1.0000 0.74607  0.88903  0.08663  Biso   1.000  H
  O13      1.0000 0.71396  0.96857  0.62493  Biso   1.000  O
  N4       1.0000 0.74677  0.90890  0.50723  Biso   1.000  N
  O14      1.0000 0.72087  0.64378  0.57193  Biso   1.000  O
  H17      1.0000 0.69467  0.63363  0.61243  Biso   1.000  H
  O15      1.0000 0.64465  0.69293  0.50053  Biso   1.000  O
  H18      1.0000 0.63547  0.67883  0.44743  Biso   1.000  H
  O16      1.0000 0.73797  0.88803  0.93503  Biso   1.000  O
  H19      1.0000 0.76907  0.91173  0.90703  Biso   1.000  H
  H20      1.0000 0.66667  0.72993  0.48133  Biso   1.000  H
  H21      1.0000 0.73667  0.91533  0.96933  Biso   1.000  H
  H22      1.0000 0.69967  0.61333  0.53633  Biso   1.000  H
  Mn3      1.0000 0.41395  0.06874  0.85468  Biso   1.000  Mn
  O17      1.0000 0.40141  0.08394  0.00050  Biso   1.000  O
  N5       1.0000 0.42429  0.16013  0.85747  Biso   1.000  N
  O18      1.0000 0.39243  0.14303  0.10347  Biso   1.000  O
  C23      1.0000 0.42803  0.20380  0.79987  Biso   1.000  C
  C24      1.0000 0.44773  0.20880  0.70117  Biso   1.000  C
  C25      1.0000 0.39883  0.13067  0.02087  Biso   1.000  C
  C26      1.0000 0.40627  0.17182  0.94217  Biso   1.000  C
  C27      1.0000 0.48413  0.21437  0.51597  Biso   1.000  C
  H23      1.0000 0.49673  0.21697  0.45407  Biso   1.000  H
  C28      1.0000 0.42013  0.22417  0.63007  Biso   1.000  C
  H24      1.0000 0.38973  0.23287  0.64477  Biso   1.000  H
  C29      1.0000 0.43803  0.22657  0.53817  Biso   1.000  C
  C30      1.0000 0.51063  0.19867  0.58447  Biso   1.000  C
  H25      1.0000 0.54103  0.18997  0.56937  Biso   1.000  H
  C31      1.0000 0.49243  0.19557  0.67817  Biso   1.000  C
  H26      1.0000 0.51063  0.18457  0.72487  Biso   1.000  H
  C32      1.0000 0.39939  0.22236  0.93177  Biso   1.000  C
  O19      1.0000 0.36553  0.24153  0.07747  Biso   1.000  O
  C33      1.0000 0.38103  0.25648  0.99457  Biso   1.000  C
  O20      1.0000 0.41433  0.24187  0.46667  Biso   1.000  O
  H27      1.0000 0.41273  0.22237  0.41997  Biso   1.000  H
  O21      1.0000 0.38062  0.30191  0.95827  Biso   1.000  O
  N6       1.0000 0.41343  0.24224  0.84057  Biso   1.000  N
  O22      1.0000 0.38753  0.97712  0.90527  Biso   1.000  O
  H28      1.0000 0.36133  0.96697  0.94577  Biso   1.000  H
  O23      1.0000 0.31131  0.02627  0.83387  Biso   1.000  O
  H29      1.0000 0.30213  0.01217  0.78077  Biso   1.000  H
  O24      1.0000 0.40463  0.22137  0.26837  Biso   1.000  O
  H30      1.0000 0.43573  0.24507  0.24037  Biso   1.000  H
  H31      1.0000 0.33333  0.06327  0.81467  Biso   1.000  H
  H32      1.0000 0.40333  0.24867  0.30267  Biso   1.000  H
  H33      1.0000 0.36633  0.94667  0.86967  Biso   1.000  H
  Mn4      1.0000 0.59793  0.67855  0.18801  Biso   1.000  Mn
  O25      1.0000 0.58273  0.65081  0.33383  Biso   1.000  O
  N7       1.0000 0.50654  0.59750  0.19080  Biso   1.000  N
  O26      1.0000 0.52364  0.58274  0.43680  Biso   1.000  O
  C34      1.0000 0.46287  0.55757  0.13320  Biso   1.000  C
  C35      1.0000 0.45787  0.57227  0.03450  Biso   1.000  C
  C36      1.0000 0.53600  0.60150  0.35420  Biso   1.000  C
  C37      1.0000 0.49485  0.56779  0.27550  Biso   1.000  C
  C38      1.0000 0.45230  0.60310  0.84930  Biso   1.000  C
  H34      1.0000 0.44970  0.61310  0.78740  Biso   1.000  H
  C39      1.0000 0.44250  0.52930  0.96340  Biso   1.000  C
  H35      1.0000 0.43380  0.49020  0.97810  Biso   1.000  H
  C40      1.0000 0.44010  0.54480  0.87150  Biso   1.000  C
  C41      1.0000 0.46800  0.64530  0.91780  Biso   1.000  C
  H36      1.0000 0.47670  0.68440  0.90270  Biso   1.000  H
  C42      1.0000 0.47110  0.63020  0.01150  Biso   1.000  C
  H37      1.0000 0.48210  0.65940  0.05820  Biso   1.000  H
  C43      1.0000 0.44431  0.51037  0.26510  Biso   1.000  C
  O27      1.0000 0.42514  0.45734  0.41080  Biso   1.000  O
  C44      1.0000 0.41019  0.45789  0.32790  Biso   1.000  C
  O28      1.0000 0.42480  0.50580  0.80000  Biso   1.000  O
  H38      1.0000 0.44430  0.52370  0.75330  Biso   1.000  H
  O29      1.0000 0.36476  0.41205  0.29160  Biso   1.000  O
  N8       1.0000 0.42443  0.50453  0.17390  Biso   1.000  N
  O30      1.0000 0.68955  0.74375  0.23860  Biso   1.000  O
  H39      1.0000 0.69970  0.72770  0.27910  Biso   1.000  H
  O31      1.0000 0.64040  0.61838  0.16720  Biso   1.000  O
  H40      1.0000 0.65450  0.62330  0.11410  Biso   1.000  H
  O32      1.0000 0.44530  0.51660  0.60170  Biso   1.000  O
  H41      1.0000 0.42160  0.52400  0.57370  Biso   1.000  H
  H42      1.0000 0.60340  0.60340  0.14800  Biso   1.000  H
  H43      1.0000 0.41800  0.48800  0.63600  Biso   1.000  H
  H44      1.0000 0.72000  0.75300  0.20300  Biso   1.000  H
  Mn5      1.0000 0.26460  0.01188  0.52134  Biso   1.000  Mn
  O33      1.0000 0.24940  0.98414  0.66716  Biso   1.000  O
  N9       1.0000 0.17321  0.93083  0.52413  Biso   1.000  N
  O34      1.0000 0.19031  0.91607  0.77013  Biso   1.000  O
  C45      1.0000 0.12954  0.89090  0.46653  Biso   1.000  C
  C46      1.0000 0.12454  0.90560  0.36783  Biso   1.000  C
  C47      1.0000 0.20267  0.93483  0.68753  Biso   1.000  C
  C48      1.0000 0.16152  0.90112  0.60883  Biso   1.000  C
  C49      1.0000 0.11897  0.93643  0.18263  Biso   1.000  C
  H45      1.0000 0.11637  0.94643  0.12073  Biso   1.000  H
  C50      1.0000 0.10917  0.86263  0.29673  Biso   1.000  C
  H46      1.0000 0.10047  0.82353  0.31143  Biso   1.000  H
  C51      1.0000 0.10677  0.87813  0.20483  Biso   1.000  C
  C52      1.0000 0.13467  0.97863  0.25113  Biso   1.000  C
  H47      1.0000 0.14337  0.01773  0.23603  Biso   1.000  H
  C53      1.0000 0.13777  0.96353  0.34483  Biso   1.000  C
  H48      1.0000 0.14877  0.99273  0.39153  Biso   1.000  H
  C54      1.0000 0.11098  0.84370  0.59843  Biso   1.000  C
  O35      1.0000 0.09181  0.79067  0.74413  Biso   1.000  O
  C55      1.0000 0.07686  0.79122  0.66123  Biso   1.000  C
  O36      1.0000 0.09147  0.83913  0.13333  Biso   1.000  O
  H49      1.0000 0.11097  0.85703  0.08663  Biso   1.000  H
  O37      1.0000 0.03143  0.74538  0.62493  Biso   1.000  O
  N10      1.0000 0.09110  0.83786  0.50723  Biso   1.000  N
  O38      1.0000 0.35622  0.07708  0.57193  Biso   1.000  O
  H50      1.0000 0.36637  0.06103  0.61243  Biso   1.000  H
  O39      1.0000 0.30707  0.95171  0.50053  Biso   1.000  O
  H51      1.0000 0.32117  0.95663  0.44743  Biso   1.000  H
  O40      1.0000 0.11197  0.84993  0.93503  Biso   1.000  O
  H52      1.0000 0.08827  0.85733  0.90703  Biso   1.000  H
  H53      1.0000 0.27007  0.93673  0.48133  Biso   1.000  H
  H54      1.0000 0.08467  0.82133  0.96933  Biso   1.000  H
  H55      1.0000 0.38667  0.08633  0.53633  Biso   1.000  H
  Mn6      1.0000 0.93126  0.34522  0.85468  Biso   1.000  Mn
  O41      1.0000 0.91606  0.31748  0.00050  Biso   1.000  O
  N11      1.0000 0.83987  0.26417  0.85747  Biso   1.000  N
  O42      1.0000 0.85697  0.24941  0.10347  Biso   1.000  O
  C56      1.0000 0.79620  0.22424  0.79987  Biso   1.000  C
  C57      1.0000 0.79120  0.23894  0.70117  Biso   1.000  C
  C58      1.0000 0.86933  0.26817  0.02087  Biso   1.000  C
  C59      1.0000 0.82818  0.23446  0.94217  Biso   1.000  C
  C60      1.0000 0.78563  0.26977  0.51597  Biso   1.000  C
  H56      1.0000 0.78303  0.27977  0.45407  Biso   1.000  H
  C61      1.0000 0.77583  0.19597  0.63007  Biso   1.000  C
  H57      1.0000 0.76713  0.15687  0.64477  Biso   1.000  H
  C62      1.0000 0.77343  0.21147  0.53817  Biso   1.000  C
  C63      1.0000 0.80133  0.31197  0.58447  Biso   1.000  C
  H58      1.0000 0.81003  0.35107  0.56937  Biso   1.000  H
  C64      1.0000 0.80443  0.29687  0.67817  Biso   1.000  C
  H59      1.0000 0.81543  0.32607  0.72487  Biso   1.000  H
  C65      1.0000 0.77764  0.17704  0.93177  Biso   1.000  C
  O43      1.0000 0.75847  0.12401  0.07747  Biso   1.000  O
  C66      1.0000 0.74352  0.12456  0.99457  Biso   1.000  C
  O44      1.0000 0.75813  0.17247  0.46667  Biso   1.000  O
  H60      1.0000 0.77763  0.19037  0.41997  Biso   1.000  H
  O45      1.0000 0.69809  0.07872  0.95827  Biso   1.000  O
  N12      1.0000 0.75776  0.17120  0.84057  Biso   1.000  N
  O46      1.0000 0.02288  0.41042  0.90527  Biso   1.000  O
  H61      1.0000 0.03303  0.39437  0.94577  Biso   1.000  H
  O47      1.0000 0.97373  0.28505  0.83387  Biso   1.000  O
  H62      1.0000 0.98783  0.28997  0.78077  Biso   1.000  H
  O48      1.0000 0.77863  0.18327  0.26837  Biso   1.000  O
  H63      1.0000 0.75493  0.19067  0.24037  Biso   1.000  H
  H64      1.0000 0.93673  0.27007  0.81467  Biso   1.000  H
  H65      1.0000 0.75133  0.15467  0.30267  Biso   1.000  H
  H66      1.0000 0.05333  0.41967  0.86967  Biso   1.000  H
  Mn7      1.0000 0.32145  0.91938  0.18801  Biso   1.000  Mn
  O49      1.0000 0.34919  0.93192  0.33383  Biso   1.000  O
  N13      1.0000 0.40250  0.90904  0.19080  Biso   1.000  N
  O50      1.0000 0.41726  0.94090  0.43680  Biso   1.000  O
  C67      1.0000 0.44243  0.90530  0.13320  Biso   1.000  C
  C68      1.0000 0.42773  0.88560  0.03450  Biso   1.000  C
  C69      1.0000 0.39850  0.93450  0.35420  Biso   1.000  C
  C70      1.0000 0.43221  0.92706  0.27550  Biso   1.000  C
  C71      1.0000 0.39690  0.84920  0.84930  Biso   1.000  C
  H67      1.0000 0.38690  0.83660  0.78740  Biso   1.000  H
  C72      1.0000 0.47070  0.91320  0.96340  Biso   1.000  C
  H68      1.0000 0.50980  0.94360  0.97810  Biso   1.000  H
  C73      1.0000 0.45520  0.89530  0.87150  Biso   1.000  C
  C74      1.0000 0.35470  0.82270  0.91780  Biso   1.000  C
  H69      1.0000 0.31560  0.79230  0.90270  Biso   1.000  H
  C75      1.0000 0.36980  0.84090  0.01150  Biso   1.000  C
  H70      1.0000 0.34060  0.82270  0.05820  Biso   1.000  H
  C76      1.0000 0.48963  0.93394  0.26510  Biso   1.000  C
  O51      1.0000 0.54266  0.96780  0.41080  Biso   1.000  O
  C77      1.0000 0.54211  0.95230  0.32790  Biso   1.000  C
  O52      1.0000 0.49420  0.91900  0.80000  Biso   1.000  O
  H71      1.0000 0.47630  0.92060  0.75330  Biso   1.000  H
  O53      1.0000 0.58795  0.95271  0.29160  Biso   1.000  O
  N14      1.0000 0.49547  0.91990  0.17390  Biso   1.000  N
  O54      1.0000 0.25625  0.94580  0.23860  Biso   1.000  O
  H72      1.0000 0.27230  0.97200  0.27910  Biso   1.000  H
  O55      1.0000 0.38162  0.02202  0.16720  Biso   1.000  O
  H73      1.0000 0.37670  0.03120  0.11410  Biso   1.000  H
  O56      1.0000 0.48340  0.92870  0.60170  Biso   1.000  O
  H74      1.0000 0.47600  0.89760  0.57370  Biso   1.000  H
  H75      1.0000 0.39660  0.00000  0.14800  Biso   1.000  H
  H76      1.0000 0.51200  0.93000  0.63600  Biso   1.000  H
  H77      1.0000 0.24700  0.96700  0.20300  Biso   1.000  H
  Mn8      1.0000 0.98812  0.25271  0.52134  Biso   1.000  Mn
  O57      1.0000 0.01586  0.26525  0.66716  Biso   1.000  O
  N15      1.0000 0.06917  0.24237  0.52413  Biso   1.000  N
  O58      1.0000 0.08393  0.27423  0.77013  Biso   1.000  O
  C78      1.0000 0.10910  0.23863  0.46653  Biso   1.000  C
  C79      1.0000 0.09440  0.21893  0.36783  Biso   1.000  C
  C80      1.0000 0.06517  0.26783  0.68753  Biso   1.000  C
  C81      1.0000 0.09888  0.26039  0.60883  Biso   1.000  C
  C82      1.0000 0.06357  0.18253  0.18263  Biso   1.000  C
  H78      1.0000 0.05357  0.16993  0.12073  Biso   1.000  H
  C83      1.0000 0.13737  0.24653  0.29673  Biso   1.000  C
  H79      1.0000 0.17647  0.27693  0.31143  Biso   1.000  H
  C84      1.0000 0.12187  0.22863  0.20483  Biso   1.000  C
  C85      1.0000 0.02137  0.15603  0.25113  Biso   1.000  C
  H80      1.0000 0.98227  0.12563  0.23603  Biso   1.000  H
  C86      1.0000 0.03647  0.17423  0.34483  Biso   1.000  C
  H81      1.0000 0.00727  0.15603  0.39153  Biso   1.000  H
  C87      1.0000 0.15630  0.26727  0.59843  Biso   1.000  C
  O59      1.0000 0.20933  0.30113  0.74413  Biso   1.000  O
  C88      1.0000 0.20878  0.28563  0.66123  Biso   1.000  C
  O60      1.0000 0.16087  0.25233  0.13333  Biso   1.000  O
  H82      1.0000 0.14297  0.25393  0.08663  Biso   1.000  H
  O61      1.0000 0.25462  0.28604  0.62493  Biso   1.000  O
  N16      1.0000 0.16214  0.25323  0.50723  Biso   1.000  N
  O62      1.0000 0.92292  0.27913  0.57193  Biso   1.000  O
  H83      1.0000 0.93897  0.30533  0.61243  Biso   1.000  H
  O63      1.0000 0.04829  0.35535  0.50053  Biso   1.000  O
  H84      1.0000 0.04337  0.36453  0.44743  Biso   1.000  H
  O64      1.0000 0.15007  0.26203  0.93503  Biso   1.000  O
  H85      1.0000 0.14267  0.23093  0.90703  Biso   1.000  H
  H86      1.0000 0.06327  0.33333  0.48133  Biso   1.000  H
  H87      1.0000 0.17867  0.26333  0.96933  Biso   1.000  H
  H88      1.0000 0.91367  0.30033  0.53633  Biso   1.000  H
  Mn9      1.0000 0.65478  0.58605  0.85468  Biso   1.000  Mn
  O65      1.0000 0.68252  0.59859  0.00050  Biso   1.000  O
  N17      1.0000 0.73583  0.57571  0.85747  Biso   1.000  N
  O66      1.0000 0.75059  0.60757  0.10347  Biso   1.000  O
  C89      1.0000 0.77576  0.57197  0.79987  Biso   1.000  C
  C90      1.0000 0.76106  0.55227  0.70117  Biso   1.000  C
  C91      1.0000 0.73183  0.60117  0.02087  Biso   1.000  C
  C92      1.0000 0.76554  0.59373  0.94217  Biso   1.000  C
  C93      1.0000 0.73023  0.51587  0.51597  Biso   1.000  C
  H89      1.0000 0.72023  0.50327  0.45407  Biso   1.000  H
  C94      1.0000 0.80403  0.57987  0.63007  Biso   1.000  C
  H90      1.0000 0.84313  0.61027  0.64477  Biso   1.000  H
  C95      1.0000 0.78853  0.56197  0.53817  Biso   1.000  C
  C96      1.0000 0.68803  0.48937  0.58447  Biso   1.000  C
  H91      1.0000 0.64893  0.45897  0.56937  Biso   1.000  H
  C97      1.0000 0.70313  0.50757  0.67817  Biso   1.000  C
  H92      1.0000 0.67393  0.48937  0.72487  Biso   1.000  H
  C98      1.0000 0.82296  0.60061  0.93177  Biso   1.000  C
  O67      1.0000 0.87599  0.63447  0.07747  Biso   1.000  O
  C99      1.0000 0.87544  0.61897  0.99457  Biso   1.000  C
  O68      1.0000 0.82753  0.58567  0.46667  Biso   1.000  O
  H93      1.0000 0.80963  0.58727  0.41997  Biso   1.000  H
  O69      1.0000 0.92128  0.61938  0.95827  Biso   1.000  O
  N18      1.0000 0.82880  0.58657  0.84057  Biso   1.000  N
  O70      1.0000 0.58958  0.61247  0.90527  Biso   1.000  O
  H94      1.0000 0.60563  0.63867  0.94577  Biso   1.000  H
  O71      1.0000 0.71495  0.68869  0.83387  Biso   1.000  O
  H95      1.0000 0.71003  0.69787  0.78077  Biso   1.000  H
  O72      1.0000 0.81673  0.59537  0.26837  Biso   1.000  O
  H96      1.0000 0.80933  0.56427  0.24037  Biso   1.000  H
  H97      1.0000 0.72993  0.66667  0.81467  Biso   1.000  H
  H98      1.0000 0.84533  0.59667  0.30267  Biso   1.000  H
  H99      1.0000 0.58033  0.63367  0.86967  Biso   1.000  H
  Mn10     1.0000 0.91938  0.59793  0.81199  Biso   1.000  Mn
  O73      1.0000 0.93192  0.58273  0.66617  Biso   1.000  O
  N19      1.0000 0.90904  0.50654  0.80920  Biso   1.000  N
  O74      1.0000 0.94090  0.52364  0.56320  Biso   1.000  O
  C100     1.0000 0.90530  0.46287  0.86680  Biso   1.000  C
  C101     1.0000 0.88560  0.45787  0.96550  Biso   1.000  C
  C102     1.0000 0.93450  0.53600  0.64580  Biso   1.000  C
  C103     1.0000 0.92706  0.49485  0.72450  Biso   1.000  C
  C104     1.0000 0.84920  0.45230  0.15070  Biso   1.000  C
  H100     1.0000 0.83660  0.44970  0.21260  Biso   1.000  H
  C105     1.0000 0.91320  0.44250  0.03660  Biso   1.000  C
  H101     1.0000 0.94360  0.43380  0.02190  Biso   1.000  H
  C106     1.0000 0.89530  0.44010  0.12850  Biso   1.000  C
  C107     1.0000 0.82270  0.46800  0.08220  Biso   1.000  C
  H102     1.0000 0.79230  0.47670  0.09730  Biso   1.000  H
  C108     1.0000 0.84090  0.47110  0.98850  Biso   1.000  C
  H103     1.0000 0.82270  0.48210  0.94180  Biso   1.000  H
  C109     1.0000 0.93394  0.44431  0.73490  Biso   1.000  C
  O75      1.0000 0.96780  0.42514  0.58920  Biso   1.000  O
  C110     1.0000 0.95230  0.41019  0.67210  Biso   1.000  C
  O76      1.0000 0.91900  0.42480  0.20000  Biso   1.000  O
  H104     1.0000 0.92060  0.44430  0.24670  Biso   1.000  H
  O77      1.0000 0.95271  0.36476  0.70840  Biso   1.000  O
  N20      1.0000 0.91990  0.42443  0.82610  Biso   1.000  N
  O78      1.0000 0.94580  0.68955  0.76140  Biso   1.000  O
  H105     1.0000 0.97200  0.69970  0.72090  Biso   1.000  H
  O79      1.0000 0.02202  0.64040  0.83280  Biso   1.000  O
  H106     1.0000 0.03120  0.65450  0.88590  Biso   1.000  H
  O80      1.0000 0.92870  0.44530  0.39830  Biso   1.000  O
  H107     1.0000 0.89760  0.42160  0.42630  Biso   1.000  H
  H108     1.0000 0.00000  0.60340  0.85200  Biso   1.000  H
  H109     1.0000 0.93000  0.41800  0.36400  Biso   1.000  H
  H110     1.0000 0.96700  0.72000  0.79700  Biso   1.000  H
  Mn11     1.0000 0.58605  0.93126  0.14532  Biso   1.000  Mn
  O81      1.0000 0.59859  0.91606  0.99950  Biso   1.000  O
  N21      1.0000 0.57571  0.83987  0.14253  Biso   1.000  N
  O82      1.0000 0.60757  0.85697  0.89653  Biso   1.000  O
  C111     1.0000 0.57197  0.79620  0.20013  Biso   1.000  C
  C112     1.0000 0.55227  0.79120  0.29883  Biso   1.000  C
  C113     1.0000 0.60117  0.86933  0.97913  Biso   1.000  C
  C114     1.0000 0.59373  0.82818  0.05783  Biso   1.000  C
  C115     1.0000 0.51587  0.78563  0.48403  Biso   1.000  C
  H111     1.0000 0.50327  0.78303  0.54593  Biso   1.000  H
  C116     1.0000 0.57987  0.77583  0.36993  Biso   1.000  C
  H112     1.0000 0.61027  0.76713  0.35523  Biso   1.000  H
  C117     1.0000 0.56197  0.77343  0.46183  Biso   1.000  C
  C118     1.0000 0.48937  0.80133  0.41553  Biso   1.000  C
  H113     1.0000 0.45897  0.81003  0.43063  Biso   1.000  H
  C119     1.0000 0.50757  0.80443  0.32183  Biso   1.000  C
  H114     1.0000 0.48937  0.81543  0.27513  Biso   1.000  H
  C120     1.0000 0.60061  0.77764  0.06823  Biso   1.000  C
  O83      1.0000 0.63447  0.75847  0.92253  Biso   1.000  O
  C121     1.0000 0.61897  0.74352  0.00543  Biso   1.000  C
  O84      1.0000 0.58567  0.75813  0.53333  Biso   1.000  O
  H115     1.0000 0.58727  0.77763  0.58003  Biso   1.000  H
  O85      1.0000 0.61938  0.69809  0.04173  Biso   1.000  O
  N22      1.0000 0.58657  0.75776  0.15943  Biso   1.000  N
  O86      1.0000 0.61247  0.02288  0.09473  Biso   1.000  O
  H116     1.0000 0.63867  0.03303  0.05423  Biso   1.000  H
  O87      1.0000 0.68869  0.97373  0.16613  Biso   1.000  O
  H117     1.0000 0.69787  0.98783  0.21923  Biso   1.000  H
  O88      1.0000 0.59537  0.77863  0.73163  Biso   1.000  O
  H118     1.0000 0.56427  0.75493  0.75963  Biso   1.000  H
  H119     1.0000 0.66667  0.93673  0.18533  Biso   1.000  H
  H120     1.0000 0.59667  0.75133  0.69733  Biso   1.000  H
  H121     1.0000 0.63367  0.05333  0.13033  Biso   1.000  H
  Mn12     1.0000 0.25271  0.26460  0.47866  Biso   1.000  Mn
  O89      1.0000 0.26525  0.24940  0.33284  Biso   1.000  O
  N23      1.0000 0.24237  0.17321  0.47587  Biso   1.000  N
  O90      1.0000 0.27423  0.19031  0.22987  Biso   1.000  O
  C122     1.0000 0.23863  0.12954  0.53347  Biso   1.000  C
  C123     1.0000 0.21893  0.12454  0.63217  Biso   1.000  C
  C124     1.0000 0.26783  0.20267  0.31247  Biso   1.000  C
  C125     1.0000 0.26039  0.16152  0.39117  Biso   1.000  C
  C126     1.0000 0.18253  0.11897  0.81737  Biso   1.000  C
  H122     1.0000 0.16993  0.11637  0.87927  Biso   1.000  H
  C127     1.0000 0.24653  0.10917  0.70327  Biso   1.000  C
  H123     1.0000 0.27693  0.10047  0.68857  Biso   1.000  H
  C128     1.0000 0.22863  0.10677  0.79517  Biso   1.000  C
  C129     1.0000 0.15603  0.13467  0.74887  Biso   1.000  C
  H124     1.0000 0.12563  0.14337  0.76397  Biso   1.000  H
  C130     1.0000 0.17423  0.13777  0.65517  Biso   1.000  C
  H125     1.0000 0.15603  0.14877  0.60847  Biso   1.000  H
  C131     1.0000 0.26727  0.11098  0.40157  Biso   1.000  C
  O91      1.0000 0.30113  0.09181  0.25587  Biso   1.000  O
  C132     1.0000 0.28563  0.07686  0.33877  Biso   1.000  C
  O92      1.0000 0.25233  0.09147  0.86667  Biso   1.000  O
  H126     1.0000 0.25393  0.11097  0.91337  Biso   1.000  H
  O93      1.0000 0.28604  0.03143  0.37507  Biso   1.000  O
  N24      1.0000 0.25323  0.09110  0.49277  Biso   1.000  N
  O94      1.0000 0.27913  0.35622  0.42807  Biso   1.000  O
  H127     1.0000 0.30533  0.36637  0.38757  Biso   1.000  H
  O95      1.0000 0.35535  0.30707  0.49947  Biso   1.000  O
  H128     1.0000 0.36453  0.32117  0.55257  Biso   1.000  H
  O96      1.0000 0.26203  0.11197  0.06497  Biso   1.000  O
  H129     1.0000 0.23093  0.08827  0.09297  Biso   1.000  H
  H130     1.0000 0.33333  0.27007  0.51867  Biso   1.000  H
  H131     1.0000 0.26333  0.08467  0.03067  Biso   1.000  H
  H132     1.0000 0.30033  0.38667  0.46367  Biso   1.000  H
  Mn13     1.0000 0.40207  0.32145  0.81199  Biso   1.000  Mn
  O97      1.0000 0.41727  0.34919  0.66617  Biso   1.000  O
  N25      1.0000 0.49346  0.40250  0.80920  Biso   1.000  N
  O98      1.0000 0.47636  0.41726  0.56320  Biso   1.000  O
  C133     1.0000 0.53713  0.44243  0.86680  Biso   1.000  C
  C134     1.0000 0.54213  0.42773  0.96550  Biso   1.000  C
  C135     1.0000 0.46400  0.39850  0.64580  Biso   1.000  C
  C136     1.0000 0.50515  0.43221  0.72450  Biso   1.000  C
  C137     1.0000 0.54770  0.39690  0.15070  Biso   1.000  C
  H133     1.0000 0.55030  0.38690  0.21260  Biso   1.000  H
  C138     1.0000 0.55750  0.47070  0.03660  Biso   1.000  C
  H134     1.0000 0.56620  0.50980  0.02190  Biso   1.000  H
  C139     1.0000 0.55990  0.45520  0.12850  Biso   1.000  C
  C140     1.0000 0.53200  0.35470  0.08220  Biso   1.000  C
  H135     1.0000 0.52330  0.31560  0.09730  Biso   1.000  H
  C141     1.0000 0.52890  0.36980  0.98850  Biso   1.000  C
  H136     1.0000 0.51790  0.34060  0.94180  Biso   1.000  H
  C142     1.0000 0.55569  0.48963  0.73490  Biso   1.000  C
  O99      1.0000 0.57486  0.54266  0.58920  Biso   1.000  O
  C143     1.0000 0.58981  0.54211  0.67210  Biso   1.000  C
  O100     1.0000 0.57520  0.49420  0.20000  Biso   1.000  O
  H137     1.0000 0.55570  0.47630  0.24670  Biso   1.000  H
  O101     1.0000 0.63524  0.58795  0.70840  Biso   1.000  O
  N26      1.0000 0.57557  0.49547  0.82610  Biso   1.000  N
  O102     1.0000 0.31045  0.25625  0.76140  Biso   1.000  O
  H138     1.0000 0.30030  0.27230  0.72090  Biso   1.000  H
  O103     1.0000 0.35960  0.38162  0.83280  Biso   1.000  O
  H139     1.0000 0.34550  0.37670  0.88590  Biso   1.000  H
  O104     1.0000 0.55470  0.48340  0.39830  Biso   1.000  O
  H140     1.0000 0.57840  0.47600  0.42630  Biso   1.000  H
  H141     1.0000 0.39660  0.39660  0.85200  Biso   1.000  H
  H142     1.0000 0.58200  0.51200  0.36400  Biso   1.000  H
  H143     1.0000 0.28000  0.24700  0.79700  Biso   1.000  H
  Mn14     1.0000 0.06874  0.65478  0.14532  Biso   1.000  Mn
  O105     1.0000 0.08394  0.68252  0.99950  Biso   1.000  O
  N27      1.0000 0.16013  0.73583  0.14253  Biso   1.000  N
  O106     1.0000 0.14303  0.75059  0.89653  Biso   1.000  O
  C144     1.0000 0.20380  0.77576  0.20013  Biso   1.000  C
  C145     1.0000 0.20880  0.76106  0.29883  Biso   1.000  C
  C146     1.0000 0.13067  0.73183  0.97913  Biso   1.000  C
  C147     1.0000 0.17182  0.76554  0.05783  Biso   1.000  C
  C148     1.0000 0.21437  0.73023  0.48403  Biso   1.000  C
  H144     1.0000 0.21697  0.72023  0.54593  Biso   1.000  H
  C149     1.0000 0.22417  0.80403  0.36993  Biso   1.000  C
  H145     1.0000 0.23287  0.84313  0.35523  Biso   1.000  H
  C150     1.0000 0.22657  0.78853  0.46183  Biso   1.000  C
  C151     1.0000 0.19867  0.68803  0.41553  Biso   1.000  C
  H146     1.0000 0.18997  0.64893  0.43063  Biso   1.000  H
  C152     1.0000 0.19557  0.70313  0.32183  Biso   1.000  C
  H147     1.0000 0.18457  0.67393  0.27513  Biso   1.000  H
  C153     1.0000 0.22236  0.82296  0.06823  Biso   1.000  C
  O107     1.0000 0.24153  0.87599  0.92253  Biso   1.000  O
  C154     1.0000 0.25648  0.87544  0.00543  Biso   1.000  C
  O108     1.0000 0.24187  0.82753  0.53333  Biso   1.000  O
  H148     1.0000 0.22237  0.80963  0.58003  Biso   1.000  H
  O109     1.0000 0.30191  0.92128  0.04173  Biso   1.000  O
  N28      1.0000 0.24224  0.82880  0.15943  Biso   1.000  N
  O110     1.0000 0.97712  0.58958  0.09473  Biso   1.000  O
  H149     1.0000 0.96697  0.60563  0.05423  Biso   1.000  H
  O111     1.0000 0.02627  0.71495  0.16613  Biso   1.000  O
  H150     1.0000 0.01217  0.71003  0.21923  Biso   1.000  H
  O112     1.0000 0.22137  0.81673  0.73163  Biso   1.000  O
  H151     1.0000 0.24507  0.80933  0.75963  Biso   1.000  H
  H152     1.0000 0.06327  0.72993  0.18533  Biso   1.000  H
  H153     1.0000 0.24867  0.84533  0.69733  Biso   1.000  H
  H154     1.0000 0.94667  0.58033  0.13033  Biso   1.000  H
  Mn15     1.0000 0.73540  0.98812  0.47866  Biso   1.000  Mn
  O113     1.0000 0.75060  0.01586  0.33284  Biso   1.000  O
  N29      1.0000 0.82679  0.06917  0.47587  Biso   1.000  N
  O114     1.0000 0.80969  0.08393  0.22987  Biso   1.000  O
  C155     1.0000 0.87046  0.10910  0.53347  Biso   1.000  C
  C156     1.0000 0.87546  0.09440  0.63217  Biso   1.000  C
  C157     1.0000 0.79733  0.06517  0.31247  Biso   1.000  C
  C158     1.0000 0.83848  0.09888  0.39117  Biso   1.000  C
  C159     1.0000 0.88103  0.06357  0.81737  Biso   1.000  C
  H155     1.0000 0.88363  0.05357  0.87927  Biso   1.000  H
  C160     1.0000 0.89083  0.13737  0.70327  Biso   1.000  C
  H156     1.0000 0.89953  0.17647  0.68857  Biso   1.000  H
  C161     1.0000 0.89323  0.12187  0.79517  Biso   1.000  C
  C162     1.0000 0.86533  0.02137  0.74887  Biso   1.000  C
  H157     1.0000 0.85663  0.98227  0.76397  Biso   1.000  H
  C163     1.0000 0.86223  0.03647  0.65517  Biso   1.000  C
  H158     1.0000 0.85123  0.00727  0.60847  Biso   1.000  H
  C164     1.0000 0.88902  0.15630  0.40157  Biso   1.000  C
  O115     1.0000 0.90819  0.20933  0.25587  Biso   1.000  O
  C165     1.0000 0.92314  0.20878  0.33877  Biso   1.000  C
  O116     1.0000 0.90853  0.16087  0.86667  Biso   1.000  O
  H159     1.0000 0.88903  0.14297  0.91337  Biso   1.000  H
  O117     1.0000 0.96857  0.25462  0.37507  Biso   1.000  O
  N30      1.0000 0.90890  0.16214  0.49277  Biso   1.000  N
  O118     1.0000 0.64378  0.92292  0.42807  Biso   1.000  O
  H160     1.0000 0.63363  0.93897  0.38757  Biso   1.000  H
  O119     1.0000 0.69293  0.04829  0.49947  Biso   1.000  O
  H161     1.0000 0.67883  0.04337  0.55257  Biso   1.000  H
  O120     1.0000 0.88803  0.15007  0.06497  Biso   1.000  O
  H162     1.0000 0.91173  0.14267  0.09297  Biso   1.000  H
  H163     1.0000 0.72993  0.06327  0.51867  Biso   1.000  H
  H164     1.0000 0.91533  0.17867  0.03067  Biso   1.000  H
  H165     1.0000 0.61333  0.91367  0.46367  Biso   1.000  H
  Mn16     1.0000 0.67855  0.08062  0.81199  Biso   1.000  Mn
  O121     1.0000 0.65081  0.06808  0.66617  Biso   1.000  O
  N31      1.0000 0.59750  0.09096  0.80920  Biso   1.000  N
  O122     1.0000 0.58274  0.05910  0.56320  Biso   1.000  O
  C166     1.0000 0.55757  0.09470  0.86680  Biso   1.000  C
  C167     1.0000 0.57227  0.11440  0.96550  Biso   1.000  C
  C168     1.0000 0.60150  0.06550  0.64580  Biso   1.000  C
  C169     1.0000 0.56779  0.07294  0.72450  Biso   1.000  C
  C170     1.0000 0.60310  0.15080  0.15070  Biso   1.000  C
  H166     1.0000 0.61310  0.16340  0.21260  Biso   1.000  H
  C171     1.0000 0.52930  0.08680  0.03660  Biso   1.000  C
  H167     1.0000 0.49020  0.05640  0.02190  Biso   1.000  H
  C172     1.0000 0.54480  0.10470  0.12850  Biso   1.000  C
  C173     1.0000 0.64530  0.17730  0.08220  Biso   1.000  C
  H168     1.0000 0.68440  0.20770  0.09730  Biso   1.000  H
  C174     1.0000 0.63020  0.15910  0.98850  Biso   1.000  C
  H169     1.0000 0.65940  0.17730  0.94180  Biso   1.000  H
  C175     1.0000 0.51037  0.06606  0.73490  Biso   1.000  C
  O123     1.0000 0.45734  0.03220  0.58920  Biso   1.000  O
  C176     1.0000 0.45789  0.04770  0.67210  Biso   1.000  C
  O124     1.0000 0.50580  0.08100  0.20000  Biso   1.000  O
  H170     1.0000 0.52370  0.07940  0.24670  Biso   1.000  H
  O125     1.0000 0.41205  0.04729  0.70840  Biso   1.000  O
  N32      1.0000 0.50453  0.08010  0.82610  Biso   1.000  N
  O126     1.0000 0.74375  0.05420  0.76140  Biso   1.000  O
  H171     1.0000 0.72770  0.02800  0.72090  Biso   1.000  H
  O127     1.0000 0.61838  0.97798  0.83280  Biso   1.000  O
  H172     1.0000 0.62330  0.96880  0.88590  Biso   1.000  H
  O128     1.0000 0.51660  0.07130  0.39830  Biso   1.000  O
  H173     1.0000 0.52400  0.10240  0.42630  Biso   1.000  H
  H174     1.0000 0.60340  0.00000  0.85200  Biso   1.000  H
  H175     1.0000 0.48800  0.07000  0.36400  Biso   1.000  H
  H176     1.0000 0.75300  0.03300  0.79700  Biso   1.000  H
  Mn17     1.0000 0.34522  0.41395  0.14532  Biso   1.000  Mn
  O129     1.0000 0.31748  0.40141  0.99950  Biso   1.000  O
  N33      1.0000 0.26417  0.42429  0.14253  Biso   1.000  N
  O130     1.0000 0.24941  0.39243  0.89653  Biso   1.000  O
  C177     1.0000 0.22424  0.42803  0.20013  Biso   1.000  C
  C178     1.0000 0.23894  0.44773  0.29883  Biso   1.000  C
  C179     1.0000 0.26817  0.39883  0.97913  Biso   1.000  C
  C180     1.0000 0.23446  0.40627  0.05783  Biso   1.000  C
  C181     1.0000 0.26977  0.48413  0.48403  Biso   1.000  C
  H177     1.0000 0.27977  0.49673  0.54593  Biso   1.000  H
  C182     1.0000 0.19597  0.42013  0.36993  Biso   1.000  C
  H178     1.0000 0.15687  0.38973  0.35523  Biso   1.000  H
  C183     1.0000 0.21147  0.43803  0.46183  Biso   1.000  C
  C184     1.0000 0.31197  0.51063  0.41553  Biso   1.000  C
  H179     1.0000 0.35107  0.54103  0.43063  Biso   1.000  H
  C185     1.0000 0.29687  0.49243  0.32183  Biso   1.000  C
  H180     1.0000 0.32607  0.51063  0.27513  Biso   1.000  H
  C186     1.0000 0.17704  0.39939  0.06823  Biso   1.000  C
  O131     1.0000 0.12401  0.36553  0.92253  Biso   1.000  O
  C187     1.0000 0.12456  0.38103  0.00543  Biso   1.000  C
  O132     1.0000 0.17247  0.41433  0.53333  Biso   1.000  O
  H181     1.0000 0.19037  0.41273  0.58003  Biso   1.000  H
  O133     1.0000 0.07872  0.38062  0.04173  Biso   1.000  O
  N34      1.0000 0.17120  0.41343  0.15943  Biso   1.000  N
  O134     1.0000 0.41042  0.38753  0.09473  Biso   1.000  O
  H182     1.0000 0.39437  0.36133  0.05423  Biso   1.000  H
  O135     1.0000 0.28505  0.31131  0.16613  Biso   1.000  O
  H183     1.0000 0.28997  0.30213  0.21923  Biso   1.000  H
  O136     1.0000 0.18327  0.40463  0.73163  Biso   1.000  O
  H184     1.0000 0.19067  0.43573  0.75963  Biso   1.000  H
  H185     1.0000 0.27007  0.33333  0.18533  Biso   1.000  H
  H186     1.0000 0.15467  0.40333  0.69733  Biso   1.000  H
  H187     1.0000 0.41967  0.36633  0.13033  Biso   1.000  H
  Mn18     1.0000 0.01188  0.74729  0.47866  Biso   1.000  Mn
  O137     1.0000 0.98414  0.73475  0.33284  Biso   1.000  O
  N35      1.0000 0.93083  0.75763  0.47587  Biso   1.000  N
  O138     1.0000 0.91607  0.72577  0.22987  Biso   1.000  O
  C188     1.0000 0.89090  0.76137  0.53347  Biso   1.000  C
  C189     1.0000 0.90560  0.78107  0.63217  Biso   1.000  C
  C190     1.0000 0.93483  0.73217  0.31247  Biso   1.000  C
  C191     1.0000 0.90112  0.73961  0.39117  Biso   1.000  C
  C192     1.0000 0.93643  0.81747  0.81737  Biso   1.000  C
  H188     1.0000 0.94643  0.83007  0.87927  Biso   1.000  H
  C193     1.0000 0.86263  0.75347  0.70327  Biso   1.000  C
  H189     1.0000 0.82353  0.72307  0.68857  Biso   1.000  H
  C194     1.0000 0.87813  0.77137  0.79517  Biso   1.000  C
  C195     1.0000 0.97863  0.84397  0.74887  Biso   1.000  C
  H190     1.0000 0.01773  0.87437  0.76397  Biso   1.000  H
  C196     1.0000 0.96353  0.82577  0.65517  Biso   1.000  C
  H191     1.0000 0.99273  0.84397  0.60847  Biso   1.000  H
  C197     1.0000 0.84370  0.73273  0.40157  Biso   1.000  C
  O139     1.0000 0.79067  0.69887  0.25587  Biso   1.000  O
  C198     1.0000 0.79122  0.71437  0.33877  Biso   1.000  C
  O140     1.0000 0.83913  0.74767  0.86667  Biso   1.000  O
  H192     1.0000 0.85703  0.74607  0.91337  Biso   1.000  H
  O141     1.0000 0.74538  0.71396  0.37507  Biso   1.000  O
  N36      1.0000 0.83786  0.74677  0.49277  Biso   1.000  N
  O142     1.0000 0.07708  0.72087  0.42807  Biso   1.000  O
  H193     1.0000 0.06103  0.69467  0.38757  Biso   1.000  H
  O143     1.0000 0.95171  0.64465  0.49947  Biso   1.000  O
  H194     1.0000 0.95663  0.63547  0.55257  Biso   1.000  H
  O144     1.0000 0.84993  0.73797  0.06497  Biso   1.000  O
  H195     1.0000 0.85733  0.76907  0.09297  Biso   1.000  H
  H196     1.0000 0.93673  0.66667  0.51867  Biso   1.000  H
  H197     1.0000 0.82133  0.73667  0.03067  Biso   1.000  H
  H198     1.0000 0.08633  0.69967  0.46367  Biso   1.000  H
  Mn19     1.0000 0.00000  0.50000  0.50000  Biso   1.000  Mn
  Mn20     1.0000 0.66667  0.83333  0.83333  Biso   1.000  Mn
  Mn21     1.0000 0.33333  0.16667  0.16667  Biso   1.000  Mn
  Mn22     1.0000 0.50000  0.50000  0.50000  Biso   1.000  Mn
  Mn23     1.0000 0.16667  0.83333  0.83333  Biso   1.000  Mn
  Mn24     1.0000 0.83333  0.16667  0.16667  Biso   1.000  Mn
  Mn25     1.0000 0.50000  0.00000  0.50000  Biso   1.000  Mn
  Mn26     1.0000 0.16667  0.33333  0.83333  Biso   1.000  Mn
  Mn27     1.0000 0.83333  0.66667  0.16667  Biso   1.000  Mn
