data_image0
_cell_length_a       15.092
_cell_length_b       16.744
_cell_length_c       22.518
_cell_angle_alpha    90
_cell_angle_beta     90
_cell_angle_gamma    90

_symmetry_space_group_name_H-M    P 1
_symmetry_int_tables_number       1

loop_
  _symmetry_equiv_pos_as_xyz
  'x, y, z'

loop_
  _atom_site_label
  _atom_site_occupancy
  _atom_site_fract_x
  _atom_site_fract_y
  _atom_site_fract_z
  _atom_site_thermal_displace_type
  _atom_site_B_iso_or_equiv
  _atom_site_type_symbol
  Co1      1.0000 0.26612  0.27396  0.38195  Biso   1.000  Co
  Co2      1.0000 0.73388  0.22604  0.38195  Biso   1.000  Co
  Co3      1.0000 0.26612  0.72604  0.11805  Biso   1.000  Co
  Co4      1.0000 0.73388  0.77396  0.11805  Biso   1.000  Co
  Co5      1.0000 0.73388  0.72604  0.61805  Biso   1.000  Co
  Co6      1.0000 0.26612  0.77396  0.61805  Biso   1.000  Co
  Co7      1.0000 0.73388  0.27396  0.88195  Biso   1.000  Co
  Co8      1.0000 0.26612  0.22604  0.88195  Biso   1.000  Co
  Co9      1.0000 0.50000  0.25000  0.40268  Biso   1.000  Co
  Co10     1.0000 0.50000  0.75000  0.09732  Biso   1.000  Co
  Co11     1.0000 0.50000  0.75000  0.59732  Biso   1.000  Co
  Co12     1.0000 0.50000  0.25000  0.90268  Biso   1.000  Co
  H1       1.0000 0.55820  0.43740  0.27860  Biso   1.000  H
  H2       1.0000 0.49470  0.42140  0.56140  Biso   1.000  H
  H3       1.0000 0.47000  0.55300  0.60550  Biso   1.000  H
  H4       1.0000 0.09230  0.28390  0.45230  Biso   1.000  H
  H5       1.0000 0.96910  0.35580  0.46200  Biso   1.000  H
  H6       1.0000 0.04100  0.47860  0.32740  Biso   1.000  H
  H7       1.0000 0.16440  0.40000  0.31850  Biso   1.000  H
  H8       1.0000 0.87010  0.45680  0.42630  Biso   1.000  H
  H9       1.0000 0.93380  0.52350  0.44930  Biso   1.000  H
  H10      1.0000 0.94720  0.57220  0.35670  Biso   1.000  H
  H11      1.0000 0.88760  0.50450  0.33220  Biso   1.000  H
  H12      1.0000 0.83450  0.63700  0.38970  Biso   1.000  H
  H13      1.0000 0.77090  0.56620  0.37470  Biso   1.000  H
  H14      1.0000 0.67590  0.61280  0.30240  Biso   1.000  H
  H15      1.0000 0.65120  0.67860  0.21650  Biso   1.000  H
  H16      1.0000 0.90020  0.71120  0.19090  Biso   1.000  H
  H17      1.0000 0.93260  0.64920  0.27780  Biso   1.000  H
  H18      1.0000 0.44180  0.06260  0.27860  Biso   1.000  H
  H19      1.0000 0.50530  0.07860  0.56140  Biso   1.000  H
  H20      1.0000 0.53000  0.94700  0.60550  Biso   1.000  H
  H21      1.0000 0.90770  0.21610  0.45230  Biso   1.000  H
  H22      1.0000 0.03090  0.14420  0.46200  Biso   1.000  H
  H23      1.0000 0.95900  0.02140  0.32740  Biso   1.000  H
  H24      1.0000 0.83560  0.10000  0.31850  Biso   1.000  H
  H25      1.0000 0.12990  0.04320  0.42630  Biso   1.000  H
  H26      1.0000 0.06620  0.97650  0.44930  Biso   1.000  H
  H27      1.0000 0.05280  0.92780  0.35670  Biso   1.000  H
  H28      1.0000 0.11240  0.99550  0.33220  Biso   1.000  H
  H29      1.0000 0.16550  0.86300  0.38970  Biso   1.000  H
  H30      1.0000 0.22910  0.93380  0.37470  Biso   1.000  H
  H31      1.0000 0.32410  0.88720  0.30240  Biso   1.000  H
  H32      1.0000 0.34880  0.82140  0.21650  Biso   1.000  H
  H33      1.0000 0.09980  0.78880  0.19090  Biso   1.000  H
  H34      1.0000 0.06740  0.85080  0.27780  Biso   1.000  H
  H35      1.0000 0.55820  0.56260  0.22140  Biso   1.000  H
  H36      1.0000 0.49470  0.57860  0.93860  Biso   1.000  H
  H37      1.0000 0.47000  0.44700  0.89450  Biso   1.000  H
  H38      1.0000 0.09230  0.71610  0.04770  Biso   1.000  H
  H39      1.0000 0.96910  0.64420  0.03800  Biso   1.000  H
  H40      1.0000 0.04100  0.52140  0.17260  Biso   1.000  H
  H41      1.0000 0.16440  0.60000  0.18150  Biso   1.000  H
  H42      1.0000 0.87010  0.54320  0.07370  Biso   1.000  H
  H43      1.0000 0.93380  0.47650  0.05070  Biso   1.000  H
  H44      1.0000 0.94720  0.42780  0.14330  Biso   1.000  H
  H45      1.0000 0.88760  0.49550  0.16780  Biso   1.000  H
  H46      1.0000 0.83450  0.36300  0.11030  Biso   1.000  H
  H47      1.0000 0.77090  0.43380  0.12530  Biso   1.000  H
  H48      1.0000 0.67590  0.38720  0.19760  Biso   1.000  H
  H49      1.0000 0.65120  0.32140  0.28350  Biso   1.000  H
  H50      1.0000 0.90020  0.28880  0.30910  Biso   1.000  H
  H51      1.0000 0.93260  0.35080  0.22220  Biso   1.000  H
  H52      1.0000 0.44180  0.93740  0.22140  Biso   1.000  H
  H53      1.0000 0.50530  0.92140  0.93860  Biso   1.000  H
  H54      1.0000 0.53000  0.05300  0.89450  Biso   1.000  H
  H55      1.0000 0.90770  0.78390  0.04770  Biso   1.000  H
  H56      1.0000 0.03090  0.85580  0.03800  Biso   1.000  H
  H57      1.0000 0.95900  0.97860  0.17260  Biso   1.000  H
  H58      1.0000 0.83560  0.90000  0.18150  Biso   1.000  H
  H59      1.0000 0.12990  0.95680  0.07370  Biso   1.000  H
  H60      1.0000 0.06620  0.02350  0.05070  Biso   1.000  H
  H61      1.0000 0.05280  0.07220  0.14330  Biso   1.000  H
  H62      1.0000 0.11240  0.00450  0.16780  Biso   1.000  H
  H63      1.0000 0.16550  0.13700  0.11030  Biso   1.000  H
  H64      1.0000 0.22910  0.06620  0.12530  Biso   1.000  H
  H65      1.0000 0.32410  0.11280  0.19760  Biso   1.000  H
  H66      1.0000 0.34880  0.17860  0.28350  Biso   1.000  H
  H67      1.0000 0.09980  0.21120  0.30910  Biso   1.000  H
  H68      1.0000 0.06740  0.14920  0.22220  Biso   1.000  H
  H69      1.0000 0.44180  0.56260  0.72140  Biso   1.000  H
  H70      1.0000 0.50530  0.57860  0.43860  Biso   1.000  H
  H71      1.0000 0.53000  0.44700  0.39450  Biso   1.000  H
  H72      1.0000 0.90770  0.71610  0.54770  Biso   1.000  H
  H73      1.0000 0.03090  0.64420  0.53800  Biso   1.000  H
  H74      1.0000 0.95900  0.52140  0.67260  Biso   1.000  H
  H75      1.0000 0.83560  0.60000  0.68150  Biso   1.000  H
  H76      1.0000 0.12990  0.54320  0.57370  Biso   1.000  H
  H77      1.0000 0.06620  0.47650  0.55070  Biso   1.000  H
  H78      1.0000 0.05280  0.42780  0.64330  Biso   1.000  H
  H79      1.0000 0.11240  0.49550  0.66780  Biso   1.000  H
  H80      1.0000 0.16550  0.36300  0.61030  Biso   1.000  H
  H81      1.0000 0.22910  0.43380  0.62530  Biso   1.000  H
  H82      1.0000 0.32410  0.38720  0.69760  Biso   1.000  H
  H83      1.0000 0.34880  0.32140  0.78350  Biso   1.000  H
  H84      1.0000 0.09980  0.28880  0.80910  Biso   1.000  H
  H85      1.0000 0.06740  0.35080  0.72220  Biso   1.000  H
  H86      1.0000 0.55820  0.93740  0.72140  Biso   1.000  H
  H87      1.0000 0.49470  0.92140  0.43860  Biso   1.000  H
  H88      1.0000 0.47000  0.05300  0.39450  Biso   1.000  H
  H89      1.0000 0.09230  0.78390  0.54770  Biso   1.000  H
  H90      1.0000 0.96910  0.85580  0.53800  Biso   1.000  H
  H91      1.0000 0.04100  0.97860  0.67260  Biso   1.000  H
  H92      1.0000 0.16440  0.90000  0.68150  Biso   1.000  H
  H93      1.0000 0.87010  0.95680  0.57370  Biso   1.000  H
  H94      1.0000 0.93380  0.02350  0.55070  Biso   1.000  H
  H95      1.0000 0.94720  0.07220  0.64330  Biso   1.000  H
  H96      1.0000 0.88760  0.00450  0.66780  Biso   1.000  H
  H97      1.0000 0.83450  0.13700  0.61030  Biso   1.000  H
  H98      1.0000 0.77090  0.06620  0.62530  Biso   1.000  H
  H99      1.0000 0.67590  0.11280  0.69760  Biso   1.000  H
  H100     1.0000 0.65120  0.17860  0.78350  Biso   1.000  H
  H101     1.0000 0.90020  0.21120  0.80910  Biso   1.000  H
  H102     1.0000 0.93260  0.14920  0.72220  Biso   1.000  H
  H103     1.0000 0.44180  0.43740  0.77860  Biso   1.000  H
  H104     1.0000 0.50530  0.42140  0.06140  Biso   1.000  H
  H105     1.0000 0.53000  0.55300  0.10550  Biso   1.000  H
  H106     1.0000 0.90770  0.28390  0.95230  Biso   1.000  H
  H107     1.0000 0.03090  0.35580  0.96200  Biso   1.000  H
  H108     1.0000 0.95900  0.47860  0.82740  Biso   1.000  H
  H109     1.0000 0.83560  0.40000  0.81850  Biso   1.000  H
  H110     1.0000 0.12990  0.45680  0.92630  Biso   1.000  H
  H111     1.0000 0.06620  0.52350  0.94930  Biso   1.000  H
  H112     1.0000 0.05280  0.57220  0.85670  Biso   1.000  H
  H113     1.0000 0.11240  0.50450  0.83220  Biso   1.000  H
  H114     1.0000 0.16550  0.63700  0.88970  Biso   1.000  H
  H115     1.0000 0.22910  0.56620  0.87470  Biso   1.000  H
  H116     1.0000 0.32410  0.61280  0.80240  Biso   1.000  H
  H117     1.0000 0.34880  0.67860  0.71650  Biso   1.000  H
  H118     1.0000 0.09980  0.71120  0.69090  Biso   1.000  H
  H119     1.0000 0.06740  0.64920  0.77780  Biso   1.000  H
  H120     1.0000 0.55820  0.06260  0.77860  Biso   1.000  H
  H121     1.0000 0.49470  0.07860  0.06140  Biso   1.000  H
  H122     1.0000 0.47000  0.94700  0.10550  Biso   1.000  H
  H123     1.0000 0.09230  0.21610  0.95230  Biso   1.000  H
  H124     1.0000 0.96910  0.14420  0.96200  Biso   1.000  H
  H125     1.0000 0.04100  0.02140  0.82740  Biso   1.000  H
  H126     1.0000 0.16440  0.10000  0.81850  Biso   1.000  H
  H127     1.0000 0.87010  0.04320  0.92630  Biso   1.000  H
  H128     1.0000 0.93380  0.97650  0.94930  Biso   1.000  H
  H129     1.0000 0.94720  0.92780  0.85670  Biso   1.000  H
  H130     1.0000 0.88760  0.99550  0.83220  Biso   1.000  H
  H131     1.0000 0.83450  0.86300  0.88970  Biso   1.000  H
  H132     1.0000 0.77090  0.93380  0.87470  Biso   1.000  H
  H133     1.0000 0.67590  0.88720  0.80240  Biso   1.000  H
  H134     1.0000 0.65120  0.82140  0.71650  Biso   1.000  H
  H135     1.0000 0.90020  0.78880  0.69090  Biso   1.000  H
  H136     1.0000 0.93260  0.85080  0.77780  Biso   1.000  H
  C1       1.0000 0.40000  0.36780  0.31580  Biso   1.000  C
  C2       1.0000 0.42420  0.43890  0.28110  Biso   1.000  C
  C3       1.0000 0.50690  0.46410  0.26710  Biso   1.000  C
  C4       1.0000 0.37880  0.35980  0.47460  Biso   1.000  C
  C5       1.0000 0.38200  0.43130  0.51380  Biso   1.000  C
  C6       1.0000 0.44600  0.45330  0.55250  Biso   1.000  C
  C7       1.0000 0.43190  0.52950  0.57810  Biso   1.000  C
  C8       1.0000 0.35580  0.56470  0.55800  Biso   1.000  C
  C9       1.0000 0.32170  0.64420  0.57490  Biso   1.000  C
  C10      1.0000 0.08510  0.32700  0.42670  Biso   1.000  C
  C11      1.0000 0.01140  0.37210  0.43450  Biso   1.000  C
  C12      1.0000 0.99850  0.43510  0.40580  Biso   1.000  C
  C13      1.0000 0.05360  0.44120  0.35670  Biso   1.000  C
  C14      1.0000 0.12700  0.39240  0.35090  Biso   1.000  C
  C15      1.0000 0.92070  0.48940  0.41560  Biso   1.000  C
  C16      1.0000 0.89500  0.54060  0.36550  Biso   1.000  C
  C17      1.0000 0.82390  0.59390  0.36180  Biso   1.000  C
  C18      1.0000 0.80580  0.62950  0.30330  Biso   1.000  C
  C19      1.0000 0.72320  0.63500  0.28180  Biso   1.000  C
  C20      1.0000 0.70950  0.67360  0.22930  Biso   1.000  C
  C21      1.0000 0.85370  0.69300  0.21440  Biso   1.000  C
  C22      1.0000 0.87380  0.65630  0.26660  Biso   1.000  C
  C23      1.0000 0.60000  0.13220  0.31580  Biso   1.000  C
  C24      1.0000 0.57580  0.06110  0.28110  Biso   1.000  C
  C25      1.0000 0.49310  0.03590  0.26710  Biso   1.000  C
  C26      1.0000 0.62120  0.14020  0.47460  Biso   1.000  C
  C27      1.0000 0.61800  0.06870  0.51380  Biso   1.000  C
  C28      1.0000 0.55400  0.04670  0.55250  Biso   1.000  C
  C29      1.0000 0.56810  0.97050  0.57810  Biso   1.000  C
  C30      1.0000 0.64420  0.93530  0.55800  Biso   1.000  C
  C31      1.0000 0.67830  0.85580  0.57490  Biso   1.000  C
  C32      1.0000 0.91490  0.17300  0.42670  Biso   1.000  C
  C33      1.0000 0.98860  0.12790  0.43450  Biso   1.000  C
  C34      1.0000 0.00150  0.06490  0.40580  Biso   1.000  C
  C35      1.0000 0.94640  0.05880  0.35670  Biso   1.000  C
  C36      1.0000 0.87300  0.10760  0.35090  Biso   1.000  C
  C37      1.0000 0.07930  0.01060  0.41560  Biso   1.000  C
  C38      1.0000 0.10500  0.95940  0.36550  Biso   1.000  C
  C39      1.0000 0.17610  0.90610  0.36180  Biso   1.000  C
  C40      1.0000 0.19420  0.87050  0.30330  Biso   1.000  C
  C41      1.0000 0.27680  0.86500  0.28180  Biso   1.000  C
  C42      1.0000 0.29050  0.82640  0.22930  Biso   1.000  C
  C43      1.0000 0.14630  0.80700  0.21440  Biso   1.000  C
  C44      1.0000 0.12620  0.84370  0.26660  Biso   1.000  C
  C45      1.0000 0.40000  0.63220  0.18420  Biso   1.000  C
  C46      1.0000 0.42420  0.56110  0.21890  Biso   1.000  C
  C47      1.0000 0.50690  0.53590  0.23290  Biso   1.000  C
  C48      1.0000 0.37880  0.64020  0.02540  Biso   1.000  C
  C49      1.0000 0.38200  0.56870  0.98620  Biso   1.000  C
  C50      1.0000 0.44600  0.54670  0.94750  Biso   1.000  C
  C51      1.0000 0.43190  0.47050  0.92190  Biso   1.000  C
  C52      1.0000 0.35580  0.43530  0.94200  Biso   1.000  C
  C53      1.0000 0.32170  0.35580  0.92510  Biso   1.000  C
  C54      1.0000 0.08510  0.67300  0.07330  Biso   1.000  C
  C55      1.0000 0.01140  0.62790  0.06550  Biso   1.000  C
  C56      1.0000 0.99850  0.56490  0.09420  Biso   1.000  C
  C57      1.0000 0.05360  0.55880  0.14330  Biso   1.000  C
  C58      1.0000 0.12700  0.60760  0.14910  Biso   1.000  C
  C59      1.0000 0.92070  0.51060  0.08440  Biso   1.000  C
  C60      1.0000 0.89500  0.45940  0.13450  Biso   1.000  C
  C61      1.0000 0.82390  0.40610  0.13820  Biso   1.000  C
  C62      1.0000 0.80580  0.37050  0.19670  Biso   1.000  C
  C63      1.0000 0.72320  0.36500  0.21820  Biso   1.000  C
  C64      1.0000 0.70950  0.32640  0.27070  Biso   1.000  C
  C65      1.0000 0.85370  0.30700  0.28560  Biso   1.000  C
  C66      1.0000 0.87380  0.34370  0.23340  Biso   1.000  C
  C67      1.0000 0.60000  0.86780  0.18420  Biso   1.000  C
  C68      1.0000 0.57580  0.93890  0.21890  Biso   1.000  C
  C69      1.0000 0.49310  0.96410  0.23290  Biso   1.000  C
  C70      1.0000 0.62120  0.85980  0.02540  Biso   1.000  C
  C71      1.0000 0.61800  0.93130  0.98620  Biso   1.000  C
  C72      1.0000 0.55400  0.95330  0.94750  Biso   1.000  C
  C73      1.0000 0.56810  0.02950  0.92190  Biso   1.000  C
  C74      1.0000 0.64420  0.06470  0.94200  Biso   1.000  C
  C75      1.0000 0.67830  0.14420  0.92510  Biso   1.000  C
  C76      1.0000 0.91490  0.82700  0.07330  Biso   1.000  C
  C77      1.0000 0.98860  0.87210  0.06550  Biso   1.000  C
  C78      1.0000 0.00150  0.93510  0.09420  Biso   1.000  C
  C79      1.0000 0.94640  0.94120  0.14330  Biso   1.000  C
  C80      1.0000 0.87300  0.89240  0.14910  Biso   1.000  C
  C81      1.0000 0.07930  0.98940  0.08440  Biso   1.000  C
  C82      1.0000 0.10500  0.04060  0.13450  Biso   1.000  C
  C83      1.0000 0.17610  0.09390  0.13820  Biso   1.000  C
  C84      1.0000 0.19420  0.12950  0.19670  Biso   1.000  C
  C85      1.0000 0.27680  0.13500  0.21820  Biso   1.000  C
  C86      1.0000 0.29050  0.17360  0.27070  Biso   1.000  C
  C87      1.0000 0.14630  0.19300  0.28560  Biso   1.000  C
  C88      1.0000 0.12620  0.15630  0.23340  Biso   1.000  C
  C89      1.0000 0.60000  0.63220  0.68420  Biso   1.000  C
  C90      1.0000 0.57580  0.56110  0.71890  Biso   1.000  C
  C91      1.0000 0.49310  0.53590  0.73290  Biso   1.000  C
  C92      1.0000 0.62120  0.64020  0.52540  Biso   1.000  C
  C93      1.0000 0.61800  0.56870  0.48620  Biso   1.000  C
  C94      1.0000 0.55400  0.54670  0.44750  Biso   1.000  C
  C95      1.0000 0.56810  0.47050  0.42190  Biso   1.000  C
  C96      1.0000 0.64420  0.43530  0.44200  Biso   1.000  C
  C97      1.0000 0.67830  0.35580  0.42510  Biso   1.000  C
  C98      1.0000 0.91490  0.67300  0.57330  Biso   1.000  C
  C99      1.0000 0.98860  0.62790  0.56550  Biso   1.000  C
  C100     1.0000 0.00150  0.56490  0.59420  Biso   1.000  C
  C101     1.0000 0.94640  0.55880  0.64330  Biso   1.000  C
  C102     1.0000 0.87300  0.60760  0.64910  Biso   1.000  C
  C103     1.0000 0.07930  0.51060  0.58440  Biso   1.000  C
  C104     1.0000 0.10500  0.45940  0.63450  Biso   1.000  C
  C105     1.0000 0.17610  0.40610  0.63820  Biso   1.000  C
  C106     1.0000 0.19420  0.37050  0.69670  Biso   1.000  C
  C107     1.0000 0.27680  0.36500  0.71820  Biso   1.000  C
  C108     1.0000 0.29050  0.32640  0.77070  Biso   1.000  C
  C109     1.0000 0.14630  0.30700  0.78560  Biso   1.000  C
  C110     1.0000 0.12620  0.34370  0.73340  Biso   1.000  C
  C111     1.0000 0.40000  0.86780  0.68420  Biso   1.000  C
  C112     1.0000 0.42420  0.93890  0.71890  Biso   1.000  C
  C113     1.0000 0.50690  0.96410  0.73290  Biso   1.000  C
  C114     1.0000 0.37880  0.85980  0.52540  Biso   1.000  C
  C115     1.0000 0.38200  0.93130  0.48620  Biso   1.000  C
  C116     1.0000 0.44600  0.95330  0.44750  Biso   1.000  C
  C117     1.0000 0.43190  0.02950  0.42190  Biso   1.000  C
  C118     1.0000 0.35580  0.06470  0.44200  Biso   1.000  C
  C119     1.0000 0.32170  0.14420  0.42510  Biso   1.000  C
  C120     1.0000 0.08510  0.82700  0.57330  Biso   1.000  C
  C121     1.0000 0.01140  0.87210  0.56550  Biso   1.000  C
  C122     1.0000 0.99850  0.93510  0.59420  Biso   1.000  C
  C123     1.0000 0.05360  0.94120  0.64330  Biso   1.000  C
  C124     1.0000 0.12700  0.89240  0.64910  Biso   1.000  C
  C125     1.0000 0.92070  0.98940  0.58440  Biso   1.000  C
  C126     1.0000 0.89500  0.04060  0.63450  Biso   1.000  C
  C127     1.0000 0.82390  0.09390  0.63820  Biso   1.000  C
  C128     1.0000 0.80580  0.12950  0.69670  Biso   1.000  C
  C129     1.0000 0.72320  0.13500  0.71820  Biso   1.000  C
  C130     1.0000 0.70950  0.17360  0.77070  Biso   1.000  C
  C131     1.0000 0.85370  0.19300  0.78560  Biso   1.000  C
  C132     1.0000 0.87380  0.15630  0.73340  Biso   1.000  C
  C133     1.0000 0.60000  0.36780  0.81580  Biso   1.000  C
  C134     1.0000 0.57580  0.43890  0.78110  Biso   1.000  C
  C135     1.0000 0.49310  0.46410  0.76710  Biso   1.000  C
  C136     1.0000 0.62120  0.35980  0.97460  Biso   1.000  C
  C137     1.0000 0.61800  0.43130  0.01380  Biso   1.000  C
  C138     1.0000 0.55400  0.45330  0.05250  Biso   1.000  C
  C139     1.0000 0.56810  0.52950  0.07810  Biso   1.000  C
  C140     1.0000 0.64420  0.56470  0.05800  Biso   1.000  C
  C141     1.0000 0.67830  0.64420  0.07490  Biso   1.000  C
  C142     1.0000 0.91490  0.32700  0.92670  Biso   1.000  C
  C143     1.0000 0.98860  0.37210  0.93450  Biso   1.000  C
  C144     1.0000 0.00150  0.43510  0.90580  Biso   1.000  C
  C145     1.0000 0.94640  0.44120  0.85670  Biso   1.000  C
  C146     1.0000 0.87300  0.39240  0.85090  Biso   1.000  C
  C147     1.0000 0.07930  0.48940  0.91560  Biso   1.000  C
  C148     1.0000 0.10500  0.54060  0.86550  Biso   1.000  C
  C149     1.0000 0.17610  0.59390  0.86180  Biso   1.000  C
  C150     1.0000 0.19420  0.62950  0.80330  Biso   1.000  C
  C151     1.0000 0.27680  0.63500  0.78180  Biso   1.000  C
  C152     1.0000 0.29050  0.67360  0.72930  Biso   1.000  C
  C153     1.0000 0.14630  0.69300  0.71440  Biso   1.000  C
  C154     1.0000 0.12620  0.65630  0.76660  Biso   1.000  C
  C155     1.0000 0.40000  0.13220  0.81580  Biso   1.000  C
  C156     1.0000 0.42420  0.06110  0.78110  Biso   1.000  C
  C157     1.0000 0.50690  0.03590  0.76710  Biso   1.000  C
  C158     1.0000 0.37880  0.14020  0.97460  Biso   1.000  C
  C159     1.0000 0.38200  0.06870  0.01380  Biso   1.000  C
  C160     1.0000 0.44600  0.04670  0.05250  Biso   1.000  C
  C161     1.0000 0.43190  0.97050  0.07810  Biso   1.000  C
  C162     1.0000 0.35580  0.93530  0.05800  Biso   1.000  C
  C163     1.0000 0.32170  0.85580  0.07490  Biso   1.000  C
  C164     1.0000 0.08510  0.17300  0.92670  Biso   1.000  C
  C165     1.0000 0.01140  0.12790  0.93450  Biso   1.000  C
  C166     1.0000 0.99850  0.06490  0.90580  Biso   1.000  C
  C167     1.0000 0.05360  0.05880  0.85670  Biso   1.000  C
  C168     1.0000 0.12700  0.10760  0.85090  Biso   1.000  C
  C169     1.0000 0.92070  0.01060  0.91560  Biso   1.000  C
  C170     1.0000 0.89500  0.95940  0.86550  Biso   1.000  C
  C171     1.0000 0.82390  0.90610  0.86180  Biso   1.000  C
  C172     1.0000 0.80580  0.87050  0.80330  Biso   1.000  C
  C173     1.0000 0.72320  0.86500  0.78180  Biso   1.000  C
  C174     1.0000 0.70950  0.82640  0.72930  Biso   1.000  C
  C175     1.0000 0.85370  0.80700  0.71440  Biso   1.000  C
  C176     1.0000 0.87380  0.84370  0.76660  Biso   1.000  C
  S1       1.0000 0.30148  0.50399  0.50779  Biso   1.000  S
  S2       1.0000 0.69852  0.99601  0.50779  Biso   1.000  S
  S3       1.0000 0.30148  0.49601  0.99221  Biso   1.000  S
  S4       1.0000 0.69852  0.00399  0.99221  Biso   1.000  S
  S5       1.0000 0.69852  0.49601  0.49221  Biso   1.000  S
  S6       1.0000 0.30148  0.00399  0.49221  Biso   1.000  S
  S7       1.0000 0.69852  0.50399  0.00779  Biso   1.000  S
  S8       1.0000 0.30148  0.99601  0.00779  Biso   1.000  S
  S9       1.0000 0.34463  0.50000  0.25000  Biso   1.000  S
  S10      1.0000 0.65537  0.00000  0.25000  Biso   1.000  S
  S11      1.0000 0.65537  0.50000  0.75000  Biso   1.000  S
  S12      1.0000 0.34463  0.00000  0.75000  Biso   1.000  S
  N1       1.0000 0.14560  0.33760  0.38800  Biso   1.000  N
  N2       1.0000 0.77170  0.70450  0.19500  Biso   1.000  N
  N3       1.0000 0.85440  0.16240  0.38800  Biso   1.000  N
  N4       1.0000 0.22830  0.79550  0.19500  Biso   1.000  N
  N5       1.0000 0.14560  0.66240  0.11200  Biso   1.000  N
  N6       1.0000 0.77170  0.29550  0.30500  Biso   1.000  N
  N7       1.0000 0.85440  0.83760  0.11200  Biso   1.000  N
  N8       1.0000 0.22830  0.20450  0.30500  Biso   1.000  N
  N9       1.0000 0.85440  0.66240  0.61200  Biso   1.000  N
  N10      1.0000 0.22830  0.29550  0.80500  Biso   1.000  N
  N11      1.0000 0.14560  0.83760  0.61200  Biso   1.000  N
  N12      1.0000 0.77170  0.20450  0.80500  Biso   1.000  N
  N13      1.0000 0.85440  0.33760  0.88800  Biso   1.000  N
  N14      1.0000 0.22830  0.70450  0.69500  Biso   1.000  N
  N15      1.0000 0.14560  0.16240  0.88800  Biso   1.000  N
  N16      1.0000 0.77170  0.79550  0.69500  Biso   1.000  N
  O1       1.0000 0.46230  0.32850  0.33640  Biso   1.000  O
  O2       1.0000 0.31860  0.35420  0.32310  Biso   1.000  O
  O3       1.0000 0.45080  0.32260  0.46840  Biso   1.000  O
  O4       1.0000 0.30520  0.34400  0.45220  Biso   1.000  O
  O5       1.0000 0.37330  0.69060  0.60400  Biso   1.000  O
  O6       1.0000 0.24320  0.66430  0.56360  Biso   1.000  O
  O7       1.0000 0.53770  0.17150  0.33640  Biso   1.000  O
  O8       1.0000 0.68140  0.14580  0.32310  Biso   1.000  O
  O9       1.0000 0.54920  0.17740  0.46840  Biso   1.000  O
  O10      1.0000 0.69480  0.15600  0.45220  Biso   1.000  O
  O11      1.0000 0.62670  0.80940  0.60400  Biso   1.000  O
  O12      1.0000 0.75680  0.83570  0.56360  Biso   1.000  O
  O13      1.0000 0.46230  0.67150  0.16360  Biso   1.000  O
  O14      1.0000 0.31860  0.64580  0.17690  Biso   1.000  O
  O15      1.0000 0.45080  0.67740  0.03160  Biso   1.000  O
  O16      1.0000 0.30520  0.65600  0.04780  Biso   1.000  O
  O17      1.0000 0.37330  0.30940  0.89600  Biso   1.000  O
  O18      1.0000 0.24320  0.33570  0.93640  Biso   1.000  O
  O19      1.0000 0.53770  0.82850  0.16360  Biso   1.000  O
  O20      1.0000 0.68140  0.85420  0.17690  Biso   1.000  O
  O21      1.0000 0.54920  0.82260  0.03160  Biso   1.000  O
  O22      1.0000 0.69480  0.84400  0.04780  Biso   1.000  O
  O23      1.0000 0.62670  0.19060  0.89600  Biso   1.000  O
  O24      1.0000 0.75680  0.16430  0.93640  Biso   1.000  O
  O25      1.0000 0.53770  0.67150  0.66360  Biso   1.000  O
  O26      1.0000 0.68140  0.64580  0.67690  Biso   1.000  O
  O27      1.0000 0.54920  0.67740  0.53160  Biso   1.000  O
  O28      1.0000 0.69480  0.65600  0.54780  Biso   1.000  O
  O29      1.0000 0.62670  0.30940  0.39600  Biso   1.000  O
  O30      1.0000 0.75680  0.33570  0.43640  Biso   1.000  O
  O31      1.0000 0.46230  0.82850  0.66360  Biso   1.000  O
  O32      1.0000 0.31860  0.85420  0.67690  Biso   1.000  O
  O33      1.0000 0.45080  0.82260  0.53160  Biso   1.000  O
  O34      1.0000 0.30520  0.84400  0.54780  Biso   1.000  O
  O35      1.0000 0.37330  0.19060  0.39600  Biso   1.000  O
  O36      1.0000 0.24320  0.16430  0.43640  Biso   1.000  O
  O37      1.0000 0.53770  0.32850  0.83640  Biso   1.000  O
  O38      1.0000 0.68140  0.35420  0.82310  Biso   1.000  O
  O39      1.0000 0.54920  0.32260  0.96840  Biso   1.000  O
  O40      1.0000 0.69480  0.34400  0.95220  Biso   1.000  O
  O41      1.0000 0.62670  0.69060  0.10400  Biso   1.000  O
  O42      1.0000 0.75680  0.66430  0.06360  Biso   1.000  O
  O43      1.0000 0.46230  0.17150  0.83640  Biso   1.000  O
  O44      1.0000 0.31860  0.14580  0.82310  Biso   1.000  O
  O45      1.0000 0.45080  0.17740  0.96840  Biso   1.000  O
  O46      1.0000 0.30520  0.15600  0.95220  Biso   1.000  O
  O47      1.0000 0.37330  0.80940  0.10400  Biso   1.000  O
  O48      1.0000 0.24320  0.83570  0.06360  Biso   1.000  O
