data_image0
_cell_length_a       18.1652
_cell_length_b       17.2466
_cell_length_c       13.4921
_cell_angle_alpha    90
_cell_angle_beta     129.4
_cell_angle_gamma    90

_symmetry_space_group_name_H-M    "P 1"
_symmetry_int_tables_number       1

loop_
  _symmetry_equiv_pos_as_xyz
  'x, y, z'

loop_
  _atom_site_label
  _atom_site_occupancy
  _atom_site_fract_x
  _atom_site_fract_y
  _atom_site_fract_z
  _atom_site_thermal_displace_type
  _atom_site_B_iso_or_equiv
  _atom_site_type_symbol
  O1       1.0000 0.09932  0.27847  0.88938  Biso   1.000  O
  O2       1.0000 0.08878  0.11102  0.87900  Biso   1.000  O
  O3       1.0000 0.07547  0.80089  0.18685  Biso   1.000  O
  O4       1.0000 0.23074  0.81091  0.35221  Biso   1.000  O
  O5       1.0000 0.23126  0.14687  0.05926  Biso   1.000  O
  N1       1.0000 0.07298  0.33949  0.92170  Biso   1.000  N
  C1       1.0000 0.15659  0.83020  0.24350  Biso   1.000  C
  C2       1.0000 0.01517  0.46611  0.98310  Biso   1.000  C
  C3       1.0000 0.16220  0.10074  0.99260  Biso   1.000  C
  C4       1.0000 0.05930  0.47491  0.92890  Biso   1.000  C
  C5       1.0000 0.08830  0.41116  0.90020  Biso   1.000  C
  C6       1.0000 0.16612  0.02641  0.05500  Biso   1.000  C
  C7       1.0000 0.24250  0.94219  0.23760  Biso   1.000  C
  C8       1.0000 0.16271  0.89534  0.17410  Biso   1.000  C
  C9       1.0000 0.08560  0.91295  0.04790  Biso   1.000  C
  C10      1.0000 0.08770  0.97742  0.98910  Biso   1.000  C
  C11      1.0000 0.24370  0.00742  0.17890  Biso   1.000  C
  C12      1.0000 0.03150  0.32834  0.97510  Biso   1.000  C
  C13      1.0000 0.00210  0.39055  0.00550  Biso   1.000  C
  H1       1.0000 0.07500  0.52300  0.91700  Biso   1.000  H
  H2       1.0000 0.97400  0.38100  0.04600  Biso   1.000  H
  H3       1.0000 0.03400  0.99200  0.90300  Biso   1.000  H
  H4       1.0000 0.11900  0.41680  0.86900  Biso   1.000  H
  H5       1.0000 0.02200  0.27600  0.98600  Biso   1.000  H
  H6       1.0000 0.02900  0.87700  0.00800  Biso   1.000  H
  H7       1.0000 0.29800  0.04100  0.22400  Biso   1.000  H
  H8       1.0000 0.30100  0.92900  0.32800  Biso   1.000  H
  O6       1.0000 0.59932  0.77847  0.88938  Biso   1.000  O
  O7       1.0000 0.58878  0.61102  0.87900  Biso   1.000  O
  O8       1.0000 0.57547  0.30089  0.18685  Biso   1.000  O
  O9       1.0000 0.73074  0.31091  0.35221  Biso   1.000  O
  O10      1.0000 0.73126  0.64687  0.05926  Biso   1.000  O
  N2       1.0000 0.57298  0.83949  0.92170  Biso   1.000  N
  C14      1.0000 0.65659  0.33020  0.24350  Biso   1.000  C
  C15      1.0000 0.51517  0.96611  0.98310  Biso   1.000  C
  C16      1.0000 0.66220  0.60074  0.99260  Biso   1.000  C
  C17      1.0000 0.55930  0.97491  0.92890  Biso   1.000  C
  C18      1.0000 0.58830  0.91116  0.90020  Biso   1.000  C
  C19      1.0000 0.66612  0.52641  0.05500  Biso   1.000  C
  C20      1.0000 0.74250  0.44219  0.23760  Biso   1.000  C
  C21      1.0000 0.66271  0.39534  0.17410  Biso   1.000  C
  C22      1.0000 0.58560  0.41295  0.04790  Biso   1.000  C
  C23      1.0000 0.58770  0.47742  0.98910  Biso   1.000  C
  C24      1.0000 0.74370  0.50742  0.17890  Biso   1.000  C
  C25      1.0000 0.53150  0.82834  0.97510  Biso   1.000  C
  C26      1.0000 0.50210  0.89055  0.00550  Biso   1.000  C
  H9       1.0000 0.57500  0.02300  0.91700  Biso   1.000  H
  H10      1.0000 0.47400  0.88100  0.04600  Biso   1.000  H
  H11      1.0000 0.53400  0.49200  0.90300  Biso   1.000  H
  H12      1.0000 0.61900  0.91680  0.86900  Biso   1.000  H
  H13      1.0000 0.52200  0.77600  0.98600  Biso   1.000  H
  H14      1.0000 0.52900  0.37700  0.00800  Biso   1.000  H
  H15      1.0000 0.79800  0.54100  0.22400  Biso   1.000  H
  H16      1.0000 0.80100  0.42900  0.32800  Biso   1.000  H
  O11      1.0000 0.90068  0.27847  0.61062  Biso   1.000  O
  O12      1.0000 0.91122  0.11102  0.62100  Biso   1.000  O
  O13      1.0000 0.92453  0.80089  0.31315  Biso   1.000  O
  O14      1.0000 0.76926  0.81091  0.14779  Biso   1.000  O
  O15      1.0000 0.76874  0.14687  0.44074  Biso   1.000  O
  N3       1.0000 0.92702  0.33949  0.57830  Biso   1.000  N
  C27      1.0000 0.84341  0.83020  0.25650  Biso   1.000  C
  C28      1.0000 0.98483  0.46611  0.51690  Biso   1.000  C
  C29      1.0000 0.83780  0.10074  0.50740  Biso   1.000  C
  C30      1.0000 0.94070  0.47491  0.57110  Biso   1.000  C
  C31      1.0000 0.91170  0.41116  0.59980  Biso   1.000  C
  C32      1.0000 0.83388  0.02641  0.44500  Biso   1.000  C
  C33      1.0000 0.75750  0.94219  0.26240  Biso   1.000  C
  C34      1.0000 0.83729  0.89534  0.32590  Biso   1.000  C
  C35      1.0000 0.91440  0.91295  0.45210  Biso   1.000  C
  C36      1.0000 0.91230  0.97742  0.51090  Biso   1.000  C
  C37      1.0000 0.75630  0.00742  0.32110  Biso   1.000  C
  C38      1.0000 0.96850  0.32834  0.52490  Biso   1.000  C
  C39      1.0000 0.99790  0.39055  0.49450  Biso   1.000  C
  H17      1.0000 0.92500  0.52300  0.58300  Biso   1.000  H
  H18      1.0000 0.02600  0.38100  0.45400  Biso   1.000  H
  H19      1.0000 0.96600  0.99200  0.59700  Biso   1.000  H
  H20      1.0000 0.88100  0.41680  0.63100  Biso   1.000  H
  H21      1.0000 0.97800  0.27600  0.51400  Biso   1.000  H
  H22      1.0000 0.97100  0.87700  0.49200  Biso   1.000  H
  H23      1.0000 0.70200  0.04100  0.27600  Biso   1.000  H
  H24      1.0000 0.69900  0.92900  0.17200  Biso   1.000  H
  O16      1.0000 0.40068  0.77847  0.61062  Biso   1.000  O
  O17      1.0000 0.41122  0.61102  0.62100  Biso   1.000  O
  O18      1.0000 0.42453  0.30089  0.31315  Biso   1.000  O
  O19      1.0000 0.26926  0.31091  0.14779  Biso   1.000  O
  O20      1.0000 0.26874  0.64687  0.44074  Biso   1.000  O
  N4       1.0000 0.42702  0.83949  0.57830  Biso   1.000  N
  C40      1.0000 0.34341  0.33020  0.25650  Biso   1.000  C
  C41      1.0000 0.48483  0.96611  0.51690  Biso   1.000  C
  C42      1.0000 0.33780  0.60074  0.50740  Biso   1.000  C
  C43      1.0000 0.44070  0.97491  0.57110  Biso   1.000  C
  C44      1.0000 0.41170  0.91116  0.59980  Biso   1.000  C
  C45      1.0000 0.33388  0.52641  0.44500  Biso   1.000  C
  C46      1.0000 0.25750  0.44219  0.26240  Biso   1.000  C
  C47      1.0000 0.33729  0.39534  0.32590  Biso   1.000  C
  C48      1.0000 0.41440  0.41295  0.45210  Biso   1.000  C
  C49      1.0000 0.41230  0.47742  0.51090  Biso   1.000  C
  C50      1.0000 0.25630  0.50742  0.32110  Biso   1.000  C
  C51      1.0000 0.46850  0.82834  0.52490  Biso   1.000  C
  C52      1.0000 0.49790  0.89055  0.49450  Biso   1.000  C
  H25      1.0000 0.42500  0.02300  0.58300  Biso   1.000  H
  H26      1.0000 0.52600  0.88100  0.45400  Biso   1.000  H
  H27      1.0000 0.46600  0.49200  0.59700  Biso   1.000  H
  H28      1.0000 0.38100  0.91680  0.63100  Biso   1.000  H
  H29      1.0000 0.47800  0.77600  0.51400  Biso   1.000  H
  H30      1.0000 0.47100  0.37700  0.49200  Biso   1.000  H
  H31      1.0000 0.20200  0.54100  0.27600  Biso   1.000  H
  H32      1.0000 0.19900  0.42900  0.17200  Biso   1.000  H
  O21      1.0000 0.90068  0.72153  0.11062  Biso   1.000  O
  O22      1.0000 0.91122  0.88898  0.12100  Biso   1.000  O
  O23      1.0000 0.92453  0.19911  0.81315  Biso   1.000  O
  O24      1.0000 0.76926  0.18909  0.64779  Biso   1.000  O
  O25      1.0000 0.76874  0.85313  0.94074  Biso   1.000  O
  N5       1.0000 0.92702  0.66051  0.07830  Biso   1.000  N
  C53      1.0000 0.84341  0.16980  0.75650  Biso   1.000  C
  C54      1.0000 0.98483  0.53389  0.01690  Biso   1.000  C
  C55      1.0000 0.83780  0.89926  0.00740  Biso   1.000  C
  C56      1.0000 0.94070  0.52509  0.07110  Biso   1.000  C
  C57      1.0000 0.91170  0.58884  0.09980  Biso   1.000  C
  C58      1.0000 0.83388  0.97359  0.94500  Biso   1.000  C
  C59      1.0000 0.75750  0.05781  0.76240  Biso   1.000  C
  C60      1.0000 0.83729  0.10466  0.82590  Biso   1.000  C
  C61      1.0000 0.91440  0.08705  0.95210  Biso   1.000  C
  C62      1.0000 0.91230  0.02258  0.01090  Biso   1.000  C
  C63      1.0000 0.75630  0.99258  0.82110  Biso   1.000  C
  C64      1.0000 0.96850  0.67166  0.02490  Biso   1.000  C
  C65      1.0000 0.99790  0.60945  0.99450  Biso   1.000  C
  H33      1.0000 0.92500  0.47700  0.08300  Biso   1.000  H
  H34      1.0000 0.02600  0.61900  0.95400  Biso   1.000  H
  H35      1.0000 0.96600  0.00800  0.09700  Biso   1.000  H
  H36      1.0000 0.88100  0.58320  0.13100  Biso   1.000  H
  H37      1.0000 0.97800  0.72400  0.01400  Biso   1.000  H
  H38      1.0000 0.97100  0.12300  0.99200  Biso   1.000  H
  H39      1.0000 0.70200  0.95900  0.77600  Biso   1.000  H
  H40      1.0000 0.69900  0.07100  0.67200  Biso   1.000  H
  O26      1.0000 0.40068  0.22153  0.11062  Biso   1.000  O
  O27      1.0000 0.41122  0.38898  0.12100  Biso   1.000  O
  O28      1.0000 0.42453  0.69911  0.81315  Biso   1.000  O
  O29      1.0000 0.26926  0.68909  0.64779  Biso   1.000  O
  O30      1.0000 0.26874  0.35313  0.94074  Biso   1.000  O
  N6       1.0000 0.42702  0.16051  0.07830  Biso   1.000  N
  C66      1.0000 0.34341  0.66980  0.75650  Biso   1.000  C
  C67      1.0000 0.48483  0.03389  0.01690  Biso   1.000  C
  C68      1.0000 0.33780  0.39926  0.00740  Biso   1.000  C
  C69      1.0000 0.44070  0.02509  0.07110  Biso   1.000  C
  C70      1.0000 0.41170  0.08884  0.09980  Biso   1.000  C
  C71      1.0000 0.33388  0.47359  0.94500  Biso   1.000  C
  C72      1.0000 0.25750  0.55781  0.76240  Biso   1.000  C
  C73      1.0000 0.33729  0.60466  0.82590  Biso   1.000  C
  C74      1.0000 0.41440  0.58705  0.95210  Biso   1.000  C
  C75      1.0000 0.41230  0.52258  0.01090  Biso   1.000  C
  C76      1.0000 0.25630  0.49258  0.82110  Biso   1.000  C
  C77      1.0000 0.46850  0.17166  0.02490  Biso   1.000  C
  C78      1.0000 0.49790  0.10945  0.99450  Biso   1.000  C
  H41      1.0000 0.42500  0.97700  0.08300  Biso   1.000  H
  H42      1.0000 0.52600  0.11900  0.95400  Biso   1.000  H
  H43      1.0000 0.46600  0.50800  0.09700  Biso   1.000  H
  H44      1.0000 0.38100  0.08320  0.13100  Biso   1.000  H
  H45      1.0000 0.47800  0.22400  0.01400  Biso   1.000  H
  H46      1.0000 0.47100  0.62300  0.99200  Biso   1.000  H
  H47      1.0000 0.20200  0.45900  0.77600  Biso   1.000  H
  H48      1.0000 0.19900  0.57100  0.67200  Biso   1.000  H
  O31      1.0000 0.09932  0.72153  0.38938  Biso   1.000  O
  O32      1.0000 0.08878  0.88898  0.37900  Biso   1.000  O
  O33      1.0000 0.07547  0.19911  0.68685  Biso   1.000  O
  O34      1.0000 0.23074  0.18909  0.85221  Biso   1.000  O
  O35      1.0000 0.23126  0.85313  0.55926  Biso   1.000  O
  N7       1.0000 0.07298  0.66051  0.42170  Biso   1.000  N
  C79      1.0000 0.15659  0.16980  0.74350  Biso   1.000  C
  C80      1.0000 0.01517  0.53389  0.48310  Biso   1.000  C
  C81      1.0000 0.16220  0.89926  0.49260  Biso   1.000  C
  C82      1.0000 0.05930  0.52509  0.42890  Biso   1.000  C
  C83      1.0000 0.08830  0.58884  0.40020  Biso   1.000  C
  C84      1.0000 0.16612  0.97359  0.55500  Biso   1.000  C
  C85      1.0000 0.24250  0.05781  0.73760  Biso   1.000  C
  C86      1.0000 0.16271  0.10466  0.67410  Biso   1.000  C
  C87      1.0000 0.08560  0.08705  0.54790  Biso   1.000  C
  C88      1.0000 0.08770  0.02258  0.48910  Biso   1.000  C
  C89      1.0000 0.24370  0.99258  0.67890  Biso   1.000  C
  C90      1.0000 0.03150  0.67166  0.47510  Biso   1.000  C
  C91      1.0000 0.00210  0.60945  0.50550  Biso   1.000  C
  H49      1.0000 0.07500  0.47700  0.41700  Biso   1.000  H
  H50      1.0000 0.97400  0.61900  0.54600  Biso   1.000  H
  H51      1.0000 0.03400  0.00800  0.40300  Biso   1.000  H
  H52      1.0000 0.11900  0.58320  0.36900  Biso   1.000  H
  H53      1.0000 0.02200  0.72400  0.48600  Biso   1.000  H
  H54      1.0000 0.02900  0.12300  0.50800  Biso   1.000  H
  H55      1.0000 0.29800  0.95900  0.72400  Biso   1.000  H
  H56      1.0000 0.30100  0.07100  0.82800  Biso   1.000  H
  O36      1.0000 0.59932  0.22153  0.38938  Biso   1.000  O
  O37      1.0000 0.58878  0.38898  0.37900  Biso   1.000  O
  O38      1.0000 0.57547  0.69911  0.68685  Biso   1.000  O
  O39      1.0000 0.73074  0.68909  0.85221  Biso   1.000  O
  O40      1.0000 0.73126  0.35313  0.55926  Biso   1.000  O
  N8       1.0000 0.57298  0.16051  0.42170  Biso   1.000  N
  C92      1.0000 0.65659  0.66980  0.74350  Biso   1.000  C
  C93      1.0000 0.51517  0.03389  0.48310  Biso   1.000  C
  C94      1.0000 0.66220  0.39926  0.49260  Biso   1.000  C
  C95      1.0000 0.55930  0.02509  0.42890  Biso   1.000  C
  C96      1.0000 0.58830  0.08884  0.40020  Biso   1.000  C
  C97      1.0000 0.66612  0.47359  0.55500  Biso   1.000  C
  C98      1.0000 0.74250  0.55781  0.73760  Biso   1.000  C
  C99      1.0000 0.66271  0.60466  0.67410  Biso   1.000  C
  C100     1.0000 0.58560  0.58705  0.54790  Biso   1.000  C
  C101     1.0000 0.58770  0.52258  0.48910  Biso   1.000  C
  C102     1.0000 0.74370  0.49258  0.67890  Biso   1.000  C
  C103     1.0000 0.53150  0.17166  0.47510  Biso   1.000  C
  C104     1.0000 0.50210  0.10945  0.50550  Biso   1.000  C
  H57      1.0000 0.57500  0.97700  0.41700  Biso   1.000  H
  H58      1.0000 0.47400  0.11900  0.54600  Biso   1.000  H
  H59      1.0000 0.53400  0.50800  0.40300  Biso   1.000  H
  H60      1.0000 0.61900  0.08320  0.36900  Biso   1.000  H
  H61      1.0000 0.52200  0.22400  0.48600  Biso   1.000  H
  H62      1.0000 0.52900  0.62300  0.50800  Biso   1.000  H
  H63      1.0000 0.79800  0.45900  0.72400  Biso   1.000  H
  H64      1.0000 0.80100  0.57100  0.82800  Biso   1.000  H
  Mg1      1.0000 0.00000  0.19347  0.75000  Biso   1.000  Mg
  Mg2      1.0000 0.50000  0.69347  0.75000  Biso   1.000  Mg
  Mg3      1.0000 0.00000  0.80653  0.25000  Biso   1.000  Mg
  Mg4      1.0000 0.50000  0.30653  0.25000  Biso   1.000  Mg
  Mg5      1.0000 0.25000  0.25000  0.00000  Biso   1.000  Mg
  Mg6      1.0000 0.75000  0.25000  0.50000  Biso   1.000  Mg
  Mg7      1.0000 0.75000  0.75000  0.00000  Biso   1.000  Mg
  Mg8      1.0000 0.25000  0.75000  0.50000  Biso   1.000  Mg
