data_image0
_cell_length_a       17.655
_cell_length_b       17.638
_cell_length_c       12.956
_cell_angle_alpha    90
_cell_angle_beta     127.421
_cell_angle_gamma    90

_symmetry_space_group_name_H-M    "P 1"
_symmetry_int_tables_number       1

loop_
  _symmetry_equiv_pos_as_xyz
  'x, y, z'

loop_
  _atom_site_label
  _atom_site_occupancy
  _atom_site_fract_x
  _atom_site_fract_y
  _atom_site_fract_z
  _atom_site_thermal_displace_type
  _atom_site_B_iso_or_equiv
  _atom_site_type_symbol
  O1       1.0000 0.09870  0.22105  0.38900  Biso   1.000  O
  O2       1.0000 0.07740  0.29891  0.18210  Biso   1.000  O
  O3       1.0000 0.08710  0.61520  0.87920  Biso   1.000  O
  O4       1.0000 0.22780  0.65085  0.06340  Biso   1.000  O
  O5       1.0000 0.23200  0.31213  0.35070  Biso   1.000  O
  N1       1.0000 0.07250  0.16054  0.42160  Biso   1.000  N
  C1       1.0000 0.08950  0.09100  0.39720  Biso   1.000  C
  C2       1.0000 0.01470  0.03350  0.48230  Biso   1.000  C
  C3       1.0000 0.06060  0.02780  0.42670  Biso   1.000  C
  C4       1.0000 0.15770  0.33080  0.24040  Biso   1.000  C
  C5       1.0000 0.16020  0.60480  0.99410  Biso   1.000  C
  C6       1.0000 0.16470  0.53050  0.05660  Biso   1.000  C
  C7       1.0000 0.23950  0.44730  0.24100  Biso   1.000  C
  C8       1.0000 0.16400  0.39700  0.17370  Biso   1.000  C
  C9       1.0000 0.00090  0.10690  0.50850  Biso   1.000  C
  C10      1.0000 0.08970  0.47960  0.98660  Biso   1.000  C
  C11      1.0000 0.08850  0.41330  0.04450  Biso   1.000  C
  C12      1.0000 0.02900  0.16860  0.47680  Biso   1.000  C
  C13      1.0000 0.23990  0.51340  0.18370  Biso   1.000  C
  H1       1.0000 0.02400  0.49800  0.88900  Biso   1.000  H
  H2       1.0000 0.01300  0.21900  0.48900  Biso   1.000  H
  H3       1.0000 0.96700  0.11600  0.54400  Biso   1.000  H
  H4       1.0000 0.02800  0.37300  0.99900  Biso   1.000  H
  H5       1.0000 0.11400  0.08500  0.36100  Biso   1.000  H
  H6       1.0000 0.29500  0.54900  0.23800  Biso   1.000  H
  H7       1.0000 0.05600  0.98800  0.39400  Biso   1.000  H
  H8       1.0000 0.29000  0.44300  0.32600  Biso   1.000  H
  O6       1.0000 0.59870  0.72105  0.38900  Biso   1.000  O
  O7       1.0000 0.57740  0.79891  0.18210  Biso   1.000  O
  O8       1.0000 0.58710  0.11520  0.87920  Biso   1.000  O
  O9       1.0000 0.72780  0.15085  0.06340  Biso   1.000  O
  O10      1.0000 0.73200  0.81213  0.35070  Biso   1.000  O
  N2       1.0000 0.57250  0.66054  0.42160  Biso   1.000  N
  C14      1.0000 0.58950  0.59100  0.39720  Biso   1.000  C
  C15      1.0000 0.51470  0.53350  0.48230  Biso   1.000  C
  C16      1.0000 0.56060  0.52780  0.42670  Biso   1.000  C
  C17      1.0000 0.65770  0.83080  0.24040  Biso   1.000  C
  C18      1.0000 0.66020  0.10480  0.99410  Biso   1.000  C
  C19      1.0000 0.66470  0.03050  0.05660  Biso   1.000  C
  C20      1.0000 0.73950  0.94730  0.24100  Biso   1.000  C
  C21      1.0000 0.66400  0.89700  0.17370  Biso   1.000  C
  C22      1.0000 0.50090  0.60690  0.50850  Biso   1.000  C
  C23      1.0000 0.58970  0.97960  0.98660  Biso   1.000  C
  C24      1.0000 0.58850  0.91330  0.04450  Biso   1.000  C
  C25      1.0000 0.52900  0.66860  0.47680  Biso   1.000  C
  C26      1.0000 0.73990  0.01340  0.18370  Biso   1.000  C
  H9       1.0000 0.52400  0.99800  0.88900  Biso   1.000  H
  H10      1.0000 0.51300  0.71900  0.48900  Biso   1.000  H
  H11      1.0000 0.46700  0.61600  0.54400  Biso   1.000  H
  H12      1.0000 0.52800  0.87300  0.99900  Biso   1.000  H
  H13      1.0000 0.61400  0.58500  0.36100  Biso   1.000  H
  H14      1.0000 0.79500  0.04900  0.23800  Biso   1.000  H
  H15      1.0000 0.55600  0.48800  0.39400  Biso   1.000  H
  H16      1.0000 0.79000  0.94300  0.32600  Biso   1.000  H
  O11      1.0000 0.90130  0.22105  0.11100  Biso   1.000  O
  O12      1.0000 0.92260  0.29891  0.31790  Biso   1.000  O
  O13      1.0000 0.91290  0.61520  0.62080  Biso   1.000  O
  O14      1.0000 0.77220  0.65085  0.43660  Biso   1.000  O
  O15      1.0000 0.76800  0.31213  0.14930  Biso   1.000  O
  N3       1.0000 0.92750  0.16054  0.07840  Biso   1.000  N
  C27      1.0000 0.91050  0.09100  0.10280  Biso   1.000  C
  C28      1.0000 0.98530  0.03350  0.01770  Biso   1.000  C
  C29      1.0000 0.93940  0.02780  0.07330  Biso   1.000  C
  C30      1.0000 0.84230  0.33080  0.25960  Biso   1.000  C
  C31      1.0000 0.83980  0.60480  0.50590  Biso   1.000  C
  C32      1.0000 0.83530  0.53050  0.44340  Biso   1.000  C
  C33      1.0000 0.76050  0.44730  0.25900  Biso   1.000  C
  C34      1.0000 0.83600  0.39700  0.32630  Biso   1.000  C
  C35      1.0000 0.99910  0.10690  0.99150  Biso   1.000  C
  C36      1.0000 0.91030  0.47960  0.51340  Biso   1.000  C
  C37      1.0000 0.91150  0.41330  0.45550  Biso   1.000  C
  C38      1.0000 0.97100  0.16860  0.02320  Biso   1.000  C
  C39      1.0000 0.76010  0.51340  0.31630  Biso   1.000  C
  H17      1.0000 0.97600  0.49800  0.61100  Biso   1.000  H
  H18      1.0000 0.98700  0.21900  0.01100  Biso   1.000  H
  H19      1.0000 0.03300  0.11600  0.95600  Biso   1.000  H
  H20      1.0000 0.97200  0.37300  0.50100  Biso   1.000  H
  H21      1.0000 0.88600  0.08500  0.13900  Biso   1.000  H
  H22      1.0000 0.70500  0.54900  0.26200  Biso   1.000  H
  H23      1.0000 0.94400  0.98800  0.10600  Biso   1.000  H
  H24      1.0000 0.71000  0.44300  0.17400  Biso   1.000  H
  O16      1.0000 0.40130  0.72105  0.11100  Biso   1.000  O
  O17      1.0000 0.42260  0.79891  0.31790  Biso   1.000  O
  O18      1.0000 0.41290  0.11520  0.62080  Biso   1.000  O
  O19      1.0000 0.27220  0.15085  0.43660  Biso   1.000  O
  O20      1.0000 0.26800  0.81213  0.14930  Biso   1.000  O
  N4       1.0000 0.42750  0.66054  0.07840  Biso   1.000  N
  C40      1.0000 0.41050  0.59100  0.10280  Biso   1.000  C
  C41      1.0000 0.48530  0.53350  0.01770  Biso   1.000  C
  C42      1.0000 0.43940  0.52780  0.07330  Biso   1.000  C
  C43      1.0000 0.34230  0.83080  0.25960  Biso   1.000  C
  C44      1.0000 0.33980  0.10480  0.50590  Biso   1.000  C
  C45      1.0000 0.33530  0.03050  0.44340  Biso   1.000  C
  C46      1.0000 0.26050  0.94730  0.25900  Biso   1.000  C
  C47      1.0000 0.33600  0.89700  0.32630  Biso   1.000  C
  C48      1.0000 0.49910  0.60690  0.99150  Biso   1.000  C
  C49      1.0000 0.41030  0.97960  0.51340  Biso   1.000  C
  C50      1.0000 0.41150  0.91330  0.45550  Biso   1.000  C
  C51      1.0000 0.47100  0.66860  0.02320  Biso   1.000  C
  C52      1.0000 0.26010  0.01340  0.31630  Biso   1.000  C
  H25      1.0000 0.47600  0.99800  0.61100  Biso   1.000  H
  H26      1.0000 0.48700  0.71900  0.01100  Biso   1.000  H
  H27      1.0000 0.53300  0.61600  0.95600  Biso   1.000  H
  H28      1.0000 0.47200  0.87300  0.50100  Biso   1.000  H
  H29      1.0000 0.38600  0.58500  0.13900  Biso   1.000  H
  H30      1.0000 0.20500  0.04900  0.26200  Biso   1.000  H
  H31      1.0000 0.44400  0.48800  0.10600  Biso   1.000  H
  H32      1.0000 0.21000  0.94300  0.17400  Biso   1.000  H
  O21      1.0000 0.90130  0.77895  0.61100  Biso   1.000  O
  O22      1.0000 0.92260  0.70109  0.81790  Biso   1.000  O
  O23      1.0000 0.91290  0.38480  0.12080  Biso   1.000  O
  O24      1.0000 0.77220  0.34915  0.93660  Biso   1.000  O
  O25      1.0000 0.76800  0.68787  0.64930  Biso   1.000  O
  N5       1.0000 0.92750  0.83946  0.57840  Biso   1.000  N
  C53      1.0000 0.91050  0.90900  0.60280  Biso   1.000  C
  C54      1.0000 0.98530  0.96650  0.51770  Biso   1.000  C
  C55      1.0000 0.93940  0.97220  0.57330  Biso   1.000  C
  C56      1.0000 0.84230  0.66920  0.75960  Biso   1.000  C
  C57      1.0000 0.83980  0.39520  0.00590  Biso   1.000  C
  C58      1.0000 0.83530  0.46950  0.94340  Biso   1.000  C
  C59      1.0000 0.76050  0.55270  0.75900  Biso   1.000  C
  C60      1.0000 0.83600  0.60300  0.82630  Biso   1.000  C
  C61      1.0000 0.99910  0.89310  0.49150  Biso   1.000  C
  C62      1.0000 0.91030  0.52040  0.01340  Biso   1.000  C
  C63      1.0000 0.91150  0.58670  0.95550  Biso   1.000  C
  C64      1.0000 0.97100  0.83140  0.52320  Biso   1.000  C
  C65      1.0000 0.76010  0.48660  0.81630  Biso   1.000  C
  H33      1.0000 0.97600  0.50200  0.11100  Biso   1.000  H
  H34      1.0000 0.98700  0.78100  0.51100  Biso   1.000  H
  H35      1.0000 0.03300  0.88400  0.45600  Biso   1.000  H
  H36      1.0000 0.97200  0.62700  0.00100  Biso   1.000  H
  H37      1.0000 0.88600  0.91500  0.63900  Biso   1.000  H
  H38      1.0000 0.70500  0.45100  0.76200  Biso   1.000  H
  H39      1.0000 0.94400  0.01200  0.60600  Biso   1.000  H
  H40      1.0000 0.71000  0.55700  0.67400  Biso   1.000  H
  O26      1.0000 0.40130  0.27895  0.61100  Biso   1.000  O
  O27      1.0000 0.42260  0.20109  0.81790  Biso   1.000  O
  O28      1.0000 0.41290  0.88480  0.12080  Biso   1.000  O
  O29      1.0000 0.27220  0.84915  0.93660  Biso   1.000  O
  O30      1.0000 0.26800  0.18787  0.64930  Biso   1.000  O
  N6       1.0000 0.42750  0.33946  0.57840  Biso   1.000  N
  C66      1.0000 0.41050  0.40900  0.60280  Biso   1.000  C
  C67      1.0000 0.48530  0.46650  0.51770  Biso   1.000  C
  C68      1.0000 0.43940  0.47220  0.57330  Biso   1.000  C
  C69      1.0000 0.34230  0.16920  0.75960  Biso   1.000  C
  C70      1.0000 0.33980  0.89520  0.00590  Biso   1.000  C
  C71      1.0000 0.33530  0.96950  0.94340  Biso   1.000  C
  C72      1.0000 0.26050  0.05270  0.75900  Biso   1.000  C
  C73      1.0000 0.33600  0.10300  0.82630  Biso   1.000  C
  C74      1.0000 0.49910  0.39310  0.49150  Biso   1.000  C
  C75      1.0000 0.41030  0.02040  0.01340  Biso   1.000  C
  C76      1.0000 0.41150  0.08670  0.95550  Biso   1.000  C
  C77      1.0000 0.47100  0.33140  0.52320  Biso   1.000  C
  C78      1.0000 0.26010  0.98660  0.81630  Biso   1.000  C
  H41      1.0000 0.47600  0.00200  0.11100  Biso   1.000  H
  H42      1.0000 0.48700  0.28100  0.51100  Biso   1.000  H
  H43      1.0000 0.53300  0.38400  0.45600  Biso   1.000  H
  H44      1.0000 0.47200  0.12700  0.00100  Biso   1.000  H
  H45      1.0000 0.38600  0.41500  0.63900  Biso   1.000  H
  H46      1.0000 0.20500  0.95100  0.76200  Biso   1.000  H
  H47      1.0000 0.44400  0.51200  0.60600  Biso   1.000  H
  H48      1.0000 0.21000  0.05700  0.67400  Biso   1.000  H
  O31      1.0000 0.09870  0.77895  0.88900  Biso   1.000  O
  O32      1.0000 0.07740  0.70109  0.68210  Biso   1.000  O
  O33      1.0000 0.08710  0.38480  0.37920  Biso   1.000  O
  O34      1.0000 0.22780  0.34915  0.56340  Biso   1.000  O
  O35      1.0000 0.23200  0.68787  0.85070  Biso   1.000  O
  N7       1.0000 0.07250  0.83946  0.92160  Biso   1.000  N
  C79      1.0000 0.08950  0.90900  0.89720  Biso   1.000  C
  C80      1.0000 0.01470  0.96650  0.98230  Biso   1.000  C
  C81      1.0000 0.06060  0.97220  0.92670  Biso   1.000  C
  C82      1.0000 0.15770  0.66920  0.74040  Biso   1.000  C
  C83      1.0000 0.16020  0.39520  0.49410  Biso   1.000  C
  C84      1.0000 0.16470  0.46950  0.55660  Biso   1.000  C
  C85      1.0000 0.23950  0.55270  0.74100  Biso   1.000  C
  C86      1.0000 0.16400  0.60300  0.67370  Biso   1.000  C
  C87      1.0000 0.00090  0.89310  0.00850  Biso   1.000  C
  C88      1.0000 0.08970  0.52040  0.48660  Biso   1.000  C
  C89      1.0000 0.08850  0.58670  0.54450  Biso   1.000  C
  C90      1.0000 0.02900  0.83140  0.97680  Biso   1.000  C
  C91      1.0000 0.23990  0.48660  0.68370  Biso   1.000  C
  H49      1.0000 0.02400  0.50200  0.38900  Biso   1.000  H
  H50      1.0000 0.01300  0.78100  0.98900  Biso   1.000  H
  H51      1.0000 0.96700  0.88400  0.04400  Biso   1.000  H
  H52      1.0000 0.02800  0.62700  0.49900  Biso   1.000  H
  H53      1.0000 0.11400  0.91500  0.86100  Biso   1.000  H
  H54      1.0000 0.29500  0.45100  0.73800  Biso   1.000  H
  H55      1.0000 0.05600  0.01200  0.89400  Biso   1.000  H
  H56      1.0000 0.29000  0.55700  0.82600  Biso   1.000  H
  O36      1.0000 0.59870  0.27895  0.88900  Biso   1.000  O
  O37      1.0000 0.57740  0.20109  0.68210  Biso   1.000  O
  O38      1.0000 0.58710  0.88480  0.37920  Biso   1.000  O
  O39      1.0000 0.72780  0.84915  0.56340  Biso   1.000  O
  O40      1.0000 0.73200  0.18787  0.85070  Biso   1.000  O
  N8       1.0000 0.57250  0.33946  0.92160  Biso   1.000  N
  C92      1.0000 0.58950  0.40900  0.89720  Biso   1.000  C
  C93      1.0000 0.51470  0.46650  0.98230  Biso   1.000  C
  C94      1.0000 0.56060  0.47220  0.92670  Biso   1.000  C
  C95      1.0000 0.65770  0.16920  0.74040  Biso   1.000  C
  C96      1.0000 0.66020  0.89520  0.49410  Biso   1.000  C
  C97      1.0000 0.66470  0.96950  0.55660  Biso   1.000  C
  C98      1.0000 0.73950  0.05270  0.74100  Biso   1.000  C
  C99      1.0000 0.66400  0.10300  0.67370  Biso   1.000  C
  C100     1.0000 0.50090  0.39310  0.00850  Biso   1.000  C
  C101     1.0000 0.58970  0.02040  0.48660  Biso   1.000  C
  C102     1.0000 0.58850  0.08670  0.54450  Biso   1.000  C
  C103     1.0000 0.52900  0.33140  0.97680  Biso   1.000  C
  C104     1.0000 0.73990  0.98660  0.68370  Biso   1.000  C
  H57      1.0000 0.52400  0.00200  0.38900  Biso   1.000  H
  H58      1.0000 0.51300  0.28100  0.98900  Biso   1.000  H
  H59      1.0000 0.46700  0.38400  0.04400  Biso   1.000  H
  H60      1.0000 0.52800  0.12700  0.49900  Biso   1.000  H
  H61      1.0000 0.61400  0.41500  0.86100  Biso   1.000  H
  H62      1.0000 0.79500  0.95100  0.73800  Biso   1.000  H
  H63      1.0000 0.55600  0.51200  0.89400  Biso   1.000  H
  H64      1.0000 0.79000  0.05700  0.82600  Biso   1.000  H
  Mg1      1.0000 0.00000  0.30427  0.25000  Biso   1.000  Mg
  Mg2      1.0000 0.50000  0.80427  0.25000  Biso   1.000  Mg
  Mg3      1.0000 0.00000  0.69573  0.75000  Biso   1.000  Mg
  Mg4      1.0000 0.50000  0.19573  0.75000  Biso   1.000  Mg
  Mg5      1.0000 0.25000  0.25000  0.50000  Biso   1.000  Mg
  Mg6      1.0000 0.75000  0.25000  0.00000  Biso   1.000  Mg
  Mg7      1.0000 0.75000  0.75000  0.50000  Biso   1.000  Mg
  Mg8      1.0000 0.25000  0.75000  0.00000  Biso   1.000  Mg
