data_image0
_cell_length_a       18.3066
_cell_length_b       16.979
_cell_length_c       13.8035
_cell_angle_alpha    90
_cell_angle_beta     130.134
_cell_angle_gamma    90

_symmetry_space_group_name_H-M    "P 1"
_symmetry_int_tables_number       1

loop_
  _symmetry_equiv_pos_as_xyz
  'x, y, z'

loop_
  _atom_site_label
  _atom_site_occupancy
  _atom_site_fract_x
  _atom_site_fract_y
  _atom_site_fract_z
  _atom_site_thermal_displace_type
  _atom_site_B_iso_or_equiv
  _atom_site_type_symbol
  O1       1.0000 0.09933  0.27866  0.88833  Biso   1.000  O
  O2       1.0000 0.08858  0.10834  0.87882  Biso   1.000  O
  O3       1.0000 0.23165  0.81227  0.35637  Biso   1.000  O
  O4       1.0000 0.07581  0.80109  0.19096  Biso   1.000  O
  O5       1.0000 0.23134  0.14610  0.05769  Biso   1.000  O
  N1       1.0000 0.07295  0.33959  0.92070  Biso   1.000  N
  C1       1.0000 0.15746  0.83089  0.24750  Biso   1.000  C
  C2       1.0000 0.16165  0.09893  0.99170  Biso   1.000  C
  C3       1.0000 0.16627  0.02518  0.05640  Biso   1.000  C
  C4       1.0000 0.01488  0.46603  0.98260  Biso   1.000  C
  C5       1.0000 0.08700  0.41297  0.90070  Biso   1.000  C
  C6       1.0000 0.05810  0.47663  0.92970  Biso   1.000  C
  C7       1.0000 0.16313  0.89530  0.17820  Biso   1.000  C
  C8       1.0000 0.08620  0.91135  0.05250  Biso   1.000  C
  C9       1.0000 0.24260  0.94350  0.24030  Biso   1.000  C
  C10      1.0000 0.24310  0.00830  0.18010  Biso   1.000  C
  C11      1.0000 0.08770  0.97512  0.99170  Biso   1.000  C
  C12      1.0000 0.03360  0.32680  0.97440  Biso   1.000  C
  C13      1.0000 0.00400  0.38929  0.00450  Biso   1.000  C
  H1       1.0000 0.11700  0.41700  0.86800  Biso   1.000  H
  H2       1.0000 0.02800  0.98800  0.89800  Biso   1.000  H
  H3       1.0000 0.01900  0.27200  0.97900  Biso   1.000  H
  H4       1.0000 0.02600  0.87700  0.00800  Biso   1.000  H
  H5       1.0000 0.07200  0.52800  0.91900  Biso   1.000  H
  H6       1.0000 0.29200  0.04100  0.22400  Biso   1.000  H
  H7       1.0000 0.97700  0.37700  0.04700  Biso   1.000  H
  H8       1.0000 0.30000  0.93400  0.33000  Biso   1.000  H
  O6       1.0000 0.59933  0.77866  0.88833  Biso   1.000  O
  O7       1.0000 0.58858  0.60834  0.87882  Biso   1.000  O
  O8       1.0000 0.73165  0.31227  0.35637  Biso   1.000  O
  O9       1.0000 0.57581  0.30109  0.19096  Biso   1.000  O
  O10      1.0000 0.73134  0.64610  0.05769  Biso   1.000  O
  N2       1.0000 0.57295  0.83959  0.92070  Biso   1.000  N
  C14      1.0000 0.65746  0.33089  0.24750  Biso   1.000  C
  C15      1.0000 0.66165  0.59893  0.99170  Biso   1.000  C
  C16      1.0000 0.66627  0.52518  0.05640  Biso   1.000  C
  C17      1.0000 0.51488  0.96603  0.98260  Biso   1.000  C
  C18      1.0000 0.58700  0.91297  0.90070  Biso   1.000  C
  C19      1.0000 0.55810  0.97663  0.92970  Biso   1.000  C
  C20      1.0000 0.66313  0.39530  0.17820  Biso   1.000  C
  C21      1.0000 0.58620  0.41135  0.05250  Biso   1.000  C
  C22      1.0000 0.74260  0.44350  0.24030  Biso   1.000  C
  C23      1.0000 0.74310  0.50830  0.18010  Biso   1.000  C
  C24      1.0000 0.58770  0.47512  0.99170  Biso   1.000  C
  C25      1.0000 0.53360  0.82680  0.97440  Biso   1.000  C
  C26      1.0000 0.50400  0.88929  0.00450  Biso   1.000  C
  H9       1.0000 0.61700  0.91700  0.86800  Biso   1.000  H
  H10      1.0000 0.52800  0.48800  0.89800  Biso   1.000  H
  H11      1.0000 0.51900  0.77200  0.97900  Biso   1.000  H
  H12      1.0000 0.52600  0.37700  0.00800  Biso   1.000  H
  H13      1.0000 0.57200  0.02800  0.91900  Biso   1.000  H
  H14      1.0000 0.79200  0.54100  0.22400  Biso   1.000  H
  H15      1.0000 0.47700  0.87700  0.04700  Biso   1.000  H
  H16      1.0000 0.80000  0.43400  0.33000  Biso   1.000  H
  O11      1.0000 0.90067  0.27866  0.61167  Biso   1.000  O
  O12      1.0000 0.91142  0.10834  0.62118  Biso   1.000  O
  O13      1.0000 0.76835  0.81227  0.14363  Biso   1.000  O
  O14      1.0000 0.92419  0.80109  0.30904  Biso   1.000  O
  O15      1.0000 0.76866  0.14610  0.44231  Biso   1.000  O
  N3       1.0000 0.92705  0.33959  0.57930  Biso   1.000  N
  C27      1.0000 0.84254  0.83089  0.25250  Biso   1.000  C
  C28      1.0000 0.83835  0.09893  0.50830  Biso   1.000  C
  C29      1.0000 0.83373  0.02518  0.44360  Biso   1.000  C
  C30      1.0000 0.98512  0.46603  0.51740  Biso   1.000  C
  C31      1.0000 0.91300  0.41297  0.59930  Biso   1.000  C
  C32      1.0000 0.94190  0.47663  0.57030  Biso   1.000  C
  C33      1.0000 0.83687  0.89530  0.32180  Biso   1.000  C
  C34      1.0000 0.91380  0.91135  0.44750  Biso   1.000  C
  C35      1.0000 0.75740  0.94350  0.25970  Biso   1.000  C
  C36      1.0000 0.75690  0.00830  0.31990  Biso   1.000  C
  C37      1.0000 0.91230  0.97512  0.50830  Biso   1.000  C
  C38      1.0000 0.96640  0.32680  0.52560  Biso   1.000  C
  C39      1.0000 0.99600  0.38929  0.49550  Biso   1.000  C
  H17      1.0000 0.88300  0.41700  0.63200  Biso   1.000  H
  H18      1.0000 0.97200  0.98800  0.60200  Biso   1.000  H
  H19      1.0000 0.98100  0.27200  0.52100  Biso   1.000  H
  H20      1.0000 0.97400  0.87700  0.49200  Biso   1.000  H
  H21      1.0000 0.92800  0.52800  0.58100  Biso   1.000  H
  H22      1.0000 0.70800  0.04100  0.27600  Biso   1.000  H
  H23      1.0000 0.02300  0.37700  0.45300  Biso   1.000  H
  H24      1.0000 0.70000  0.93400  0.17000  Biso   1.000  H
  O16      1.0000 0.40067  0.77866  0.61167  Biso   1.000  O
  O17      1.0000 0.41142  0.60834  0.62118  Biso   1.000  O
  O18      1.0000 0.26835  0.31227  0.14363  Biso   1.000  O
  O19      1.0000 0.42419  0.30109  0.30904  Biso   1.000  O
  O20      1.0000 0.26866  0.64610  0.44231  Biso   1.000  O
  N4       1.0000 0.42705  0.83959  0.57930  Biso   1.000  N
  C40      1.0000 0.34254  0.33089  0.25250  Biso   1.000  C
  C41      1.0000 0.33835  0.59893  0.50830  Biso   1.000  C
  C42      1.0000 0.33373  0.52518  0.44360  Biso   1.000  C
  C43      1.0000 0.48512  0.96603  0.51740  Biso   1.000  C
  C44      1.0000 0.41300  0.91297  0.59930  Biso   1.000  C
  C45      1.0000 0.44190  0.97663  0.57030  Biso   1.000  C
  C46      1.0000 0.33687  0.39530  0.32180  Biso   1.000  C
  C47      1.0000 0.41380  0.41135  0.44750  Biso   1.000  C
  C48      1.0000 0.25740  0.44350  0.25970  Biso   1.000  C
  C49      1.0000 0.25690  0.50830  0.31990  Biso   1.000  C
  C50      1.0000 0.41230  0.47512  0.50830  Biso   1.000  C
  C51      1.0000 0.46640  0.82680  0.52560  Biso   1.000  C
  C52      1.0000 0.49600  0.88929  0.49550  Biso   1.000  C
  H25      1.0000 0.38300  0.91700  0.63200  Biso   1.000  H
  H26      1.0000 0.47200  0.48800  0.60200  Biso   1.000  H
  H27      1.0000 0.48100  0.77200  0.52100  Biso   1.000  H
  H28      1.0000 0.47400  0.37700  0.49200  Biso   1.000  H
  H29      1.0000 0.42800  0.02800  0.58100  Biso   1.000  H
  H30      1.0000 0.20800  0.54100  0.27600  Biso   1.000  H
  H31      1.0000 0.52300  0.87700  0.45300  Biso   1.000  H
  H32      1.0000 0.20000  0.43400  0.17000  Biso   1.000  H
  O21      1.0000 0.90067  0.72134  0.11167  Biso   1.000  O
  O22      1.0000 0.91142  0.89166  0.12118  Biso   1.000  O
  O23      1.0000 0.76835  0.18773  0.64363  Biso   1.000  O
  O24      1.0000 0.92419  0.19891  0.80904  Biso   1.000  O
  O25      1.0000 0.76866  0.85390  0.94231  Biso   1.000  O
  N5       1.0000 0.92705  0.66041  0.07930  Biso   1.000  N
  C53      1.0000 0.84254  0.16911  0.75250  Biso   1.000  C
  C54      1.0000 0.83835  0.90107  0.00830  Biso   1.000  C
  C55      1.0000 0.83373  0.97482  0.94360  Biso   1.000  C
  C56      1.0000 0.98512  0.53397  0.01740  Biso   1.000  C
  C57      1.0000 0.91300  0.58703  0.09930  Biso   1.000  C
  C58      1.0000 0.94190  0.52337  0.07030  Biso   1.000  C
  C59      1.0000 0.83687  0.10470  0.82180  Biso   1.000  C
  C60      1.0000 0.91380  0.08865  0.94750  Biso   1.000  C
  C61      1.0000 0.75740  0.05650  0.75970  Biso   1.000  C
  C62      1.0000 0.75690  0.99170  0.81990  Biso   1.000  C
  C63      1.0000 0.91230  0.02488  0.00830  Biso   1.000  C
  C64      1.0000 0.96640  0.67320  0.02560  Biso   1.000  C
  C65      1.0000 0.99600  0.61071  0.99550  Biso   1.000  C
  H33      1.0000 0.88300  0.58300  0.13200  Biso   1.000  H
  H34      1.0000 0.97200  0.01200  0.10200  Biso   1.000  H
  H35      1.0000 0.98100  0.72800  0.02100  Biso   1.000  H
  H36      1.0000 0.97400  0.12300  0.99200  Biso   1.000  H
  H37      1.0000 0.92800  0.47200  0.08100  Biso   1.000  H
  H38      1.0000 0.70800  0.95900  0.77600  Biso   1.000  H
  H39      1.0000 0.02300  0.62300  0.95300  Biso   1.000  H
  H40      1.0000 0.70000  0.06600  0.67000  Biso   1.000  H
  O26      1.0000 0.40067  0.22134  0.11167  Biso   1.000  O
  O27      1.0000 0.41142  0.39166  0.12118  Biso   1.000  O
  O28      1.0000 0.26835  0.68773  0.64363  Biso   1.000  O
  O29      1.0000 0.42419  0.69891  0.80904  Biso   1.000  O
  O30      1.0000 0.26866  0.35390  0.94231  Biso   1.000  O
  N6       1.0000 0.42705  0.16041  0.07930  Biso   1.000  N
  C66      1.0000 0.34254  0.66911  0.75250  Biso   1.000  C
  C67      1.0000 0.33835  0.40107  0.00830  Biso   1.000  C
  C68      1.0000 0.33373  0.47482  0.94360  Biso   1.000  C
  C69      1.0000 0.48512  0.03397  0.01740  Biso   1.000  C
  C70      1.0000 0.41300  0.08703  0.09930  Biso   1.000  C
  C71      1.0000 0.44190  0.02337  0.07030  Biso   1.000  C
  C72      1.0000 0.33687  0.60470  0.82180  Biso   1.000  C
  C73      1.0000 0.41380  0.58865  0.94750  Biso   1.000  C
  C74      1.0000 0.25740  0.55650  0.75970  Biso   1.000  C
  C75      1.0000 0.25690  0.49170  0.81990  Biso   1.000  C
  C76      1.0000 0.41230  0.52488  0.00830  Biso   1.000  C
  C77      1.0000 0.46640  0.17320  0.02560  Biso   1.000  C
  C78      1.0000 0.49600  0.11071  0.99550  Biso   1.000  C
  H41      1.0000 0.38300  0.08300  0.13200  Biso   1.000  H
  H42      1.0000 0.47200  0.51200  0.10200  Biso   1.000  H
  H43      1.0000 0.48100  0.22800  0.02100  Biso   1.000  H
  H44      1.0000 0.47400  0.62300  0.99200  Biso   1.000  H
  H45      1.0000 0.42800  0.97200  0.08100  Biso   1.000  H
  H46      1.0000 0.20800  0.45900  0.77600  Biso   1.000  H
  H47      1.0000 0.52300  0.12300  0.95300  Biso   1.000  H
  H48      1.0000 0.20000  0.56600  0.67000  Biso   1.000  H
  O31      1.0000 0.09933  0.72134  0.38833  Biso   1.000  O
  O32      1.0000 0.08858  0.89166  0.37882  Biso   1.000  O
  O33      1.0000 0.23165  0.18773  0.85637  Biso   1.000  O
  O34      1.0000 0.07581  0.19891  0.69096  Biso   1.000  O
  O35      1.0000 0.23134  0.85390  0.55769  Biso   1.000  O
  N7       1.0000 0.07295  0.66041  0.42070  Biso   1.000  N
  C79      1.0000 0.15746  0.16911  0.74750  Biso   1.000  C
  C80      1.0000 0.16165  0.90107  0.49170  Biso   1.000  C
  C81      1.0000 0.16627  0.97482  0.55640  Biso   1.000  C
  C82      1.0000 0.01488  0.53397  0.48260  Biso   1.000  C
  C83      1.0000 0.08700  0.58703  0.40070  Biso   1.000  C
  C84      1.0000 0.05810  0.52337  0.42970  Biso   1.000  C
  C85      1.0000 0.16313  0.10470  0.67820  Biso   1.000  C
  C86      1.0000 0.08620  0.08865  0.55250  Biso   1.000  C
  C87      1.0000 0.24260  0.05650  0.74030  Biso   1.000  C
  C88      1.0000 0.24310  0.99170  0.68010  Biso   1.000  C
  C89      1.0000 0.08770  0.02488  0.49170  Biso   1.000  C
  C90      1.0000 0.03360  0.67320  0.47440  Biso   1.000  C
  C91      1.0000 0.00400  0.61071  0.50450  Biso   1.000  C
  H49      1.0000 0.11700  0.58300  0.36800  Biso   1.000  H
  H50      1.0000 0.02800  0.01200  0.39800  Biso   1.000  H
  H51      1.0000 0.01900  0.72800  0.47900  Biso   1.000  H
  H52      1.0000 0.02600  0.12300  0.50800  Biso   1.000  H
  H53      1.0000 0.07200  0.47200  0.41900  Biso   1.000  H
  H54      1.0000 0.29200  0.95900  0.72400  Biso   1.000  H
  H55      1.0000 0.97700  0.62300  0.54700  Biso   1.000  H
  H56      1.0000 0.30000  0.06600  0.83000  Biso   1.000  H
  O36      1.0000 0.59933  0.22134  0.38833  Biso   1.000  O
  O37      1.0000 0.58858  0.39166  0.37882  Biso   1.000  O
  O38      1.0000 0.73165  0.68773  0.85637  Biso   1.000  O
  O39      1.0000 0.57581  0.69891  0.69096  Biso   1.000  O
  O40      1.0000 0.73134  0.35390  0.55769  Biso   1.000  O
  N8       1.0000 0.57295  0.16041  0.42070  Biso   1.000  N
  C92      1.0000 0.65746  0.66911  0.74750  Biso   1.000  C
  C93      1.0000 0.66165  0.40107  0.49170  Biso   1.000  C
  C94      1.0000 0.66627  0.47482  0.55640  Biso   1.000  C
  C95      1.0000 0.51488  0.03397  0.48260  Biso   1.000  C
  C96      1.0000 0.58700  0.08703  0.40070  Biso   1.000  C
  C97      1.0000 0.55810  0.02337  0.42970  Biso   1.000  C
  C98      1.0000 0.66313  0.60470  0.67820  Biso   1.000  C
  C99      1.0000 0.58620  0.58865  0.55250  Biso   1.000  C
  C100     1.0000 0.74260  0.55650  0.74030  Biso   1.000  C
  C101     1.0000 0.74310  0.49170  0.68010  Biso   1.000  C
  C102     1.0000 0.58770  0.52488  0.49170  Biso   1.000  C
  C103     1.0000 0.53360  0.17320  0.47440  Biso   1.000  C
  C104     1.0000 0.50400  0.11071  0.50450  Biso   1.000  C
  H57      1.0000 0.61700  0.08300  0.36800  Biso   1.000  H
  H58      1.0000 0.52800  0.51200  0.39800  Biso   1.000  H
  H59      1.0000 0.51900  0.22800  0.47900  Biso   1.000  H
  H60      1.0000 0.52600  0.62300  0.50800  Biso   1.000  H
  H61      1.0000 0.57200  0.97200  0.41900  Biso   1.000  H
  H62      1.0000 0.79200  0.45900  0.72400  Biso   1.000  H
  H63      1.0000 0.47700  0.12300  0.54700  Biso   1.000  H
  H64      1.0000 0.80000  0.56600  0.83000  Biso   1.000  H
  Mg1      1.0000 0.00000  0.19181  0.75000  Biso   1.000  Mg
  Mg2      1.0000 0.50000  0.69181  0.75000  Biso   1.000  Mg
  Mg3      1.0000 0.00000  0.80819  0.25000  Biso   1.000  Mg
  Mg4      1.0000 0.50000  0.30819  0.25000  Biso   1.000  Mg
  Mg5      1.0000 0.25000  0.25000  0.00000  Biso   1.000  Mg
  Mg6      1.0000 0.75000  0.25000  0.50000  Biso   1.000  Mg
  Mg7      1.0000 0.75000  0.75000  0.00000  Biso   1.000  Mg
  Mg8      1.0000 0.25000  0.75000  0.50000  Biso   1.000  Mg
