data_image0
_cell_length_a       15.6399
_cell_length_b       17.9843
_cell_length_c       31.7741
_cell_angle_alpha    95.6742
_cell_angle_beta     104.247
_cell_angle_gamma    90

_symmetry_space_group_name_H-M    P 1
_symmetry_int_tables_number       1

loop_
  _symmetry_equiv_pos_as_xyz
  'x, y, z'

loop_
  _atom_site_label
  _atom_site_occupancy
  _atom_site_fract_x
  _atom_site_fract_y
  _atom_site_fract_z
  _atom_site_thermal_displace_type
  _atom_site_B_iso_or_equiv
  _atom_site_type_symbol
  Cu1      1.0000 0.90037  0.47612  0.68938  Biso   1.000  Cu
  Cu2      1.0000 0.90163  0.36467  0.41424  Biso   1.000  Cu
  Cu3      1.0000 0.21099  0.02388  0.31062  Biso   1.000  Cu
  Cu4      1.0000 0.48739  0.13533  0.58576  Biso   1.000  Cu
  Cu5      1.0000 0.09963  0.52388  0.31062  Biso   1.000  Cu
  Cu6      1.0000 0.09837  0.63533  0.58576  Biso   1.000  Cu
  Cu7      1.0000 0.78901  0.97612  0.68938  Biso   1.000  Cu
  Cu8      1.0000 0.51261  0.86467  0.41424  Biso   1.000  Cu
  Cu9      1.0000 0.00000  0.50000  0.00000  Biso   1.000  Cu
  Cu10     1.0000 0.00000  0.00000  0.00000  Biso   1.000  Cu
  Cu11     1.0000 0.74704  0.75000  0.00000  Biso   1.000  Cu
  Cu12     1.0000 0.25296  0.25000  1.00000  Biso   1.000  Cu
  H1       1.0000 0.93960  0.54050  0.90580  Biso   1.000  H
  H2       1.0000 0.87670  0.61890  0.01220  Biso   1.000  H
  H3       1.0000 0.78270  0.71350  0.90660  Biso   1.000  H
  H4       1.0000 0.97200  0.58920  0.84860  Biso   1.000  H
  H5       1.0000 0.84230  0.65830  0.73440  Biso   1.000  H
  H6       1.0000 0.73200  0.69910  0.76500  Biso   1.000  H
  H7       1.0000 0.73470  0.68260  0.83620  Biso   1.000  H
  H8       1.0000 0.08070  0.65950  0.84360  Biso   1.000  H
  H9       1.0000 0.10360  0.69960  0.80600  Biso   1.000  H
  H10      1.0000 0.17480  0.65210  0.83480  Biso   1.000  H
  H11      1.0000 0.06100  0.51650  0.83340  Biso   1.000  H
  H12      1.0000 0.15520  0.50950  0.82460  Biso   1.000  H
  H13      1.0000 0.07310  0.47320  0.79000  Biso   1.000  H
  H14      1.0000 0.12660  0.62610  0.74020  Biso   1.000  H
  H15      1.0000 0.11210  0.53910  0.73360  Biso   1.000  H
  H16      1.0000 0.19490  0.57520  0.76800  Biso   1.000  H
  H17      1.0000 0.92270  0.59260  0.53280  Biso   1.000  H
  H18      1.0000 0.02880  0.56310  0.65420  Biso   1.000  H
  H19      1.0000 0.79410  0.47870  0.59940  Biso   1.000  H
  H20      1.0000 0.85450  0.50650  0.47700  Biso   1.000  H
  H21      1.0000 0.59970  0.45590  0.41720  Biso   1.000  H
  H22      1.0000 0.56440  0.48260  0.48340  Biso   1.000  H
  H23      1.0000 0.67020  0.51340  0.54600  Biso   1.000  H
  H24      1.0000 0.60430  0.53350  0.37240  Biso   1.000  H
  H25      1.0000 0.67990  0.57780  0.36040  Biso   1.000  H
  H26      1.0000 0.60620  0.53520  0.32340  Biso   1.000  H
  H27      1.0000 0.79120  0.51230  0.32960  Biso   1.000  H
  H28      1.0000 0.79560  0.42490  0.32640  Biso   1.000  H
  H29      1.0000 0.72110  0.46340  0.29380  Biso   1.000  H
  H30      1.0000 0.60500  0.38980  0.36420  Biso   1.000  H
  H31      1.0000 0.60580  0.38960  0.31500  Biso   1.000  H
  H32      1.0000 0.68060  0.35000  0.34680  Biso   1.000  H
  H33      1.0000 0.98260  0.24870  0.67980  Biso   1.000  H
  H34      1.0000 0.69150  0.46100  0.75120  Biso   1.000  H
  H35      1.0000 0.90200  0.13920  0.35760  Biso   1.000  H
  H36      1.0000 0.84230  0.26780  0.52200  Biso   1.000  H
  H37      1.0000 0.19090  0.67950  0.02380  Biso   1.000  H
  H38      1.0000 0.55040  0.89910  0.94740  Biso   1.000  H
  H39      1.0000 0.03380  0.95950  0.09420  Biso   1.000  H
  H40      1.0000 0.86450  0.88110  0.98780  Biso   1.000  H
  H41      1.0000 0.87610  0.78650  0.09340  Biso   1.000  H
  H42      1.0000 0.12340  0.91080  0.15140  Biso   1.000  H
  H43      1.0000 0.10790  0.84170  0.26560  Biso   1.000  H
  H44      1.0000 0.96700  0.80090  0.23500  Biso   1.000  H
  H45      1.0000 0.89850  0.81740  0.16380  Biso   1.000  H
  H46      1.0000 0.23710  0.84050  0.15640  Biso   1.000  H
  H47      1.0000 0.29760  0.80040  0.19400  Biso   1.000  H
  H48      1.0000 0.34000  0.84790  0.16520  Biso   1.000  H
  H49      1.0000 0.22760  0.98350  0.16660  Biso   1.000  H
  H50      1.0000 0.33060  0.99050  0.17540  Biso   1.000  H
  H51      1.0000 0.28310  0.02680  0.21000  Biso   1.000  H
  H52      1.0000 0.38640  0.87390  0.25980  Biso   1.000  H
  H53      1.0000 0.37850  0.96090  0.26640  Biso   1.000  H
  H54      1.0000 0.42690  0.92480  0.23200  Biso   1.000  H
  H55      1.0000 0.38990  0.90740  0.46720  Biso   1.000  H
  H56      1.0000 0.37460  0.93690  0.34580  Biso   1.000  H
  H57      1.0000 0.19470  0.02130  0.40060  Biso   1.000  H
  H58      1.0000 0.37750  0.99350  0.52300  Biso   1.000  H
  H59      1.0000 0.18250  0.04410  0.58280  Biso   1.000  H
  H60      1.0000 0.08100  0.01740  0.51660  Biso   1.000  H
  H61      1.0000 0.12420  0.98660  0.45400  Biso   1.000  H
  H62      1.0000 0.23190  0.96650  0.62760  Biso   1.000  H
  H63      1.0000 0.31950  0.92220  0.63960  Biso   1.000  H
  H64      1.0000 0.28280  0.96480  0.67660  Biso   1.000  H
  H65      1.0000 0.46160  0.98770  0.67040  Biso   1.000  H
  H66      1.0000 0.46920  0.07510  0.67360  Biso   1.000  H
  H67      1.0000 0.42730  0.03660  0.70620  Biso   1.000  H
  H68      1.0000 0.24080  0.11020  0.63580  Biso   1.000  H
  H69      1.0000 0.29080  0.11040  0.68500  Biso   1.000  H
  H70      1.0000 0.33380  0.15000  0.65320  Biso   1.000  H
  H71      1.0000 0.30280  0.25130  0.32020  Biso   1.000  H
  H72      1.0000 0.94030  0.03900  0.24880  Biso   1.000  H
  H73      1.0000 0.54440  0.36080  0.64240  Biso   1.000  H
  H74      1.0000 0.32030  0.23220  0.47800  Biso   1.000  H
  H75      1.0000 0.16710  0.82050  0.97620  Biso   1.000  H
  H76      1.0000 0.60300  0.60090  0.05260  Biso   1.000  H
  H77      1.0000 0.06040  0.45950  0.09420  Biso   1.000  H
  H78      1.0000 0.12330  0.38110  0.98780  Biso   1.000  H
  H79      1.0000 0.21730  0.28650  0.09340  Biso   1.000  H
  H80      1.0000 0.02800  0.41080  0.15140  Biso   1.000  H
  H81      1.0000 0.15770  0.34170  0.26560  Biso   1.000  H
  H82      1.0000 0.26800  0.30090  0.23500  Biso   1.000  H
  H83      1.0000 0.26530  0.31740  0.16380  Biso   1.000  H
  H84      1.0000 0.91930  0.34050  0.15640  Biso   1.000  H
  H85      1.0000 0.89640  0.30040  0.19400  Biso   1.000  H
  H86      1.0000 0.82520  0.34790  0.16520  Biso   1.000  H
  H87      1.0000 0.93900  0.48350  0.16660  Biso   1.000  H
  H88      1.0000 0.84480  0.49050  0.17540  Biso   1.000  H
  H89      1.0000 0.92690  0.52680  0.21000  Biso   1.000  H
  H90      1.0000 0.87340  0.37390  0.25980  Biso   1.000  H
  H91      1.0000 0.88790  0.46090  0.26640  Biso   1.000  H
  H92      1.0000 0.80510  0.42480  0.23200  Biso   1.000  H
  H93      1.0000 0.07730  0.40740  0.46720  Biso   1.000  H
  H94      1.0000 0.97120  0.43690  0.34580  Biso   1.000  H
  H95      1.0000 0.20590  0.52130  0.40060  Biso   1.000  H
  H96      1.0000 0.14550  0.49350  0.52300  Biso   1.000  H
  H97      1.0000 0.40030  0.54410  0.58280  Biso   1.000  H
  H98      1.0000 0.43560  0.51740  0.51660  Biso   1.000  H
  H99      1.0000 0.32980  0.48660  0.45400  Biso   1.000  H
  H100     1.0000 0.39570  0.46650  0.62760  Biso   1.000  H
  H101     1.0000 0.32010  0.42220  0.63960  Biso   1.000  H
  H102     1.0000 0.39380  0.46480  0.67660  Biso   1.000  H
  H103     1.0000 0.20880  0.48770  0.67040  Biso   1.000  H
  H104     1.0000 0.20440  0.57510  0.67360  Biso   1.000  H
  H105     1.0000 0.27890  0.53660  0.70620  Biso   1.000  H
  H106     1.0000 0.39500  0.61020  0.63580  Biso   1.000  H
  H107     1.0000 0.39420  0.61040  0.68500  Biso   1.000  H
  H108     1.0000 0.31940  0.65000  0.65320  Biso   1.000  H
  H109     1.0000 0.01740  0.75130  0.32020  Biso   1.000  H
  H110     1.0000 0.30850  0.53900  0.24880  Biso   1.000  H
  H111     1.0000 0.09800  0.86080  0.64240  Biso   1.000  H
  H112     1.0000 0.15770  0.73220  0.47800  Biso   1.000  H
  H113     1.0000 0.80910  0.32050  0.97620  Biso   1.000  H
  H114     1.0000 0.44960  0.10090  0.05260  Biso   1.000  H
  H115     1.0000 0.96620  0.04050  0.90580  Biso   1.000  H
  H116     1.0000 0.13550  0.11890  0.01220  Biso   1.000  H
  H117     1.0000 0.12390  0.21350  0.90660  Biso   1.000  H
  H118     1.0000 0.87660  0.08920  0.84860  Biso   1.000  H
  H119     1.0000 0.89210  0.15830  0.73440  Biso   1.000  H
  H120     1.0000 0.03300  0.19910  0.76500  Biso   1.000  H
  H121     1.0000 0.10150  0.18260  0.83620  Biso   1.000  H
  H122     1.0000 0.76290  0.15950  0.84360  Biso   1.000  H
  H123     1.0000 0.70240  0.19960  0.80600  Biso   1.000  H
  H124     1.0000 0.66000  0.15210  0.83480  Biso   1.000  H
  H125     1.0000 0.77240  0.01650  0.83340  Biso   1.000  H
  H126     1.0000 0.66940  0.00950  0.82460  Biso   1.000  H
  H127     1.0000 0.71690  0.97320  0.79000  Biso   1.000  H
  H128     1.0000 0.61360  0.12610  0.74020  Biso   1.000  H
  H129     1.0000 0.62150  0.03910  0.73360  Biso   1.000  H
  H130     1.0000 0.57310  0.07520  0.76800  Biso   1.000  H
  H131     1.0000 0.61010  0.09260  0.53280  Biso   1.000  H
  H132     1.0000 0.62540  0.06310  0.65420  Biso   1.000  H
  H133     1.0000 0.80530  0.97870  0.59940  Biso   1.000  H
  H134     1.0000 0.62250  0.00650  0.47700  Biso   1.000  H
  H135     1.0000 0.81750  0.95590  0.41720  Biso   1.000  H
  H136     1.0000 0.91900  0.98260  0.48340  Biso   1.000  H
  H137     1.0000 0.87580  0.01340  0.54600  Biso   1.000  H
  H138     1.0000 0.76810  0.03350  0.37240  Biso   1.000  H
  H139     1.0000 0.68050  0.07780  0.36040  Biso   1.000  H
  H140     1.0000 0.71720  0.03520  0.32340  Biso   1.000  H
  H141     1.0000 0.53840  0.01230  0.32960  Biso   1.000  H
  H142     1.0000 0.53080  0.92490  0.32640  Biso   1.000  H
  H143     1.0000 0.57270  0.96340  0.29380  Biso   1.000  H
  H144     1.0000 0.75920  0.88980  0.36420  Biso   1.000  H
  H145     1.0000 0.70920  0.88960  0.31500  Biso   1.000  H
  H146     1.0000 0.66620  0.85000  0.34680  Biso   1.000  H
  H147     1.0000 0.69720  0.74870  0.67980  Biso   1.000  H
  H148     1.0000 0.05970  0.96100  0.75120  Biso   1.000  H
  H149     1.0000 0.45560  0.63920  0.35760  Biso   1.000  H
  H150     1.0000 0.67970  0.76780  0.52200  Biso   1.000  H
  H151     1.0000 0.83290  0.17950  0.02380  Biso   1.000  H
  H152     1.0000 0.39700  0.39910  0.94740  Biso   1.000  H
  C1       1.0000 0.90989  0.57520  0.92018  Biso   1.000  C
  C2       1.0000 0.87276  0.62150  0.98272  Biso   1.000  C
  C3       1.0000 0.81751  0.67710  0.92082  Biso   1.000  C
  C4       1.0000 0.86058  0.62790  0.89676  Biso   1.000  C
  C5       1.0000 0.85475  0.63480  0.85010  Biso   1.000  C
  C6       1.0000 0.92298  0.61080  0.83176  Biso   1.000  C
  C7       1.0000 0.91834  0.61900  0.78768  Biso   1.000  C
  C8       1.0000 0.84591  0.65220  0.76342  Biso   1.000  C
  C9       1.0000 0.77999  0.67600  0.78178  Biso   1.000  C
  C10      1.0000 0.78160  0.66720  0.82460  Biso   1.000  C
  C11      1.0000 0.08109  0.58660  0.78958  Biso   1.000  C
  C12      1.0000 0.11302  0.65590  0.82144  Biso   1.000  C
  C13      1.0000 0.09379  0.51490  0.81138  Biso   1.000  C
  C14      1.0000 0.13357  0.58130  0.75454  Biso   1.000  C
  C15      1.0000 0.91981  0.57180  0.55802  Biso   1.000  C
  C16      1.0000 0.98147  0.55550  0.62974  Biso   1.000  C
  C17      1.0000 0.84360  0.50580  0.59760  Biso   1.000  C
  C18      1.0000 0.84513  0.53110  0.55846  Biso   1.000  C
  C19      1.0000 0.77385  0.51310  0.51810  Biso   1.000  C
  C20      1.0000 0.79599  0.50100  0.47818  Biso   1.000  C
  C21      1.0000 0.73063  0.48060  0.44006  Biso   1.000  C
  C22      1.0000 0.64351  0.47150  0.44222  Biso   1.000  C
  C23      1.0000 0.62307  0.48610  0.48214  Biso   1.000  C
  C24      1.0000 0.68580  0.50540  0.51960  Biso   1.000  C
  C25      1.0000 0.69695  0.46470  0.35510  Biso   1.000  C
  C26      1.0000 0.64178  0.53420  0.35256  Biso   1.000  C
  C27      1.0000 0.75690  0.46650  0.32320  Biso   1.000  C
  C28      1.0000 0.64192  0.39170  0.34424  Biso   1.000  C
  C29      1.0000 0.81725  0.24350  0.63970  Biso   1.000  C
  C30      1.0000 0.87651  0.31100  0.65882  Biso   1.000  C
  C31      1.0000 0.96528  0.29790  0.67756  Biso   1.000  C
  C32      1.0000 0.02775  0.35380  0.69270  Biso   1.000  C
  C33      1.0000 0.12180  0.32960  0.70700  Biso   1.000  C
  C34      1.0000 0.63497  0.54260  0.68594  Biso   1.000  C
  C35      1.0000 0.72190  0.50730  0.70140  Biso   1.000  C
  C36      1.0000 0.73784  0.46770  0.73828  Biso   1.000  C
  C37      1.0000 0.81701  0.43870  0.75622  Biso   1.000  C
  C38      1.0000 0.83000  0.39650  0.79660  Biso   1.000  C
  C39      1.0000 0.00573  0.15130  0.43486  Biso   1.000  C
  C40      1.0000 0.95819  0.21060  0.40878  Biso   1.000  C
  C41      1.0000 0.90798  0.18990  0.36736  Biso   1.000  C
  C42      1.0000 0.86522  0.24020  0.33884  Biso   1.000  C
  C43      1.0000 0.81529  0.20980  0.29398  Biso   1.000  C
  C44      1.0000 0.99152  0.33960  0.55664  Biso   1.000  C
  C45      1.0000 0.92931  0.34440  0.51262  Biso   1.000  C
  C46      1.0000 0.85311  0.29670  0.50102  Biso   1.000  C
  C47      1.0000 0.79382  0.29060  0.46044  Biso   1.000  C
  C48      1.0000 0.71278  0.24080  0.45316  Biso   1.000  C
  C49      1.0000 0.21378  0.59580  0.95656  Biso   1.000  C
  C50      1.0000 0.14917  0.58540  0.98494  Biso   1.000  C
  C51      1.0000 0.15139  0.63920  0.01958  Biso   1.000  C
  C52      1.0000 0.09751  0.63620  0.04842  Biso   1.000  C
  C53      1.0000 0.10620  0.70100  0.08340  Biso   1.000  C
  C54      1.0000 0.65147  0.86940  0.89194  Biso   1.000  C
  C55      1.0000 0.65648  0.84710  0.93856  Biso   1.000  C
  C56      1.0000 0.59650  0.87010  0.96080  Biso   1.000  C
  C57      1.0000 0.60050  0.85280  0.00220  Biso   1.000  C
  C58      1.0000 0.98971  0.92480  0.07982  Biso   1.000  C
  C59      1.0000 0.89004  0.87850  0.01728  Biso   1.000  C
  C60      1.0000 0.89669  0.82290  0.07918  Biso   1.000  C
  C61      1.0000 0.96382  0.87210  0.10324  Biso   1.000  C
  C62      1.0000 0.00465  0.86520  0.14990  Biso   1.000  C
  C63      1.0000 0.09122  0.88920  0.16824  Biso   1.000  C
  C64      1.0000 0.13066  0.88100  0.21232  Biso   1.000  C
  C65      1.0000 0.08249  0.84780  0.23658  Biso   1.000  C
  C66      1.0000 0.99821  0.82400  0.21822  Biso   1.000  C
  C67      1.0000 0.95700  0.83280  0.17540  Biso   1.000  C
  C68      1.0000 0.29151  0.91340  0.21042  Biso   1.000  C
  C69      1.0000 0.29158  0.84410  0.17856  Biso   1.000  C
  C70      1.0000 0.28241  0.98510  0.18862  Biso   1.000  C
  C71      1.0000 0.37903  0.91870  0.24546  Biso   1.000  C
  C72      1.0000 0.36179  0.92820  0.44198  Biso   1.000  C
  C73      1.0000 0.35173  0.94450  0.37026  Biso   1.000  C
  C74      1.0000 0.24600  0.99420  0.40240  Biso   1.000  C
  C75      1.0000 0.28667  0.96890  0.44154  Biso   1.000  C
  C76      1.0000 0.25575  0.98690  0.48190  Biso   1.000  C
  C77      1.0000 0.31781  0.99900  0.52182  Biso   1.000  C
  C78      1.0000 0.29057  0.01940  0.55994  Biso   1.000  C
  C79      1.0000 0.20129  0.02850  0.55778  Biso   1.000  C
  C80      1.0000 0.14093  0.01390  0.51786  Biso   1.000  C
  C81      1.0000 0.16620  0.99460  0.48040  Biso   1.000  C
  C82      1.0000 0.34185  0.03530  0.64490  Biso   1.000  C
  C83      1.0000 0.28922  0.96580  0.64744  Biso   1.000  C
  C84      1.0000 0.43370  0.03350  0.67680  Biso   1.000  C
  C85      1.0000 0.29768  0.10830  0.65576  Biso   1.000  C
  C86      1.0000 0.17755  0.25650  0.36030  Biso   1.000  C
  C87      1.0000 0.21769  0.18900  0.34118  Biso   1.000  C
  C88      1.0000 0.28772  0.20210  0.32244  Biso   1.000  C
  C89      1.0000 0.33505  0.14620  0.30730  Biso   1.000  C
  C90      1.0000 0.41480  0.17040  0.29300  Biso   1.000  C
  C91      1.0000 0.94903  0.95740  0.31406  Biso   1.000  C
  C92      1.0000 0.02050  0.99270  0.29860  Biso   1.000  C
  C93      1.0000 0.99956  0.03230  0.26172  Biso   1.000  C
  C94      1.0000 0.06079  0.06130  0.24378  Biso   1.000  C
  C95      1.0000 0.03340  0.10350  0.20340  Biso   1.000  C
  C96      1.0000 0.57087  0.34870  0.56514  Biso   1.000  C
  C97      1.0000 0.54941  0.28940  0.59122  Biso   1.000  C
  C98      1.0000 0.54062  0.31010  0.63264  Biso   1.000  C
  C99      1.0000 0.52638  0.25980  0.66116  Biso   1.000  C
  C100     1.0000 0.52131  0.29020  0.70602  Biso   1.000  C
  C101     1.0000 0.43488  0.16040  0.44336  Biso   1.000  C
  C102     1.0000 0.41669  0.15560  0.48738  Biso   1.000  C
  C103     1.0000 0.35209  0.20330  0.49898  Biso   1.000  C
  C104     1.0000 0.33338  0.20940  0.53956  Biso   1.000  C
  C105     1.0000 0.25962  0.25920  0.54684  Biso   1.000  C
  C106     1.0000 0.25722  0.90420  0.04344  Biso   1.000  C
  C107     1.0000 0.16423  0.91460  0.01506  Biso   1.000  C
  C108     1.0000 0.13181  0.86080  0.98042  Biso   1.000  C
  C109     1.0000 0.04909  0.86380  0.95158  Biso   1.000  C
  C110     1.0000 0.02280  0.79900  0.91660  Biso   1.000  C
  C111     1.0000 0.75953  0.63060  0.10806  Biso   1.000  C
  C112     1.0000 0.71792  0.65290  0.06144  Biso   1.000  C
  C113     1.0000 0.63570  0.62990  0.03920  Biso   1.000  C
  C114     1.0000 0.59830  0.64720  0.99780  Biso   1.000  C
  C115     1.0000 0.09011  0.42480  0.07982  Biso   1.000  C
  C116     1.0000 0.12724  0.37850  0.01728  Biso   1.000  C
  C117     1.0000 0.18249  0.32290  0.07918  Biso   1.000  C
  C118     1.0000 0.13942  0.37210  0.10324  Biso   1.000  C
  C119     1.0000 0.14525  0.36520  0.14990  Biso   1.000  C
  C120     1.0000 0.07702  0.38920  0.16824  Biso   1.000  C
  C121     1.0000 0.08166  0.38100  0.21232  Biso   1.000  C
  C122     1.0000 0.15409  0.34780  0.23658  Biso   1.000  C
  C123     1.0000 0.22001  0.32400  0.21822  Biso   1.000  C
  C124     1.0000 0.21840  0.33280  0.17540  Biso   1.000  C
  C125     1.0000 0.91891  0.41340  0.21042  Biso   1.000  C
  C126     1.0000 0.88698  0.34410  0.17856  Biso   1.000  C
  C127     1.0000 0.90621  0.48510  0.18862  Biso   1.000  C
  C128     1.0000 0.86643  0.41870  0.24546  Biso   1.000  C
  C129     1.0000 0.08019  0.42820  0.44198  Biso   1.000  C
  C130     1.0000 0.01853  0.44450  0.37026  Biso   1.000  C
  C131     1.0000 0.15640  0.49420  0.40240  Biso   1.000  C
  C132     1.0000 0.15487  0.46890  0.44154  Biso   1.000  C
  C133     1.0000 0.22615  0.48690  0.48190  Biso   1.000  C
  C134     1.0000 0.20401  0.49900  0.52182  Biso   1.000  C
  C135     1.0000 0.26937  0.51940  0.55994  Biso   1.000  C
  C136     1.0000 0.35649  0.52850  0.55778  Biso   1.000  C
  C137     1.0000 0.37693  0.51390  0.51786  Biso   1.000  C
  C138     1.0000 0.31420  0.49460  0.48040  Biso   1.000  C
  C139     1.0000 0.30305  0.53530  0.64490  Biso   1.000  C
  C140     1.0000 0.35822  0.46580  0.64744  Biso   1.000  C
  C141     1.0000 0.24310  0.53350  0.67680  Biso   1.000  C
  C142     1.0000 0.35808  0.60830  0.65576  Biso   1.000  C
  C143     1.0000 0.18275  0.75650  0.36030  Biso   1.000  C
  C144     1.0000 0.12349  0.68900  0.34118  Biso   1.000  C
  C145     1.0000 0.03472  0.70210  0.32244  Biso   1.000  C
  C146     1.0000 0.97225  0.64620  0.30730  Biso   1.000  C
  C147     1.0000 0.87820  0.67040  0.29300  Biso   1.000  C
  C148     1.0000 0.36503  0.45740  0.31406  Biso   1.000  C
  C149     1.0000 0.27810  0.49270  0.29860  Biso   1.000  C
  C150     1.0000 0.26216  0.53230  0.26172  Biso   1.000  C
  C151     1.0000 0.18299  0.56130  0.24378  Biso   1.000  C
  C152     1.0000 0.17000  0.60350  0.20340  Biso   1.000  C
  C153     1.0000 0.99427  0.84870  0.56514  Biso   1.000  C
  C154     1.0000 0.04181  0.78940  0.59122  Biso   1.000  C
  C155     1.0000 0.09202  0.81010  0.63264  Biso   1.000  C
  C156     1.0000 0.13478  0.75980  0.66116  Biso   1.000  C
  C157     1.0000 0.18471  0.79020  0.70602  Biso   1.000  C
  C158     1.0000 0.00848  0.66040  0.44336  Biso   1.000  C
  C159     1.0000 0.07069  0.65560  0.48738  Biso   1.000  C
  C160     1.0000 0.14689  0.70330  0.49898  Biso   1.000  C
  C161     1.0000 0.20618  0.70940  0.53956  Biso   1.000  C
  C162     1.0000 0.28722  0.75920  0.54684  Biso   1.000  C
  C163     1.0000 0.78622  0.40420  0.04344  Biso   1.000  C
  C164     1.0000 0.85083  0.41460  0.01506  Biso   1.000  C
  C165     1.0000 0.84861  0.36080  0.98042  Biso   1.000  C
  C166     1.0000 0.90249  0.36380  0.95158  Biso   1.000  C
  C167     1.0000 0.89380  0.29900  0.91660  Biso   1.000  C
  C168     1.0000 0.34853  0.13060  0.10806  Biso   1.000  C
  C169     1.0000 0.34352  0.15290  0.06144  Biso   1.000  C
  C170     1.0000 0.40350  0.12990  0.03920  Biso   1.000  C
  C171     1.0000 0.39950  0.14720  0.99780  Biso   1.000  C
  C172     1.0000 0.01029  0.07520  0.92018  Biso   1.000  C
  C173     1.0000 0.10996  0.12150  0.98272  Biso   1.000  C
  C174     1.0000 0.10331  0.17710  0.92082  Biso   1.000  C
  C175     1.0000 0.03618  0.12790  0.89676  Biso   1.000  C
  C176     1.0000 0.99535  0.13480  0.85010  Biso   1.000  C
  C177     1.0000 0.90878  0.11080  0.83176  Biso   1.000  C
  C178     1.0000 0.86934  0.11900  0.78768  Biso   1.000  C
  C179     1.0000 0.91751  0.15220  0.76342  Biso   1.000  C
  C180     1.0000 0.00179  0.17600  0.78178  Biso   1.000  C
  C181     1.0000 0.04300  0.16720  0.82460  Biso   1.000  C
  C182     1.0000 0.70849  0.08660  0.78958  Biso   1.000  C
  C183     1.0000 0.70842  0.15590  0.82144  Biso   1.000  C
  C184     1.0000 0.71759  0.01490  0.81138  Biso   1.000  C
  C185     1.0000 0.62097  0.08130  0.75454  Biso   1.000  C
  C186     1.0000 0.63821  0.07180  0.55802  Biso   1.000  C
  C187     1.0000 0.64827  0.05550  0.62974  Biso   1.000  C
  C188     1.0000 0.75400  0.00580  0.59760  Biso   1.000  C
  C189     1.0000 0.71333  0.03110  0.55846  Biso   1.000  C
  C190     1.0000 0.74425  0.01310  0.51810  Biso   1.000  C
  C191     1.0000 0.68219  0.00100  0.47818  Biso   1.000  C
  C192     1.0000 0.70943  0.98060  0.44006  Biso   1.000  C
  C193     1.0000 0.79871  0.97150  0.44222  Biso   1.000  C
  C194     1.0000 0.85907  0.98610  0.48214  Biso   1.000  C
  C195     1.0000 0.83380  0.00540  0.51960  Biso   1.000  C
  C196     1.0000 0.65815  0.96470  0.35510  Biso   1.000  C
  C197     1.0000 0.71078  0.03420  0.35256  Biso   1.000  C
  C198     1.0000 0.56630  0.96650  0.32320  Biso   1.000  C
  C199     1.0000 0.70232  0.89170  0.34424  Biso   1.000  C
  C200     1.0000 0.82245  0.74350  0.63970  Biso   1.000  C
  C201     1.0000 0.78231  0.81100  0.65882  Biso   1.000  C
  C202     1.0000 0.71228  0.79790  0.67756  Biso   1.000  C
  C203     1.0000 0.66495  0.85380  0.69270  Biso   1.000  C
  C204     1.0000 0.58520  0.82960  0.70700  Biso   1.000  C
  C205     1.0000 0.05097  0.04260  0.68594  Biso   1.000  C
  C206     1.0000 0.97950  0.00730  0.70140  Biso   1.000  C
  C207     1.0000 0.00044  0.96770  0.73828  Biso   1.000  C
  C208     1.0000 0.93921  0.93870  0.75622  Biso   1.000  C
  C209     1.0000 0.96660  0.89650  0.79660  Biso   1.000  C
  C210     1.0000 0.42913  0.65130  0.43486  Biso   1.000  C
  C211     1.0000 0.45059  0.71060  0.40878  Biso   1.000  C
  C212     1.0000 0.45938  0.68990  0.36736  Biso   1.000  C
  C213     1.0000 0.47362  0.74020  0.33884  Biso   1.000  C
  C214     1.0000 0.47869  0.70980  0.29398  Biso   1.000  C
  C215     1.0000 0.56512  0.83960  0.55664  Biso   1.000  C
  C216     1.0000 0.58331  0.84440  0.51262  Biso   1.000  C
  C217     1.0000 0.64791  0.79670  0.50102  Biso   1.000  C
  C218     1.0000 0.66662  0.79060  0.46044  Biso   1.000  C
  C219     1.0000 0.74038  0.74080  0.45316  Biso   1.000  C
  C220     1.0000 0.74278  0.09580  0.95656  Biso   1.000  C
  C221     1.0000 0.83577  0.08540  0.98494  Biso   1.000  C
  C222     1.0000 0.86819  0.13920  0.01958  Biso   1.000  C
  C223     1.0000 0.95091  0.13620  0.04842  Biso   1.000  C
  C224     1.0000 0.97720  0.20100  0.08340  Biso   1.000  C
  C225     1.0000 0.24047  0.36940  0.89194  Biso   1.000  C
  C226     1.0000 0.28208  0.34710  0.93856  Biso   1.000  C
  C227     1.0000 0.36430  0.37010  0.96080  Biso   1.000  C
  C228     1.0000 0.40170  0.35280  0.00220  Biso   1.000  C
  N1       1.0000 0.91657  0.57210  0.96314  Biso   1.000  N
  N2       1.0000 0.82376  0.67430  0.96352  Biso   1.000  N
  N3       1.0000 0.98601  0.59400  0.76742  Biso   1.000  N
  N4       1.0000 0.98904  0.58230  0.59348  Biso   1.000  N
  N5       1.0000 0.91045  0.51840  0.63350  Biso   1.000  N
  N6       1.0000 0.75740  0.46670  0.40060  Biso   1.000  N
  N7       1.0000 0.95343  0.92790  0.03686  Biso   1.000  N
  N8       1.0000 0.86024  0.82570  0.03648  Biso   1.000  N
  N9       1.0000 0.21859  0.90600  0.23258  Biso   1.000  N
  N10      1.0000 0.39556  0.91770  0.40652  Biso   1.000  N
  N11      1.0000 0.27695  0.98160  0.36650  Biso   1.000  N
  N12      1.0000 0.35680  0.03330  0.59940  Biso   1.000  N
  N13      1.0000 0.08343  0.42790  0.03686  Biso   1.000  N
  N14      1.0000 0.17624  0.32570  0.03648  Biso   1.000  N
  N15      1.0000 0.01399  0.40600  0.23258  Biso   1.000  N
  N16      1.0000 0.01096  0.41770  0.40652  Biso   1.000  N
  N17      1.0000 0.08955  0.48160  0.36650  Biso   1.000  N
  N18      1.0000 0.24260  0.53330  0.59940  Biso   1.000  N
  N19      1.0000 0.04657  0.07210  0.96314  Biso   1.000  N
  N20      1.0000 0.13976  0.17430  0.96352  Biso   1.000  N
  N21      1.0000 0.78141  0.09400  0.76742  Biso   1.000  N
  N22      1.0000 0.60444  0.08230  0.59348  Biso   1.000  N
  N23      1.0000 0.72305  0.01840  0.63350  Biso   1.000  N
  N24      1.0000 0.64320  0.96670  0.40060  Biso   1.000  N
  O1       1.0000 0.96220  0.58090  0.72520  Biso   1.000  O
  O2       1.0000 0.84106  0.45950  0.40412  Biso   1.000  O
  O3       1.0000 0.84029  0.37300  0.65478  Biso   1.000  O
  O4       1.0000 0.01882  0.42350  0.69504  Biso   1.000  O
  O5       1.0000 0.77507  0.51980  0.67874  Biso   1.000  O
  O6       1.0000 0.88725  0.44070  0.74350  Biso   1.000  O
  O7       1.0000 0.97223  0.27520  0.42846  Biso   1.000  O
  O8       1.0000 0.86631  0.30970  0.34602  Biso   1.000  O
  O9       1.0000 0.94984  0.39080  0.49048  Biso   1.000  O
  O10      1.0000 0.79819  0.32030  0.42678  Biso   1.000  O
  O11      1.0000 0.09986  0.52930  0.97292  Biso   1.000  O
  O12      1.0000 0.04145  0.58800  0.04910  Biso   1.000  O
  O13      1.0000 0.72389  0.80810  0.95058  Biso   1.000  O
  O14      1.0000 0.65888  0.81840  0.02616  Biso   1.000  O
  O15      1.0000 0.23700  0.91910  0.27480  Biso   1.000  O
  O16      1.0000 0.43694  0.04050  0.59588  Biso   1.000  O
  O17      1.0000 0.18551  0.12700  0.34522  Biso   1.000  O
  O18      1.0000 0.32378  0.07650  0.30496  Biso   1.000  O
  O19      1.0000 0.09633  0.98020  0.32126  Biso   1.000  O
  O20      1.0000 0.14375  0.05930  0.25650  Biso   1.000  O
  O21      1.0000 0.54377  0.22480  0.57154  Biso   1.000  O
  O22      1.0000 0.52029  0.19030  0.65398  Biso   1.000  O
  O23      1.0000 0.45936  0.10920  0.50952  Biso   1.000  O
  O24      1.0000 0.37141  0.17970  0.57322  Biso   1.000  O
  O25      1.0000 0.12694  0.97070  0.02708  Biso   1.000  O
  O26      1.0000 0.99235  0.91200  0.95090  Biso   1.000  O
  O27      1.0000 0.77331  0.69190  0.04942  Biso   1.000  O
  O28      1.0000 0.63272  0.68160  0.97384  Biso   1.000  O
  O29      1.0000 0.03780  0.41910  0.27480  Biso   1.000  O
  O30      1.0000 0.15894  0.54050  0.59588  Biso   1.000  O
  O31      1.0000 0.15971  0.62700  0.34522  Biso   1.000  O
  O32      1.0000 0.98118  0.57650  0.30496  Biso   1.000  O
  O33      1.0000 0.22493  0.48020  0.32126  Biso   1.000  O
  O34      1.0000 0.11275  0.55930  0.25650  Biso   1.000  O
  O35      1.0000 0.02777  0.72480  0.57154  Biso   1.000  O
  O36      1.0000 0.13369  0.69030  0.65398  Biso   1.000  O
  O37      1.0000 0.05016  0.60920  0.50952  Biso   1.000  O
  O38      1.0000 0.20181  0.67970  0.57322  Biso   1.000  O
  O39      1.0000 0.90014  0.47070  0.02708  Biso   1.000  O
  O40      1.0000 0.95855  0.41200  0.95090  Biso   1.000  O
  O41      1.0000 0.27611  0.19190  0.04942  Biso   1.000  O
  O42      1.0000 0.34112  0.18160  0.97384  Biso   1.000  O
  O43      1.0000 0.76300  0.08090  0.72520  Biso   1.000  O
  O44      1.0000 0.56306  0.95950  0.40412  Biso   1.000  O
  O45      1.0000 0.81449  0.87300  0.65478  Biso   1.000  O
  O46      1.0000 0.67622  0.92350  0.69504  Biso   1.000  O
  O47      1.0000 0.90367  0.01980  0.67874  Biso   1.000  O
  O48      1.0000 0.85625  0.94070  0.74350  Biso   1.000  O
  O49      1.0000 0.45623  0.77520  0.42846  Biso   1.000  O
  O50      1.0000 0.47971  0.80970  0.34602  Biso   1.000  O
  O51      1.0000 0.54064  0.89080  0.49048  Biso   1.000  O
  O52      1.0000 0.62859  0.82030  0.42678  Biso   1.000  O
  O53      1.0000 0.87306  0.02930  0.97292  Biso   1.000  O
  O54      1.0000 0.00765  0.08800  0.04910  Biso   1.000  O
  O55      1.0000 0.22669  0.30810  0.95058  Biso   1.000  O
  O56      1.0000 0.36728  0.31840  0.02616  Biso   1.000  O
  F1       1.0000 0.78690  0.24050  0.59520  Biso   1.000  F
  F2       1.0000 0.84360  0.18160  0.65160  Biso   1.000  F
  F3       1.0000 0.74420  0.25590  0.66120  Biso   1.000  F
  F4       1.0000 0.13464  0.26510  0.72108  Biso   1.000  F
  F5       1.0000 0.17360  0.38210  0.73500  Biso   1.000  F
  F6       1.0000 0.16160  0.33640  0.67220  Biso   1.000  F
  F7       1.0000 0.64120  0.61200  0.68040  Biso   1.000  F
  F8       1.0000 0.58160  0.50460  0.65400  Biso   1.000  F
  F9       1.0000 0.58440  0.54350  0.71640  Biso   1.000  F
  F10      1.0000 0.81370  0.32840  0.78680  Biso   1.000  F
  F11      1.0000 0.76730  0.41810  0.81860  Biso   1.000  F
  F12      1.0000 0.90600  0.41680  0.82660  Biso   1.000  F
  F13      1.0000 0.99505  0.15660  0.47610  Biso   1.000  F
  F14      1.0000 0.97870  0.08130  0.42020  Biso   1.000  F
  F15      1.0000 0.09500  0.15580  0.44340  Biso   1.000  F
  F16      1.0000 0.78627  0.14210  0.28874  Biso   1.000  F
  F17      1.0000 0.75640  0.25430  0.27360  Biso   1.000  F
  F18      1.0000 0.87470  0.21590  0.26640  Biso   1.000  F
  F19      1.0000 0.69710  0.22120  0.49140  Biso   1.000  F
  F20      1.0000 0.64370  0.26370  0.42820  Biso   1.000  F
  F21      1.0000 0.73130  0.17520  0.43420  Biso   1.000  F
  F22      1.0000 0.98598  0.39310  0.58676  Biso   1.000  F
  F23      1.0000 0.07570  0.34110  0.55340  Biso   1.000  F
  F24      1.0000 0.98724  0.27060  0.57148  Biso   1.000  F
  F25      1.0000 0.28410  0.55450  0.96960  Biso   1.000  F
  F26      1.0000 0.24200  0.66860  0.95920  Biso   1.000  F
  F27      1.0000 0.18940  0.56260  0.91720  Biso   1.000  F
  F28      1.0000 0.12563  0.76600  0.07426  Biso   1.000  F
  F29      1.0000 0.03401  0.69860  0.10422  Biso   1.000  F
  F30      1.0000 0.17460  0.69070  0.11800  Biso   1.000  F
  F31      1.0000 0.59780  0.92560  0.88320  Biso   1.000  F
  F32      1.0000 0.71610  0.88010  0.88180  Biso   1.000  F
  F33      1.0000 0.61240  0.80100  0.86680  Biso   1.000  F
  F34      1.0000 0.19170  0.25950  0.40480  Biso   1.000  F
  F35      1.0000 0.19200  0.31840  0.34840  Biso   1.000  F
  F36      1.0000 0.08300  0.24410  0.33880  Biso   1.000  F
  F37      1.0000 0.41356  0.23490  0.27892  Biso   1.000  F
  F38      1.0000 0.43860  0.11790  0.26500  Biso   1.000  F
  F39      1.0000 0.48940  0.16360  0.32780  Biso   1.000  F
  F40      1.0000 0.96080  0.88800  0.31960  Biso   1.000  F
  F41      1.0000 0.92760  0.99540  0.34600  Biso   1.000  F
  F42      1.0000 0.86800  0.95650  0.28360  Biso   1.000  F
  F43      1.0000 0.02690  0.17160  0.21320  Biso   1.000  F
  F44      1.0000 0.94870  0.08190  0.18140  Biso   1.000  F
  F45      1.0000 0.07940  0.08320  0.17340  Biso   1.000  F
  F46      1.0000 0.51895  0.34340  0.52390  Biso   1.000  F
  F47      1.0000 0.55850  0.41870  0.57980  Biso   1.000  F
  F48      1.0000 0.65160  0.34420  0.55660  Biso   1.000  F
  F49      1.0000 0.49753  0.35790  0.71126  Biso   1.000  F
  F50      1.0000 0.48280  0.24570  0.72640  Biso   1.000  F
  F51      1.0000 0.60830  0.28410  0.73360  Biso   1.000  F
  F52      1.0000 0.20570  0.27880  0.50860  Biso   1.000  F
  F53      1.0000 0.21550  0.23630  0.57180  Biso   1.000  F
  F54      1.0000 0.29710  0.32480  0.56580  Biso   1.000  F
  F55      1.0000 0.39922  0.10690  0.41324  Biso   1.000  F
  F56      1.0000 0.52230  0.15890  0.44660  Biso   1.000  F
  F57      1.0000 0.41576  0.22940  0.42852  Biso   1.000  F
  F58      1.0000 0.31450  0.94550  0.03040  Biso   1.000  F
  F59      1.0000 0.28280  0.83140  0.04080  Biso   1.000  F
  F60      1.0000 0.27220  0.93740  0.08280  Biso   1.000  F
  F61      1.0000 0.05137  0.73400  0.92574  Biso   1.000  F
  F62      1.0000 0.92979  0.80140  0.89578  Biso   1.000  F
  F63      1.0000 0.05660  0.80930  0.88200  Biso   1.000  F
  F64      1.0000 0.71460  0.57440  0.11680  Biso   1.000  F
  F65      1.0000 0.83430  0.61990  0.11820  Biso   1.000  F
  F66      1.0000 0.74560  0.69900  0.13320  Biso   1.000  F
  F67      1.0000 0.21310  0.75950  0.40480  Biso   1.000  F
  F68      1.0000 0.15640  0.81840  0.34840  Biso   1.000  F
  F69      1.0000 0.25580  0.74410  0.33880  Biso   1.000  F
  F70      1.0000 0.86536  0.73490  0.27892  Biso   1.000  F
  F71      1.0000 0.82640  0.61790  0.26500  Biso   1.000  F
  F72      1.0000 0.83840  0.66360  0.32780  Biso   1.000  F
  F73      1.0000 0.35880  0.38800  0.31960  Biso   1.000  F
  F74      1.0000 0.41840  0.49540  0.34600  Biso   1.000  F
  F75      1.0000 0.41560  0.45650  0.28360  Biso   1.000  F
  F76      1.0000 0.18630  0.67160  0.21320  Biso   1.000  F
  F77      1.0000 0.23270  0.58190  0.18140  Biso   1.000  F
  F78      1.0000 0.09400  0.58320  0.17340  Biso   1.000  F
  F79      1.0000 0.00495  0.84340  0.52390  Biso   1.000  F
  F80      1.0000 0.02130  0.91870  0.57980  Biso   1.000  F
  F81      1.0000 0.90500  0.84420  0.55660  Biso   1.000  F
  F82      1.0000 0.21373  0.85790  0.71126  Biso   1.000  F
  F83      1.0000 0.24360  0.74570  0.72640  Biso   1.000  F
  F84      1.0000 0.12530  0.78410  0.73360  Biso   1.000  F
  F85      1.0000 0.30290  0.77880  0.50860  Biso   1.000  F
  F86      1.0000 0.35630  0.73630  0.57180  Biso   1.000  F
  F87      1.0000 0.26870  0.82480  0.56580  Biso   1.000  F
  F88      1.0000 0.01402  0.60690  0.41324  Biso   1.000  F
  F89      1.0000 0.92430  0.65890  0.44660  Biso   1.000  F
  F90      1.0000 0.01276  0.72940  0.42852  Biso   1.000  F
  F91      1.0000 0.71590  0.44550  0.03040  Biso   1.000  F
  F92      1.0000 0.75800  0.33140  0.04080  Biso   1.000  F
  F93      1.0000 0.81060  0.43740  0.08280  Biso   1.000  F
  F94      1.0000 0.87437  0.23400  0.92574  Biso   1.000  F
  F95      1.0000 0.96599  0.30140  0.89578  Biso   1.000  F
  F96      1.0000 0.82540  0.30930  0.88200  Biso   1.000  F
  F97      1.0000 0.40220  0.07440  0.11680  Biso   1.000  F
  F98      1.0000 0.28390  0.11990  0.11820  Biso   1.000  F
  F99      1.0000 0.38760  0.19900  0.13320  Biso   1.000  F
  F100     1.0000 0.80830  0.74050  0.59520  Biso   1.000  F
  F101     1.0000 0.80800  0.68160  0.65160  Biso   1.000  F
  F102     1.0000 0.91700  0.75590  0.66120  Biso   1.000  F
  F103     1.0000 0.58644  0.76510  0.72108  Biso   1.000  F
  F104     1.0000 0.56140  0.88210  0.73500  Biso   1.000  F
  F105     1.0000 0.51060  0.83640  0.67220  Biso   1.000  F
  F106     1.0000 0.03920  0.11200  0.68040  Biso   1.000  F
  F107     1.0000 0.07240  0.00460  0.65400  Biso   1.000  F
  F108     1.0000 0.13200  0.04350  0.71640  Biso   1.000  F
  F109     1.0000 0.97310  0.82840  0.78680  Biso   1.000  F
  F110     1.0000 0.05130  0.91810  0.81860  Biso   1.000  F
  F111     1.0000 0.92060  0.91680  0.82660  Biso   1.000  F
  F112     1.0000 0.48105  0.65660  0.47610  Biso   1.000  F
  F113     1.0000 0.44150  0.58130  0.42020  Biso   1.000  F
  F114     1.0000 0.34840  0.65580  0.44340  Biso   1.000  F
  F115     1.0000 0.50247  0.64210  0.28874  Biso   1.000  F
  F116     1.0000 0.51720  0.75430  0.27360  Biso   1.000  F
  F117     1.0000 0.39170  0.71590  0.26640  Biso   1.000  F
  F118     1.0000 0.79430  0.72120  0.49140  Biso   1.000  F
  F119     1.0000 0.78450  0.76370  0.42820  Biso   1.000  F
  F120     1.0000 0.70290  0.67520  0.43420  Biso   1.000  F
  F121     1.0000 0.60078  0.89310  0.58676  Biso   1.000  F
  F122     1.0000 0.47770  0.84110  0.55340  Biso   1.000  F
  F123     1.0000 0.58424  0.77060  0.57148  Biso   1.000  F
  F124     1.0000 0.68550  0.05450  0.96960  Biso   1.000  F
  F125     1.0000 0.71720  0.16860  0.95920  Biso   1.000  F
  F126     1.0000 0.72780  0.06260  0.91720  Biso   1.000  F
  F127     1.0000 0.94863  0.26600  0.07426  Biso   1.000  F
  F128     1.0000 0.07021  0.19860  0.10422  Biso   1.000  F
  F129     1.0000 0.94340  0.19070  0.11800  Biso   1.000  F
  F130     1.0000 0.28540  0.42560  0.88320  Biso   1.000  F
  F131     1.0000 0.16570  0.38010  0.88180  Biso   1.000  F
  F132     1.0000 0.25440  0.30100  0.86680  Biso   1.000  F
