data_image0
_cell_length_a       15.4268
_cell_length_b       17.6013
_cell_length_c       31.4076
_cell_angle_alpha    95.2079
_cell_angle_beta     104.217
_cell_angle_gamma    90

_symmetry_space_group_name_H-M    P 1
_symmetry_int_tables_number       1

loop_
  _symmetry_equiv_pos_as_xyz
  'x, y, z'

loop_
  _atom_site_label
  _atom_site_occupancy
  _atom_site_fract_x
  _atom_site_fract_y
  _atom_site_fract_z
  _atom_site_thermal_displace_type
  _atom_site_B_iso_or_equiv
  _atom_site_type_symbol
  Cu1      1.0000 0.90001  0.48056  0.69112  Biso   1.000  Cu
  Cu2      1.0000 0.90124  0.36364  0.41528  Biso   1.000  Cu
  Cu3      1.0000 0.20889  0.01944  0.30888  Biso   1.000  Cu
  Cu4      1.0000 0.48596  0.13636  0.58472  Biso   1.000  Cu
  Cu5      1.0000 0.09999  0.51944  0.30888  Biso   1.000  Cu
  Cu6      1.0000 0.09876  0.63636  0.58472  Biso   1.000  Cu
  Cu7      1.0000 0.79111  0.98056  0.69112  Biso   1.000  Cu
  Cu8      1.0000 0.51404  0.86364  0.41528  Biso   1.000  Cu
  Cu9      1.0000 0.00000  0.50000  0.00000  Biso   1.000  Cu
  Cu10     1.0000 0.00000  0.00000  0.00000  Biso   1.000  Cu
  Cu11     1.0000 0.73988  0.75000  0.00000  Biso   1.000  Cu
  Cu12     1.0000 0.26012  0.25000  0.00000  Biso   1.000  Cu
  H1       1.0000 0.93470  0.53690  0.90420  Biso   1.000  H
  H2       1.0000 0.87420  0.61870  0.01380  Biso   1.000  H
  H3       1.0000 0.77570  0.71640  0.90580  Biso   1.000  H
  H4       1.0000 0.96590  0.58590  0.84620  Biso   1.000  H
  H5       1.0000 0.83190  0.66090  0.72980  Biso   1.000  H
  H6       1.0000 0.71790  0.70220  0.76220  Biso   1.000  H
  H7       1.0000 0.72440  0.68430  0.83520  Biso   1.000  H
  H8       1.0000 0.07030  0.66090  0.84160  Biso   1.000  H
  H9       1.0000 0.09370  0.70450  0.80300  Biso   1.000  H
  H10      1.0000 0.16870  0.65660  0.83340  Biso   1.000  H
  H11      1.0000 0.05820  0.51330  0.83160  Biso   1.000  H
  H12      1.0000 0.15540  0.50800  0.82200  Biso   1.000  H
  H13      1.0000 0.07040  0.46990  0.78640  Biso   1.000  H
  H14      1.0000 0.11930  0.63480  0.73720  Biso   1.000  H
  H15      1.0000 0.10760  0.54390  0.72900  Biso   1.000  H
  H16      1.0000 0.19250  0.58180  0.76480  Biso   1.000  H
  H17      1.0000 0.92190  0.59480  0.53080  Biso   1.000  H
  H18      1.0000 0.02910  0.56540  0.65520  Biso   1.000  H
  H19      1.0000 0.78650  0.48240  0.60060  Biso   1.000  H
  H20      1.0000 0.85360  0.50750  0.47640  Biso   1.000  H
  H21      1.0000 0.59270  0.46390  0.41380  Biso   1.000  H
  H22      1.0000 0.55420  0.48920  0.48040  Biso   1.000  H
  H23      1.0000 0.66310  0.52300  0.54560  Biso   1.000  H
  H24      1.0000 0.60140  0.53880  0.36820  Biso   1.000  H
  H25      1.0000 0.68230  0.58170  0.35600  Biso   1.000  H
  H26      1.0000 0.60570  0.53800  0.31780  Biso   1.000  H
  H27      1.0000 0.79250  0.50990  0.32660  Biso   1.000  H
  H28      1.0000 0.79490  0.41880  0.32480  Biso   1.000  H
  H29      1.0000 0.71910  0.45900  0.29040  Biso   1.000  H
  H30      1.0000 0.60170  0.38970  0.36420  Biso   1.000  H
  H31      1.0000 0.60110  0.38740  0.31300  Biso   1.000  H
  H32      1.0000 0.67880  0.34660  0.34620  Biso   1.000  H
  H33      1.0000 0.98910  0.24760  0.68020  Biso   1.000  H
  H34      1.0000 0.68690  0.46060  0.75680  Biso   1.000  H
  H35      1.0000 0.90950  0.13080  0.36020  Biso   1.000  H
  H36      1.0000 0.83990  0.26610  0.52540  Biso   1.000  H
  H37      1.0000 0.19400  0.68420  0.02260  Biso   1.000  H
  H38      1.0000 0.53830  0.90350  0.94660  Biso   1.000  H
  H39      1.0000 0.03050  0.96310  0.09580  Biso   1.000  H
  H40      1.0000 0.86040  0.88130  0.98620  Biso   1.000  H
  H41      1.0000 0.86990  0.78360  0.09420  Biso   1.000  H
  H42      1.0000 0.11970  0.91410  0.15380  Biso   1.000  H
  H43      1.0000 0.10210  0.83910  0.27020  Biso   1.000  H
  H44      1.0000 0.95570  0.79780  0.23780  Biso   1.000  H
  H45      1.0000 0.88920  0.81570  0.16480  Biso   1.000  H
  H46      1.0000 0.22870  0.83910  0.15840  Biso   1.000  H
  H47      1.0000 0.29070  0.79550  0.19700  Biso   1.000  H
  H48      1.0000 0.33530  0.84340  0.16660  Biso   1.000  H
  H49      1.0000 0.22660  0.98670  0.16840  Biso   1.000  H
  H50      1.0000 0.33340  0.99200  0.17800  Biso   1.000  H
  H51      1.0000 0.28400  0.03010  0.21360  Biso   1.000  H
  H52      1.0000 0.38210  0.86520  0.26280  Biso   1.000  H
  H53      1.0000 0.37860  0.95610  0.27100  Biso   1.000  H
  H54      1.0000 0.42770  0.91820  0.23520  Biso   1.000  H
  H55      1.0000 0.39110  0.90520  0.46920  Biso   1.000  H
  H56      1.0000 0.37390  0.93460  0.34480  Biso   1.000  H
  H57      1.0000 0.18590  0.01760  0.39940  Biso   1.000  H
  H58      1.0000 0.37720  0.99250  0.52360  Biso   1.000  H
  H59      1.0000 0.17890  0.03610  0.58620  Biso   1.000  H
  H60      1.0000 0.07380  0.01080  0.51960  Biso   1.000  H
  H61      1.0000 0.11750  0.97700  0.45440  Biso   1.000  H
  H62      1.0000 0.23320  0.96120  0.63180  Biso   1.000  H
  H63      1.0000 0.32630  0.91830  0.64400  Biso   1.000  H
  H64      1.0000 0.28790  0.96200  0.68220  Biso   1.000  H
  H65      1.0000 0.46590  0.99010  0.67340  Biso   1.000  H
  H66      1.0000 0.47010  0.08120  0.67520  Biso   1.000  H
  H67      1.0000 0.42870  0.04100  0.70960  Biso   1.000  H
  H68      1.0000 0.23750  0.11030  0.63580  Biso   1.000  H
  H69      1.0000 0.28810  0.11260  0.68700  Biso   1.000  H
  H70      1.0000 0.33260  0.15340  0.65380  Biso   1.000  H
  H71      1.0000 0.30890  0.25240  0.31980  Biso   1.000  H
  H72      1.0000 0.93010  0.03940  0.24320  Biso   1.000  H
  H73      1.0000 0.54930  0.36920  0.63980  Biso   1.000  H
  H74      1.0000 0.31450  0.23390  0.47460  Biso   1.000  H
  H75      1.0000 0.17140  0.81580  0.97740  Biso   1.000  H
  H76      1.0000 0.59170  0.59650  0.05340  Biso   1.000  H
  H77      1.0000 0.06530  0.46310  0.09580  Biso   1.000  H
  H78      1.0000 0.12580  0.38130  0.98620  Biso   1.000  H
  H79      1.0000 0.22430  0.28360  0.09420  Biso   1.000  H
  H80      1.0000 0.03410  0.41410  0.15380  Biso   1.000  H
  H81      1.0000 0.16810  0.33910  0.27020  Biso   1.000  H
  H82      1.0000 0.28210  0.29780  0.23780  Biso   1.000  H
  H83      1.0000 0.27560  0.31570  0.16480  Biso   1.000  H
  H84      1.0000 0.92970  0.33910  0.15840  Biso   1.000  H
  H85      1.0000 0.90630  0.29550  0.19700  Biso   1.000  H
  H86      1.0000 0.83130  0.34340  0.16660  Biso   1.000  H
  H87      1.0000 0.94180  0.48670  0.16840  Biso   1.000  H
  H88      1.0000 0.84460  0.49200  0.17800  Biso   1.000  H
  H89      1.0000 0.92960  0.53010  0.21360  Biso   1.000  H
  H90      1.0000 0.88070  0.36520  0.26280  Biso   1.000  H
  H91      1.0000 0.89240  0.45610  0.27100  Biso   1.000  H
  H92      1.0000 0.80750  0.41820  0.23520  Biso   1.000  H
  H93      1.0000 0.07810  0.40520  0.46920  Biso   1.000  H
  H94      1.0000 0.97090  0.43460  0.34480  Biso   1.000  H
  H95      1.0000 0.21350  0.51760  0.39940  Biso   1.000  H
  H96      1.0000 0.14640  0.49250  0.52360  Biso   1.000  H
  H97      1.0000 0.40730  0.53610  0.58620  Biso   1.000  H
  H98      1.0000 0.44580  0.51080  0.51960  Biso   1.000  H
  H99      1.0000 0.33690  0.47700  0.45440  Biso   1.000  H
  H100     1.0000 0.39860  0.46120  0.63180  Biso   1.000  H
  H101     1.0000 0.31770  0.41830  0.64400  Biso   1.000  H
  H102     1.0000 0.39430  0.46200  0.68220  Biso   1.000  H
  H103     1.0000 0.20750  0.49010  0.67340  Biso   1.000  H
  H104     1.0000 0.20510  0.58120  0.67520  Biso   1.000  H
  H105     1.0000 0.28090  0.54100  0.70960  Biso   1.000  H
  H106     1.0000 0.39830  0.61030  0.63580  Biso   1.000  H
  H107     1.0000 0.39890  0.61260  0.68700  Biso   1.000  H
  H108     1.0000 0.32120  0.65340  0.65380  Biso   1.000  H
  H109     1.0000 0.01090  0.75240  0.31980  Biso   1.000  H
  H110     1.0000 0.31310  0.53940  0.24320  Biso   1.000  H
  H111     1.0000 0.09050  0.86920  0.63980  Biso   1.000  H
  H112     1.0000 0.16010  0.73390  0.47460  Biso   1.000  H
  H113     1.0000 0.80600  0.31580  0.97740  Biso   1.000  H
  H114     1.0000 0.46170  0.09650  0.05340  Biso   1.000  H
  H115     1.0000 0.96950  0.03690  0.90420  Biso   1.000  H
  H116     1.0000 0.13960  0.11870  0.01380  Biso   1.000  H
  H117     1.0000 0.13010  0.21640  0.90580  Biso   1.000  H
  H118     1.0000 0.88030  0.08590  0.84620  Biso   1.000  H
  H119     1.0000 0.89790  0.16090  0.72980  Biso   1.000  H
  H120     1.0000 0.04430  0.20220  0.76220  Biso   1.000  H
  H121     1.0000 0.11080  0.18430  0.83520  Biso   1.000  H
  H122     1.0000 0.77130  0.16090  0.84160  Biso   1.000  H
  H123     1.0000 0.70930  0.20450  0.80300  Biso   1.000  H
  H124     1.0000 0.66470  0.15660  0.83340  Biso   1.000  H
  H125     1.0000 0.77340  0.01330  0.83160  Biso   1.000  H
  H126     1.0000 0.66660  0.00800  0.82200  Biso   1.000  H
  H127     1.0000 0.71600  0.96990  0.78640  Biso   1.000  H
  H128     1.0000 0.61790  0.13480  0.73720  Biso   1.000  H
  H129     1.0000 0.62140  0.04390  0.72900  Biso   1.000  H
  H130     1.0000 0.57230  0.08180  0.76480  Biso   1.000  H
  H131     1.0000 0.60890  0.09480  0.53080  Biso   1.000  H
  H132     1.0000 0.62610  0.06540  0.65520  Biso   1.000  H
  H133     1.0000 0.81410  0.98240  0.60060  Biso   1.000  H
  H134     1.0000 0.62280  0.00750  0.47640  Biso   1.000  H
  H135     1.0000 0.82110  0.96390  0.41380  Biso   1.000  H
  H136     1.0000 0.92620  0.98920  0.48040  Biso   1.000  H
  H137     1.0000 0.88250  0.02300  0.54560  Biso   1.000  H
  H138     1.0000 0.76680  0.03880  0.36820  Biso   1.000  H
  H139     1.0000 0.67370  0.08170  0.35600  Biso   1.000  H
  H140     1.0000 0.71210  0.03800  0.31780  Biso   1.000  H
  H141     1.0000 0.53410  0.00990  0.32660  Biso   1.000  H
  H142     1.0000 0.52990  0.91880  0.32480  Biso   1.000  H
  H143     1.0000 0.57130  0.95900  0.29040  Biso   1.000  H
  H144     1.0000 0.76250  0.88970  0.36420  Biso   1.000  H
  H145     1.0000 0.71190  0.88740  0.31300  Biso   1.000  H
  H146     1.0000 0.66740  0.84660  0.34620  Biso   1.000  H
  H147     1.0000 0.69110  0.74760  0.68020  Biso   1.000  H
  H148     1.0000 0.06990  0.96060  0.75680  Biso   1.000  H
  H149     1.0000 0.45070  0.63080  0.36020  Biso   1.000  H
  H150     1.0000 0.68550  0.76610  0.52540  Biso   1.000  H
  H151     1.0000 0.82860  0.18420  0.02260  Biso   1.000  H
  H152     1.0000 0.40830  0.40350  0.94660  Biso   1.000  H
  C1       1.0000 0.90499  0.57350  0.91938  Biso   1.000  C
  C2       1.0000 0.86906  0.62140  0.98312  Biso   1.000  C
  C3       1.0000 0.81111  0.67790  0.92042  Biso   1.000  C
  C4       1.0000 0.85406  0.62720  0.89612  Biso   1.000  C
  C5       1.0000 0.84676  0.63440  0.84852  Biso   1.000  C
  C6       1.0000 0.91531  0.60940  0.82922  Biso   1.000  C
  C7       1.0000 0.90991  0.61870  0.78502  Biso   1.000  C
  C8       1.0000 0.83566  0.65390  0.75992  Biso   1.000  C
  C9       1.0000 0.76817  0.67810  0.77914  Biso   1.000  C
  C10      1.0000 0.77226  0.66820  0.82272  Biso   1.000  C
  C11      1.0000 0.07640  0.58770  0.78680  Biso   1.000  C
  C12      1.0000 0.10486  0.65880  0.81912  Biso   1.000  C
  C13      1.0000 0.09146  0.51300  0.80872  Biso   1.000  C
  C14      1.0000 0.12864  0.58700  0.75128  Biso   1.000  C
  C15      1.0000 0.91837  0.57416  0.55734  Biso   1.000  C
  C16      1.0000 0.97986  0.55810  0.63012  Biso   1.000  C
  C17      1.0000 0.83829  0.50935  0.59838  Biso   1.000  C
  C18      1.0000 0.84117  0.53443  0.55814  Biso   1.000  C
  C19      1.0000 0.76930  0.51693  0.51740  Biso   1.000  C
  C20      1.0000 0.79274  0.50319  0.47728  Biso   1.000  C
  C21      1.0000 0.72732  0.48320  0.43844  Biso   1.000  C
  C22      1.0000 0.63765  0.47780  0.43990  Biso   1.000  C
  C23      1.0000 0.61522  0.49260  0.47964  Biso   1.000  C
  C24      1.0000 0.67985  0.51250  0.51850  Biso   1.000  C
  C25      1.0000 0.69536  0.46410  0.35252  Biso   1.000  C
  C26      1.0000 0.64134  0.53720  0.34828  Biso   1.000  C
  C27      1.0000 0.75586  0.46280  0.32072  Biso   1.000  C
  C28      1.0000 0.63929  0.39030  0.34318  Biso   1.000  C
  C29      1.0000 0.81794  0.25040  0.64348  Biso   1.000  C
  C30      1.0000 0.88420  0.31650  0.66200  Biso   1.000  C
  C31      1.0000 0.97339  0.29970  0.67878  Biso   1.000  C
  C32      1.0000 0.04122  0.35610  0.69364  Biso   1.000  C
  C33      1.0000 0.13743  0.32950  0.70606  Biso   1.000  C
  C34      1.0000 0.61906  0.54560  0.69252  Biso   1.000  C
  C35      1.0000 0.71205  0.51020  0.70450  Biso   1.000  C
  C36      1.0000 0.73272  0.46890  0.74224  Biso   1.000  C
  C37      1.0000 0.81618  0.44030  0.75876  Biso   1.000  C
  C38      1.0000 0.82943  0.39600  0.79926  Biso   1.000  C
  C39      1.0000 0.01304  0.14690  0.44048  Biso   1.000  C
  C40      1.0000 0.96303  0.20640  0.41186  Biso   1.000  C
  C41      1.0000 0.91480  0.18380  0.36960  Biso   1.000  C
  C42      1.0000 0.87334  0.23520  0.33988  Biso   1.000  C
  C43      1.0000 0.82849  0.20330  0.29278  Biso   1.000  C
  C44      1.0000 0.99350  0.33840  0.55980  Biso   1.000  C
  C45      1.0000 0.92855  0.34360  0.51450  Biso   1.000  C
  C46      1.0000 0.85143  0.29570  0.50346  Biso   1.000  C
  C47      1.0000 0.79193  0.28970  0.46266  Biso   1.000  C
  C48      1.0000 0.70802  0.23970  0.45544  Biso   1.000  C
  C49      1.0000 0.20816  0.59540  0.95392  Biso   1.000  C
  C50      1.0000 0.14591  0.58850  0.98402  Biso   1.000  C
  C51      1.0000 0.15200  0.64330  0.01920  Biso   1.000  C
  C52      1.0000 0.10023  0.64240  0.05006  Biso   1.000  C
  C53      1.0000 0.11774  0.70940  0.08608  Biso   1.000  C
  C54      1.0000 0.64187  0.87530  0.89194  Biso   1.000  C
  C55      1.0000 0.64898  0.85150  0.93836  Biso   1.000  C
  C56      1.0000 0.58700  0.87440  0.96080  Biso   1.000  C
  C57      1.0000 0.59222  0.85640  0.00404  Biso   1.000  C
  C58      1.0000 0.51044  0.88350  0.02288  Biso   1.000  C
  C59      1.0000 0.98561  0.92650  0.08062  Biso   1.000  C
  C60      1.0000 0.88594  0.87860  0.01688  Biso   1.000  C
  C61      1.0000 0.89069  0.82210  0.07958  Biso   1.000  C
  C62      1.0000 0.95794  0.87280  0.10388  Biso   1.000  C
  C63      1.0000 0.99824  0.86560  0.15148  Biso   1.000  C
  C64      1.0000 0.08609  0.89060  0.17078  Biso   1.000  C
  C65      1.0000 0.12489  0.88130  0.21498  Biso   1.000  C
  C66      1.0000 0.07574  0.84610  0.24008  Biso   1.000  C
  C67      1.0000 0.98903  0.82190  0.22086  Biso   1.000  C
  C68      1.0000 0.94954  0.83180  0.17728  Biso   1.000  C
  C69      1.0000 0.28960  0.91230  0.21320  Biso   1.000  C
  C70      1.0000 0.28574  0.84120  0.18088  Biso   1.000  C
  C71      1.0000 0.28274  0.98700  0.19128  Biso   1.000  C
  C72      1.0000 0.37736  0.91300  0.24872  Biso   1.000  C
  C73      1.0000 0.36103  0.92584  0.44266  Biso   1.000  C
  C74      1.0000 0.34974  0.94190  0.36988  Biso   1.000  C
  C75      1.0000 0.23991  0.99065  0.40162  Biso   1.000  C
  C76      1.0000 0.28303  0.96557  0.44186  Biso   1.000  C
  C77      1.0000 0.25190  0.98307  0.48260  Biso   1.000  C
  C78      1.0000 0.31546  0.99681  0.52272  Biso   1.000  C
  C79      1.0000 0.28888  0.01680  0.56156  Biso   1.000  C
  C80      1.0000 0.19775  0.02220  0.56010  Biso   1.000  C
  C81      1.0000 0.13558  0.00740  0.52036  Biso   1.000  C
  C82      1.0000 0.16135  0.98750  0.48150  Biso   1.000  C
  C83      1.0000 0.34284  0.03590  0.64748  Biso   1.000  C
  C84      1.0000 0.29306  0.96280  0.65172  Biso   1.000  C
  C85      1.0000 0.43514  0.03720  0.67928  Biso   1.000  C
  C86      1.0000 0.29611  0.10970  0.65682  Biso   1.000  C
  C87      1.0000 0.17446  0.24960  0.35652  Biso   1.000  C
  C88      1.0000 0.22220  0.18350  0.33800  Biso   1.000  C
  C89      1.0000 0.29461  0.20030  0.32122  Biso   1.000  C
  C90      1.0000 0.34758  0.14390  0.30636  Biso   1.000  C
  C91      1.0000 0.43137  0.17050  0.29394  Biso   1.000  C
  C92      1.0000 0.92654  0.95440  0.30748  Biso   1.000  C
  C93      1.0000 0.00755  0.98980  0.29550  Biso   1.000  C
  C94      1.0000 0.99048  0.03110  0.25776  Biso   1.000  C
  C95      1.0000 0.05742  0.05970  0.24124  Biso   1.000  C
  C96      1.0000 0.03017  0.10400  0.20074  Biso   1.000  C
  C97      1.0000 0.57256  0.35310  0.55952  Biso   1.000  C
  C98      1.0000 0.55117  0.29360  0.58814  Biso   1.000  C
  C99      1.0000 0.54520  0.31620  0.63040  Biso   1.000  C
  C100     1.0000 0.53346  0.26480  0.66012  Biso   1.000  C
  C101     1.0000 0.53571  0.29670  0.70722  Biso   1.000  C
  C102     1.0000 0.43370  0.16160  0.44020  Biso   1.000  C
  C103     1.0000 0.41405  0.15640  0.48550  Biso   1.000  C
  C104     1.0000 0.34797  0.20430  0.49654  Biso   1.000  C
  C105     1.0000 0.32927  0.21030  0.53734  Biso   1.000  C
  C106     1.0000 0.25258  0.26030  0.54456  Biso   1.000  C
  C107     1.0000 0.25424  0.90460  0.04608  Biso   1.000  C
  C108     1.0000 0.16189  0.91150  0.01598  Biso   1.000  C
  C109     1.0000 0.13280  0.85670  0.98080  Biso   1.000  C
  C110     1.0000 0.05017  0.85760  0.94994  Biso   1.000  C
  C111     1.0000 0.03166  0.79060  0.91392  Biso   1.000  C
  C112     1.0000 0.74993  0.62470  0.10806  Biso   1.000  C
  C113     1.0000 0.71062  0.64850  0.06164  Biso   1.000  C
  C114     1.0000 0.62620  0.62560  0.03920  Biso   1.000  C
  C115     1.0000 0.58818  0.64360  0.99596  Biso   1.000  C
  C116     1.0000 0.48756  0.61650  0.97712  Biso   1.000  C
  C117     1.0000 0.09501  0.42650  0.08062  Biso   1.000  C
  C118     1.0000 0.13094  0.37860  0.01688  Biso   1.000  C
  C119     1.0000 0.18889  0.32210  0.07958  Biso   1.000  C
  C120     1.0000 0.14594  0.37280  0.10388  Biso   1.000  C
  C121     1.0000 0.15324  0.36560  0.15148  Biso   1.000  C
  C122     1.0000 0.08469  0.39060  0.17078  Biso   1.000  C
  C123     1.0000 0.09009  0.38130  0.21498  Biso   1.000  C
  C124     1.0000 0.16434  0.34610  0.24008  Biso   1.000  C
  C125     1.0000 0.23183  0.32190  0.22086  Biso   1.000  C
  C126     1.0000 0.22774  0.33180  0.17728  Biso   1.000  C
  C127     1.0000 0.92360  0.41230  0.21320  Biso   1.000  C
  C128     1.0000 0.89514  0.34120  0.18088  Biso   1.000  C
  C129     1.0000 0.90854  0.48700  0.19128  Biso   1.000  C
  C130     1.0000 0.87136  0.41300  0.24872  Biso   1.000  C
  C131     1.0000 0.08163  0.42584  0.44266  Biso   1.000  C
  C132     1.0000 0.02014  0.44190  0.36988  Biso   1.000  C
  C133     1.0000 0.16171  0.49065  0.40162  Biso   1.000  C
  C134     1.0000 0.15883  0.46557  0.44186  Biso   1.000  C
  C135     1.0000 0.23070  0.48307  0.48260  Biso   1.000  C
  C136     1.0000 0.20726  0.49681  0.52272  Biso   1.000  C
  C137     1.0000 0.27268  0.51680  0.56156  Biso   1.000  C
  C138     1.0000 0.36235  0.52220  0.56010  Biso   1.000  C
  C139     1.0000 0.38478  0.50740  0.52036  Biso   1.000  C
  C140     1.0000 0.32015  0.48750  0.48150  Biso   1.000  C
  C141     1.0000 0.30464  0.53590  0.64748  Biso   1.000  C
  C142     1.0000 0.35866  0.46280  0.65172  Biso   1.000  C
  C143     1.0000 0.24414  0.53720  0.67928  Biso   1.000  C
  C144     1.0000 0.36071  0.60970  0.65682  Biso   1.000  C
  C145     1.0000 0.18206  0.74960  0.35652  Biso   1.000  C
  C146     1.0000 0.11580  0.68350  0.33800  Biso   1.000  C
  C147     1.0000 0.02661  0.70030  0.32122  Biso   1.000  C
  C148     1.0000 0.95878  0.64390  0.30636  Biso   1.000  C
  C149     1.0000 0.86257  0.67050  0.29394  Biso   1.000  C
  C150     1.0000 0.38094  0.45440  0.30748  Biso   1.000  C
  C151     1.0000 0.28795  0.48980  0.29550  Biso   1.000  C
  C152     1.0000 0.26728  0.53110  0.25776  Biso   1.000  C
  C153     1.0000 0.18382  0.55970  0.24124  Biso   1.000  C
  C154     1.0000 0.17057  0.60400  0.20074  Biso   1.000  C
  C155     1.0000 0.98696  0.85310  0.55952  Biso   1.000  C
  C156     1.0000 0.03697  0.79360  0.58814  Biso   1.000  C
  C157     1.0000 0.08520  0.81620  0.63040  Biso   1.000  C
  C158     1.0000 0.12666  0.76480  0.66012  Biso   1.000  C
  C159     1.0000 0.17151  0.79670  0.70722  Biso   1.000  C
  C160     1.0000 0.00650  0.66160  0.44020  Biso   1.000  C
  C161     1.0000 0.07145  0.65640  0.48550  Biso   1.000  C
  C162     1.0000 0.14857  0.70430  0.49654  Biso   1.000  C
  C163     1.0000 0.20807  0.71030  0.53734  Biso   1.000  C
  C164     1.0000 0.29198  0.76030  0.54456  Biso   1.000  C
  C165     1.0000 0.79184  0.40460  0.04608  Biso   1.000  C
  C166     1.0000 0.85409  0.41150  0.01598  Biso   1.000  C
  C167     1.0000 0.84800  0.35670  0.98080  Biso   1.000  C
  C168     1.0000 0.89977  0.35760  0.94994  Biso   1.000  C
  C169     1.0000 0.88226  0.29060  0.91392  Biso   1.000  C
  C170     1.0000 0.35813  0.12470  0.10806  Biso   1.000  C
  C171     1.0000 0.35102  0.14850  0.06164  Biso   1.000  C
  C172     1.0000 0.41300  0.12560  0.03920  Biso   1.000  C
  C173     1.0000 0.40778  0.14360  0.99596  Biso   1.000  C
  C174     1.0000 0.48956  0.11650  0.97712  Biso   1.000  C
  C175     1.0000 0.01439  0.07350  0.91938  Biso   1.000  C
  C176     1.0000 0.11406  0.12140  0.98312  Biso   1.000  C
  C177     1.0000 0.10931  0.17790  0.92042  Biso   1.000  C
  C178     1.0000 0.04206  0.12720  0.89612  Biso   1.000  C
  C179     1.0000 0.00176  0.13440  0.84852  Biso   1.000  C
  C180     1.0000 0.91391  0.10940  0.82922  Biso   1.000  C
  C181     1.0000 0.87511  0.11870  0.78502  Biso   1.000  C
  C182     1.0000 0.92426  0.15390  0.75992  Biso   1.000  C
  C183     1.0000 0.01097  0.17810  0.77914  Biso   1.000  C
  C184     1.0000 0.05046  0.16820  0.82272  Biso   1.000  C
  C185     1.0000 0.71040  0.08770  0.78680  Biso   1.000  C
  C186     1.0000 0.71426  0.15880  0.81912  Biso   1.000  C
  C187     1.0000 0.71726  0.01300  0.80872  Biso   1.000  C
  C188     1.0000 0.62264  0.08700  0.75128  Biso   1.000  C
  C189     1.0000 0.63897  0.07416  0.55734  Biso   1.000  C
  C190     1.0000 0.65026  0.05810  0.63012  Biso   1.000  C
  C191     1.0000 0.76009  0.00935  0.59838  Biso   1.000  C
  C192     1.0000 0.71697  0.03443  0.55814  Biso   1.000  C
  C193     1.0000 0.74810  0.01693  0.51740  Biso   1.000  C
  C194     1.0000 0.68454  0.00319  0.47728  Biso   1.000  C
  C195     1.0000 0.71112  0.98320  0.43844  Biso   1.000  C
  C196     1.0000 0.80225  0.97780  0.43990  Biso   1.000  C
  C197     1.0000 0.86442  0.99260  0.47964  Biso   1.000  C
  C198     1.0000 0.83865  0.01250  0.51850  Biso   1.000  C
  C199     1.0000 0.65716  0.96410  0.35252  Biso   1.000  C
  C200     1.0000 0.70694  0.03720  0.34828  Biso   1.000  C
  C201     1.0000 0.56486  0.96280  0.32072  Biso   1.000  C
  C202     1.0000 0.70389  0.89030  0.34318  Biso   1.000  C
  C203     1.0000 0.82554  0.75040  0.64348  Biso   1.000  C
  C204     1.0000 0.77780  0.81650  0.66200  Biso   1.000  C
  C205     1.0000 0.70539  0.79970  0.67878  Biso   1.000  C
  C206     1.0000 0.65242  0.85610  0.69364  Biso   1.000  C
  C207     1.0000 0.56863  0.82950  0.70606  Biso   1.000  C
  C208     1.0000 0.07346  0.04560  0.69252  Biso   1.000  C
  C209     1.0000 0.99245  0.01020  0.70450  Biso   1.000  C
  C210     1.0000 0.00952  0.96890  0.74224  Biso   1.000  C
  C211     1.0000 0.94258  0.94030  0.75876  Biso   1.000  C
  C212     1.0000 0.96983  0.89600  0.79926  Biso   1.000  C
  C213     1.0000 0.42744  0.64690  0.44048  Biso   1.000  C
  C214     1.0000 0.44883  0.70640  0.41186  Biso   1.000  C
  C215     1.0000 0.45480  0.68380  0.36960  Biso   1.000  C
  C216     1.0000 0.46654  0.73520  0.33988  Biso   1.000  C
  C217     1.0000 0.46429  0.70330  0.29278  Biso   1.000  C
  C218     1.0000 0.56630  0.83840  0.55980  Biso   1.000  C
  C219     1.0000 0.58595  0.84360  0.51450  Biso   1.000  C
  C220     1.0000 0.65203  0.79570  0.50346  Biso   1.000  C
  C221     1.0000 0.67073  0.78970  0.46266  Biso   1.000  C
  C222     1.0000 0.74742  0.73970  0.45544  Biso   1.000  C
  C223     1.0000 0.74576  0.09540  0.95392  Biso   1.000  C
  C224     1.0000 0.83811  0.08850  0.98402  Biso   1.000  C
  C225     1.0000 0.86720  0.14330  0.01920  Biso   1.000  C
  C226     1.0000 0.94983  0.14240  0.05006  Biso   1.000  C
  C227     1.0000 0.96834  0.20940  0.08608  Biso   1.000  C
  C228     1.0000 0.25007  0.37530  0.89194  Biso   1.000  C
  C229     1.0000 0.28938  0.35150  0.93836  Biso   1.000  C
  C230     1.0000 0.37380  0.37440  0.96080  Biso   1.000  C
  C231     1.0000 0.41182  0.35640  0.00404  Biso   1.000  C
  C232     1.0000 0.51244  0.38350  0.02288  Biso   1.000  C
  N1       1.0000 0.91413  0.57118  0.96306  Biso   1.000  N
  N2       1.0000 0.81778  0.67457  0.96356  Biso   1.000  N
  N3       1.0000 0.97815  0.59380  0.76410  Biso   1.000  N
  N4       1.0000 0.98801  0.58436  0.59258  Biso   1.000  N
  N5       1.0000 0.90672  0.52222  0.63424  Biso   1.000  N
  N6       1.0000 0.75589  0.46796  0.39904  Biso   1.000  N
  N7       1.0000 0.95107  0.92882  0.03694  Biso   1.000  N
  N8       1.0000 0.85422  0.82543  0.03644  Biso   1.000  N
  N9       1.0000 0.21405  0.90620  0.23590  Biso   1.000  N
  N10      1.0000 0.39543  0.91564  0.40742  Biso   1.000  N
  N11      1.0000 0.27248  0.97778  0.36576  Biso   1.000  N
  N12      1.0000 0.35685  0.03204  0.60096  Biso   1.000  N
  N13      1.0000 0.08587  0.42882  0.03694  Biso   1.000  N
  N14      1.0000 0.18222  0.32543  0.03644  Biso   1.000  N
  N15      1.0000 0.02185  0.40620  0.23590  Biso   1.000  N
  N16      1.0000 0.01199  0.41564  0.40742  Biso   1.000  N
  N17      1.0000 0.09328  0.47778  0.36576  Biso   1.000  N
  N18      1.0000 0.24411  0.53204  0.60096  Biso   1.000  N
  N19      1.0000 0.04893  0.07118  0.96306  Biso   1.000  N
  N20      1.0000 0.14578  0.17457  0.96356  Biso   1.000  N
  N21      1.0000 0.78595  0.09380  0.76410  Biso   1.000  N
  N22      1.0000 0.60457  0.08436  0.59258  Biso   1.000  N
  N23      1.0000 0.72752  0.02222  0.63424  Biso   1.000  N
  N24      1.0000 0.64315  0.96796  0.39904  Biso   1.000  N
  O1       1.0000 0.95411  0.58033  0.72154  Biso   1.000  O
  O2       1.0000 0.84097  0.46014  0.40312  Biso   1.000  O
  O3       1.0000 0.84762  0.38082  0.65906  Biso   1.000  O
  O4       1.0000 0.03346  0.42640  0.69688  Biso   1.000  O
  O5       1.0000 0.75924  0.52231  0.67926  Biso   1.000  O
  O6       1.0000 0.88751  0.44512  0.74594  Biso   1.000  O
  O7       1.0000 0.97339  0.27277  0.43210  Biso   1.000  O
  O8       1.0000 0.86959  0.30593  0.34648  Biso   1.000  O
  O9       1.0000 0.94992  0.39215  0.49230  Biso   1.000  O
  O10      1.0000 0.79578  0.32014  0.42774  Biso   1.000  O
  O11      1.0000 0.09454  0.53019  0.97254  Biso   1.000  O
  O12      1.0000 0.04249  0.59540  0.05228  Biso   1.000  O
  O13      1.0000 0.71709  0.81086  0.95058  Biso   1.000  O
  O14      1.0000 0.65063  0.81960  0.02746  Biso   1.000  O
  O15      1.0000 0.23257  0.91967  0.27846  Biso   1.000  O
  O16      1.0000 0.43785  0.03986  0.59688  Biso   1.000  O
  O17      1.0000 0.18856  0.11918  0.34094  Biso   1.000  O
  O18      1.0000 0.33658  0.07360  0.30312  Biso   1.000  O
  O19      1.0000 0.07998  0.97769  0.32074  Biso   1.000  O
  O20      1.0000 0.14157  0.05488  0.25406  Biso   1.000  O
  O21      1.0000 0.54129  0.22723  0.56790  Biso   1.000  O
  O22      1.0000 0.52311  0.19407  0.65352  Biso   1.000  O
  O23      1.0000 0.45762  0.10785  0.50770  Biso   1.000  O
  O24      1.0000 0.36804  0.17986  0.57226  Biso   1.000  O
  O25      1.0000 0.12200  0.96981  0.02746  Biso   1.000  O
  O26      1.0000 0.99021  0.90460  0.94772  Biso   1.000  O
  O27      1.0000 0.76651  0.68914  0.04942  Biso   1.000  O
  O28      1.0000 0.62317  0.68040  0.97254  Biso   1.000  O
  O29      1.0000 0.04589  0.41967  0.27846  Biso   1.000  O
  O30      1.0000 0.15903  0.53986  0.59688  Biso   1.000  O
  O31      1.0000 0.15238  0.61918  0.34094  Biso   1.000  O
  O32      1.0000 0.96654  0.57360  0.30312  Biso   1.000  O
  O33      1.0000 0.24076  0.47769  0.32074  Biso   1.000  O
  O34      1.0000 0.11249  0.55488  0.25406  Biso   1.000  O
  O35      1.0000 0.02661  0.72723  0.56790  Biso   1.000  O
  O36      1.0000 0.13041  0.69407  0.65352  Biso   1.000  O
  O37      1.0000 0.05008  0.60785  0.50770  Biso   1.000  O
  O38      1.0000 0.20422  0.67986  0.57226  Biso   1.000  O
  O39      1.0000 0.90546  0.46981  0.02746  Biso   1.000  O
  O40      1.0000 0.95751  0.40460  0.94772  Biso   1.000  O
  O41      1.0000 0.28291  0.18914  0.04942  Biso   1.000  O
  O42      1.0000 0.34937  0.18040  0.97254  Biso   1.000  O
  O43      1.0000 0.76743  0.08033  0.72154  Biso   1.000  O
  O44      1.0000 0.56215  0.96014  0.40312  Biso   1.000  O
  O45      1.0000 0.81144  0.88082  0.65906  Biso   1.000  O
  O46      1.0000 0.66342  0.92640  0.69688  Biso   1.000  O
  O47      1.0000 0.92002  0.02231  0.67926  Biso   1.000  O
  O48      1.0000 0.85843  0.94512  0.74594  Biso   1.000  O
  O49      1.0000 0.45871  0.77277  0.43210  Biso   1.000  O
  O50      1.0000 0.47689  0.80593  0.34648  Biso   1.000  O
  O51      1.0000 0.54238  0.89215  0.49230  Biso   1.000  O
  O52      1.0000 0.63196  0.82014  0.42774  Biso   1.000  O
  O53      1.0000 0.87800  0.03019  0.97254  Biso   1.000  O
  O54      1.0000 0.00979  0.09540  0.05228  Biso   1.000  O
  O55      1.0000 0.23349  0.31086  0.95058  Biso   1.000  O
  O56      1.0000 0.37683  0.31960  0.02746  Biso   1.000  O
  F1       1.0000 0.78852  0.25220  0.59804  Biso   1.000  F
  F2       1.0000 0.84928  0.18240  0.64976  Biso   1.000  F
  F3       1.0000 0.74827  0.25070  0.65834  Biso   1.000  F
  F4       1.0000 0.14667  0.25970  0.71834  Biso   1.000  F
  F5       1.0000 0.19221  0.37930  0.73442  Biso   1.000  F
  F6       1.0000 0.16891  0.32830  0.66682  Biso   1.000  F
  F7       1.0000 0.62484  0.61760  0.67908  Biso   1.000  F
  F8       1.0000 0.56436  0.50690  0.66132  Biso   1.000  F
  F9       1.0000 0.57275  0.53600  0.72510  Biso   1.000  F
  F10      1.0000 0.82883  0.32780  0.79186  Biso   1.000  F
  F11      1.0000 0.77366  0.41010  0.82432  Biso   1.000  F
  F12      1.0000 0.91426  0.41700  0.82932  Biso   1.000  F
  F13      1.0000 0.98662  0.15040  0.48044  Biso   1.000  F
  F14      1.0000 0.99168  0.07350  0.42296  Biso   1.000  F
  F15      1.0000 0.10246  0.15820  0.45072  Biso   1.000  F
  F16      1.0000 0.82352  0.12370  0.29044  Biso   1.000  F
  F17      1.0000 0.75280  0.23750  0.27640  Biso   1.000  F
  F18      1.0000 0.69395  0.21600  0.49290  Biso   1.000  F
  F19      1.0000 0.63530  0.27260  0.43580  Biso   1.000  F
  F20      1.0000 0.71857  0.17530  0.42934  Biso   1.000  F
  F21      1.0000 0.97969  0.39260  0.59058  Biso   1.000  F
  F22      1.0000 0.07566  0.34840  0.55792  Biso   1.000  F
  F23      1.0000 0.00696  0.27010  0.57272  Biso   1.000  F
  F24      1.0000 0.27189  0.55080  0.96038  Biso   1.000  F
  F25      1.0000 0.24327  0.66900  0.95754  Biso   1.000  F
  F26      1.0000 0.16526  0.57700  0.91072  Biso   1.000  F
  F27      1.0000 0.12066  0.77680  0.07312  Biso   1.000  F
  F28      1.0000 0.04794  0.70690  0.11068  Biso   1.000  F
  F29      1.0000 0.18925  0.70050  0.11670  Biso   1.000  F
  F30      1.0000 0.58504  0.93360  0.88228  Biso   1.000  F
  F31      1.0000 0.70943  0.89840  0.88446  Biso   1.000  F
  F32      1.0000 0.61482  0.80710  0.86424  Biso   1.000  F
  F33      1.0000 0.43197  0.88630  0.99074  Biso   1.000  F
  F34      1.0000 0.50660  0.84750  0.05600  Biso   1.000  F
  F35      1.0000 0.54270  0.95060  0.05140  Biso   1.000  F
  F36      1.0000 0.19048  0.24780  0.40196  Biso   1.000  F
  F37      1.0000 0.19952  0.31760  0.35024  Biso   1.000  F
  F38      1.0000 0.08993  0.24930  0.34166  Biso   1.000  F
  F39      1.0000 0.42833  0.24030  0.28166  Biso   1.000  F
  F40      1.0000 0.45779  0.12070  0.26558  Biso   1.000  F
  F41      1.0000 0.50209  0.17170  0.33318  Biso   1.000  F
  F42      1.0000 0.94576  0.88240  0.32092  Biso   1.000  F
  F43      1.0000 0.90304  0.99310  0.33868  Biso   1.000  F
  F44      1.0000 0.84765  0.96400  0.27490  Biso   1.000  F
  F45      1.0000 0.03697  0.17220  0.20814  Biso   1.000  F
  F46      1.0000 0.94934  0.08990  0.17568  Biso   1.000  F
  F47      1.0000 0.08494  0.08300  0.17068  Biso   1.000  F
  F48      1.0000 0.50618  0.34960  0.51956  Biso   1.000  F
  F49      1.0000 0.56872  0.42650  0.57704  Biso   1.000  F
  F50      1.0000 0.65174  0.34180  0.54928  Biso   1.000  F
  F51      1.0000 0.53308  0.37630  0.70956  Biso   1.000  F
  F52      1.0000 0.47640  0.26250  0.72360  Biso   1.000  F
  F53      1.0000 0.20105  0.28400  0.50710  Biso   1.000  F
  F54      1.0000 0.19950  0.22740  0.56420  Biso   1.000  F
  F55      1.0000 0.28923  0.32470  0.57066  Biso   1.000  F
  F56      1.0000 0.38911  0.10740  0.40942  Biso   1.000  F
  F57      1.0000 0.51774  0.15160  0.44208  Biso   1.000  F
  F58      1.0000 0.43424  0.22990  0.42728  Biso   1.000  F
  F59      1.0000 0.31151  0.94920  0.03962  Biso   1.000  F
  F60      1.0000 0.28573  0.83100  0.04246  Biso   1.000  F
  F61      1.0000 0.25454  0.92300  0.08928  Biso   1.000  F
  F62      1.0000 0.04754  0.72320  0.92688  Biso   1.000  F
  F63      1.0000 0.93726  0.79310  0.88932  Biso   1.000  F
  F64      1.0000 0.07255  0.79950  0.88330  Biso   1.000  F
  F65      1.0000 0.70276  0.56640  0.11772  Biso   1.000  F
  F66      1.0000 0.82497  0.60160  0.11554  Biso   1.000  F
  F67      1.0000 0.75058  0.69290  0.13576  Biso   1.000  F
  F68      1.0000 0.44123  0.61370  0.00926  Biso   1.000  F
  F69      1.0000 0.45060  0.65250  0.94400  Biso   1.000  F
  F70      1.0000 0.49130  0.54940  0.94860  Biso   1.000  F
  F71      1.0000 0.21148  0.74780  0.40196  Biso   1.000  F
  F72      1.0000 0.15072  0.81760  0.35024  Biso   1.000  F
  F73      1.0000 0.25173  0.74930  0.34166  Biso   1.000  F
  F74      1.0000 0.85333  0.74030  0.28166  Biso   1.000  F
  F75      1.0000 0.80779  0.62070  0.26558  Biso   1.000  F
  F76      1.0000 0.83109  0.67170  0.33318  Biso   1.000  F
  F77      1.0000 0.37516  0.38240  0.32092  Biso   1.000  F
  F78      1.0000 0.43564  0.49310  0.33868  Biso   1.000  F
  F79      1.0000 0.42725  0.46400  0.27490  Biso   1.000  F
  F80      1.0000 0.17117  0.67220  0.20814  Biso   1.000  F
  F81      1.0000 0.22634  0.58990  0.17568  Biso   1.000  F
  F82      1.0000 0.08574  0.58300  0.17068  Biso   1.000  F
  F83      1.0000 0.01338  0.84960  0.51956  Biso   1.000  F
  F84      1.0000 0.00832  0.92650  0.57704  Biso   1.000  F
  F85      1.0000 0.89754  0.84180  0.54928  Biso   1.000  F
  F86      1.0000 0.17648  0.87630  0.70956  Biso   1.000  F
  F87      1.0000 0.24720  0.76250  0.72360  Biso   1.000  F
  F88      1.0000 0.30605  0.78400  0.50710  Biso   1.000  F
  F89      1.0000 0.36470  0.72740  0.56420  Biso   1.000  F
  F90      1.0000 0.28143  0.82470  0.57066  Biso   1.000  F
  F91      1.0000 0.02031  0.60740  0.40942  Biso   1.000  F
  F92      1.0000 0.92434  0.65160  0.44208  Biso   1.000  F
  F93      1.0000 0.99304  0.72990  0.42728  Biso   1.000  F
  F94      1.0000 0.72811  0.44920  0.03962  Biso   1.000  F
  F95      1.0000 0.75673  0.33100  0.04246  Biso   1.000  F
  F96      1.0000 0.83474  0.42300  0.08928  Biso   1.000  F
  F97      1.0000 0.87934  0.22320  0.92688  Biso   1.000  F
  F98      1.0000 0.95206  0.29310  0.88932  Biso   1.000  F
  F99      1.0000 0.81075  0.29950  0.88330  Biso   1.000  F
  F100     1.0000 0.41496  0.06640  0.11772  Biso   1.000  F
  F101     1.0000 0.29057  0.10160  0.11554  Biso   1.000  F
  F102     1.0000 0.38518  0.19290  0.13576  Biso   1.000  F
  F103     1.0000 0.56803  0.11370  0.00926  Biso   1.000  F
  F104     1.0000 0.49340  0.15250  0.94400  Biso   1.000  F
  F105     1.0000 0.45730  0.04940  0.94860  Biso   1.000  F
  F106     1.0000 0.80952  0.75220  0.59804  Biso   1.000  F
  F107     1.0000 0.80048  0.68240  0.64976  Biso   1.000  F
  F108     1.0000 0.91007  0.75070  0.65834  Biso   1.000  F
  F109     1.0000 0.57167  0.75970  0.71834  Biso   1.000  F
  F110     1.0000 0.54221  0.87930  0.73442  Biso   1.000  F
  F111     1.0000 0.49791  0.82830  0.66682  Biso   1.000  F
  F112     1.0000 0.05424  0.11760  0.67908  Biso   1.000  F
  F113     1.0000 0.09696  0.00690  0.66132  Biso   1.000  F
  F114     1.0000 0.15235  0.03600  0.72510  Biso   1.000  F
  F115     1.0000 0.96303  0.82780  0.79186  Biso   1.000  F
  F116     1.0000 0.05066  0.91010  0.82432  Biso   1.000  F
  F117     1.0000 0.91506  0.91700  0.82932  Biso   1.000  F
  F118     1.0000 0.49382  0.65040  0.48044  Biso   1.000  F
  F119     1.0000 0.43128  0.57350  0.42296  Biso   1.000  F
  F120     1.0000 0.34826  0.65820  0.45072  Biso   1.000  F
  F121     1.0000 0.46692  0.62370  0.29044  Biso   1.000  F
  F122     1.0000 0.52360  0.73750  0.27640  Biso   1.000  F
  F123     1.0000 0.79895  0.71600  0.49290  Biso   1.000  F
  F124     1.0000 0.80050  0.77260  0.43580  Biso   1.000  F
  F125     1.0000 0.71077  0.67530  0.42934  Biso   1.000  F
  F126     1.0000 0.61089  0.89260  0.59058  Biso   1.000  F
  F127     1.0000 0.48226  0.84840  0.55792  Biso   1.000  F
  F128     1.0000 0.56576  0.77010  0.57272  Biso   1.000  F
  F129     1.0000 0.68849  0.05080  0.96038  Biso   1.000  F
  F130     1.0000 0.71427  0.16900  0.95754  Biso   1.000  F
  F131     1.0000 0.74546  0.07700  0.91072  Biso   1.000  F
  F132     1.0000 0.95246  0.27680  0.07312  Biso   1.000  F
  F133     1.0000 0.06274  0.20690  0.11068  Biso   1.000  F
  F134     1.0000 0.92745  0.20050  0.11670  Biso   1.000  F
  F135     1.0000 0.29724  0.43360  0.88228  Biso   1.000  F
  F136     1.0000 0.17503  0.39840  0.88446  Biso   1.000  F
  F137     1.0000 0.24942  0.30710  0.86424  Biso   1.000  F
  F138     1.0000 0.55877  0.38630  0.99074  Biso   1.000  F
  F139     1.0000 0.54940  0.34750  0.05600  Biso   1.000  F
  F140     1.0000 0.50870  0.45060  0.05140  Biso   1.000  F
