data_image0
_cell_length_a       18.8049
_cell_length_b       18.8049
_cell_length_c       18.8049
_cell_angle_alpha    60
_cell_angle_beta     60
_cell_angle_gamma    60

_symmetry_space_group_name_H-M    P 1
_symmetry_int_tables_number       1

loop_
  _symmetry_equiv_pos_as_xyz
  'x, y, z'

loop_
  _atom_site_label
  _atom_site_occupancy
  _atom_site_fract_x
  _atom_site_fract_y
  _atom_site_fract_z
  _atom_site_thermal_displace_type
  _atom_site_B_iso_or_equiv
  _atom_site_type_symbol
  Ni1      1.0000 0.92786  0.50000  0.07214  Biso   1.000  Ni
  Ni2      1.0000 0.50000  0.92786  0.50000  Biso   1.000  Ni
  Ni3      1.0000 0.07214  0.50000  0.92786  Biso   1.000  Ni
  Ni4      1.0000 0.50000  0.07214  0.50000  Biso   1.000  Ni
  Ni5      1.0000 0.92786  0.07214  0.50000  Biso   1.000  Ni
  Ni6      1.0000 0.50000  0.50000  0.07214  Biso   1.000  Ni
  Ni7      1.0000 0.07214  0.92786  0.50000  Biso   1.000  Ni
  Ni8      1.0000 0.50000  0.50000  0.92786  Biso   1.000  Ni
  Ni9      1.0000 0.92786  0.50000  0.50000  Biso   1.000  Ni
  Ni10     1.0000 0.50000  0.07214  0.92786  Biso   1.000  Ni
  Ni11     1.0000 0.07214  0.50000  0.50000  Biso   1.000  Ni
  Ni12     1.0000 0.50000  0.92786  0.07214  Biso   1.000  Ni
  H1       1.0000 0.73880  0.52420  0.12980  Biso   1.000  H
  H2       1.0000 0.52420  0.73880  0.60720  Biso   1.000  H
  H3       1.0000 0.12980  0.60720  0.73880  Biso   1.000  H
  H4       1.0000 0.60720  0.12980  0.52420  Biso   1.000  H
  H5       1.0000 0.73880  0.12980  0.60720  Biso   1.000  H
  H6       1.0000 0.52420  0.60720  0.12980  Biso   1.000  H
  H7       1.0000 0.12980  0.73880  0.52420  Biso   1.000  H
  H8       1.0000 0.60720  0.52420  0.73880  Biso   1.000  H
  H9       1.0000 0.73880  0.60720  0.52420  Biso   1.000  H
  H10      1.0000 0.52420  0.12980  0.73880  Biso   1.000  H
  H11      1.0000 0.12980  0.52420  0.60720  Biso   1.000  H
  H12      1.0000 0.60720  0.73880  0.12980  Biso   1.000  H
  H13      1.0000 0.47580  0.26120  0.87020  Biso   1.000  H
  H14      1.0000 0.26120  0.47580  0.39280  Biso   1.000  H
  H15      1.0000 0.39280  0.87020  0.26120  Biso   1.000  H
  H16      1.0000 0.87020  0.39280  0.47580  Biso   1.000  H
  H17      1.0000 0.87020  0.26120  0.39280  Biso   1.000  H
  H18      1.0000 0.39280  0.47580  0.87020  Biso   1.000  H
  H19      1.0000 0.26120  0.87020  0.47580  Biso   1.000  H
  H20      1.0000 0.47580  0.39280  0.26120  Biso   1.000  H
  H21      1.0000 0.39280  0.26120  0.47580  Biso   1.000  H
  H22      1.0000 0.87020  0.47580  0.26120  Biso   1.000  H
  H23      1.0000 0.47580  0.87020  0.39280  Biso   1.000  H
  H24      1.0000 0.26120  0.39280  0.87020  Biso   1.000  H
  H25      1.0000 0.26120  0.47580  0.87020  Biso   1.000  H
  H26      1.0000 0.47580  0.26120  0.39280  Biso   1.000  H
  H27      1.0000 0.87020  0.39280  0.26120  Biso   1.000  H
  H28      1.0000 0.39280  0.87020  0.47580  Biso   1.000  H
  H29      1.0000 0.26120  0.87020  0.39280  Biso   1.000  H
  H30      1.0000 0.47580  0.39280  0.87020  Biso   1.000  H
  H31      1.0000 0.87020  0.26120  0.47580  Biso   1.000  H
  H32      1.0000 0.39280  0.47580  0.26120  Biso   1.000  H
  H33      1.0000 0.26120  0.39280  0.47580  Biso   1.000  H
  H34      1.0000 0.47580  0.87020  0.26120  Biso   1.000  H
  H35      1.0000 0.87020  0.47580  0.39280  Biso   1.000  H
  H36      1.0000 0.39280  0.26120  0.87020  Biso   1.000  H
  H37      1.0000 0.52420  0.73880  0.12980  Biso   1.000  H
  H38      1.0000 0.73880  0.52420  0.60720  Biso   1.000  H
  H39      1.0000 0.60720  0.12980  0.73880  Biso   1.000  H
  H40      1.0000 0.12980  0.60720  0.52420  Biso   1.000  H
  H41      1.0000 0.12980  0.73880  0.60720  Biso   1.000  H
  H42      1.0000 0.60720  0.52420  0.12980  Biso   1.000  H
  H43      1.0000 0.73880  0.12980  0.52420  Biso   1.000  H
  H44      1.0000 0.52420  0.60720  0.73880  Biso   1.000  H
  H45      1.0000 0.60720  0.73880  0.52420  Biso   1.000  H
  H46      1.0000 0.12980  0.52420  0.73880  Biso   1.000  H
  H47      1.0000 0.52420  0.12980  0.60720  Biso   1.000  H
  H48      1.0000 0.73880  0.60720  0.12980  Biso   1.000  H
  H49      1.0000 0.77600  0.50000  0.22400  Biso   1.000  H
  H50      1.0000 0.50000  0.77600  0.50000  Biso   1.000  H
  H51      1.0000 0.22400  0.50000  0.77600  Biso   1.000  H
  H52      1.0000 0.50000  0.22400  0.50000  Biso   1.000  H
  H53      1.0000 0.77600  0.22400  0.50000  Biso   1.000  H
  H54      1.0000 0.50000  0.50000  0.22400  Biso   1.000  H
  H55      1.0000 0.22400  0.77600  0.50000  Biso   1.000  H
  H56      1.0000 0.50000  0.50000  0.77600  Biso   1.000  H
  H57      1.0000 0.77600  0.50000  0.50000  Biso   1.000  H
  H58      1.0000 0.50000  0.22400  0.77600  Biso   1.000  H
  H59      1.0000 0.22400  0.50000  0.50000  Biso   1.000  H
  H60      1.0000 0.50000  0.77600  0.22400  Biso   1.000  H
  H61      1.0000 0.01420  0.22680  0.22680  Biso   1.000  H
  H62      1.0000 0.22680  0.01420  0.53220  Biso   1.000  H
  H63      1.0000 0.22680  0.53220  0.01420  Biso   1.000  H
  H64      1.0000 0.53220  0.22680  0.22680  Biso   1.000  H
  H65      1.0000 0.01420  0.22680  0.53220  Biso   1.000  H
  H66      1.0000 0.22680  0.53220  0.22680  Biso   1.000  H
  H67      1.0000 0.22680  0.01420  0.22680  Biso   1.000  H
  H68      1.0000 0.53220  0.22680  0.01420  Biso   1.000  H
  H69      1.0000 0.01420  0.53220  0.22680  Biso   1.000  H
  H70      1.0000 0.22680  0.22680  0.01420  Biso   1.000  H
  H71      1.0000 0.22680  0.22680  0.53220  Biso   1.000  H
  H72      1.0000 0.53220  0.01420  0.22680  Biso   1.000  H
  H73      1.0000 0.77320  0.98580  0.77320  Biso   1.000  H
  H74      1.0000 0.98580  0.77320  0.46780  Biso   1.000  H
  H75      1.0000 0.46780  0.77320  0.98580  Biso   1.000  H
  H76      1.0000 0.77320  0.46780  0.77320  Biso   1.000  H
  H77      1.0000 0.77320  0.98580  0.46780  Biso   1.000  H
  H78      1.0000 0.46780  0.77320  0.77320  Biso   1.000  H
  H79      1.0000 0.98580  0.77320  0.77320  Biso   1.000  H
  H80      1.0000 0.77320  0.46780  0.98580  Biso   1.000  H
  H81      1.0000 0.46780  0.98580  0.77320  Biso   1.000  H
  H82      1.0000 0.77320  0.77320  0.98580  Biso   1.000  H
  H83      1.0000 0.77320  0.77320  0.46780  Biso   1.000  H
  H84      1.0000 0.98580  0.46780  0.77320  Biso   1.000  H
  H85      1.0000 0.69630  0.54300  0.21770  Biso   1.000  H
  H86      1.0000 0.54300  0.69630  0.54300  Biso   1.000  H
  H87      1.0000 0.21770  0.54300  0.69630  Biso   1.000  H
  H88      1.0000 0.54300  0.21770  0.54300  Biso   1.000  H
  H89      1.0000 0.69630  0.21770  0.54300  Biso   1.000  H
  H90      1.0000 0.54300  0.54300  0.21770  Biso   1.000  H
  H91      1.0000 0.21770  0.69630  0.54300  Biso   1.000  H
  H92      1.0000 0.54300  0.54300  0.69630  Biso   1.000  H
  H93      1.0000 0.69630  0.54300  0.54300  Biso   1.000  H
  H94      1.0000 0.54300  0.21770  0.69630  Biso   1.000  H
  H95      1.0000 0.21770  0.54300  0.54300  Biso   1.000  H
  H96      1.0000 0.54300  0.69630  0.21770  Biso   1.000  H
  H97      1.0000 0.45700  0.30370  0.78230  Biso   1.000  H
  H98      1.0000 0.30370  0.45700  0.45700  Biso   1.000  H
  H99      1.0000 0.45700  0.78230  0.30370  Biso   1.000  H
  H100     1.0000 0.78230  0.45700  0.45700  Biso   1.000  H
  H101     1.0000 0.78230  0.30370  0.45700  Biso   1.000  H
  H102     1.0000 0.45700  0.45700  0.78230  Biso   1.000  H
  H103     1.0000 0.30370  0.78230  0.45700  Biso   1.000  H
  H104     1.0000 0.45700  0.45700  0.30370  Biso   1.000  H
  H105     1.0000 0.45700  0.30370  0.45700  Biso   1.000  H
  H106     1.0000 0.78230  0.45700  0.30370  Biso   1.000  H
  H107     1.0000 0.45700  0.78230  0.45700  Biso   1.000  H
  H108     1.0000 0.30370  0.45700  0.78230  Biso   1.000  H
  C1       1.0000 0.06940  0.33476  0.06940  Biso   1.000  C
  C2       1.0000 0.11360  0.24194  0.11360  Biso   1.000  C
  C3       1.0000 0.33476  0.06940  0.52644  Biso   1.000  C
  C4       1.0000 0.24194  0.11360  0.53086  Biso   1.000  C
  C5       1.0000 0.06940  0.52644  0.06940  Biso   1.000  C
  C6       1.0000 0.11360  0.53086  0.11360  Biso   1.000  C
  C7       1.0000 0.52644  0.06940  0.33476  Biso   1.000  C
  C8       1.0000 0.53086  0.11360  0.24194  Biso   1.000  C
  C9       1.0000 0.06940  0.06940  0.52644  Biso   1.000  C
  C10      1.0000 0.11360  0.11360  0.53086  Biso   1.000  C
  C11      1.0000 0.33476  0.52644  0.06940  Biso   1.000  C
  C12      1.0000 0.24194  0.53086  0.11360  Biso   1.000  C
  C13      1.0000 0.06940  0.06940  0.33476  Biso   1.000  C
  C14      1.0000 0.11360  0.11360  0.24194  Biso   1.000  C
  C15      1.0000 0.52644  0.33476  0.06940  Biso   1.000  C
  C16      1.0000 0.53086  0.24194  0.11360  Biso   1.000  C
  C17      1.0000 0.06940  0.52644  0.33476  Biso   1.000  C
  C18      1.0000 0.11360  0.53086  0.24194  Biso   1.000  C
  C19      1.0000 0.33476  0.06940  0.06940  Biso   1.000  C
  C20      1.0000 0.24194  0.11360  0.11360  Biso   1.000  C
  C21      1.0000 0.06940  0.33476  0.52644  Biso   1.000  C
  C22      1.0000 0.11360  0.24194  0.53086  Biso   1.000  C
  C23      1.0000 0.52644  0.06940  0.06940  Biso   1.000  C
  C24      1.0000 0.53086  0.11360  0.11360  Biso   1.000  C
  C25      1.0000 0.66524  0.93060  0.93060  Biso   1.000  C
  C26      1.0000 0.75806  0.88640  0.88640  Biso   1.000  C
  C27      1.0000 0.93060  0.66524  0.47356  Biso   1.000  C
  C28      1.0000 0.88640  0.75806  0.46914  Biso   1.000  C
  C29      1.0000 0.47356  0.93060  0.93060  Biso   1.000  C
  C30      1.0000 0.46914  0.88640  0.88640  Biso   1.000  C
  C31      1.0000 0.93060  0.47356  0.66524  Biso   1.000  C
  C32      1.0000 0.88640  0.46914  0.75806  Biso   1.000  C
  C33      1.0000 0.93060  0.93060  0.47356  Biso   1.000  C
  C34      1.0000 0.88640  0.88640  0.46914  Biso   1.000  C
  C35      1.0000 0.47356  0.66524  0.93060  Biso   1.000  C
  C36      1.0000 0.46914  0.75806  0.88640  Biso   1.000  C
  C37      1.0000 0.93060  0.93060  0.66524  Biso   1.000  C
  C38      1.0000 0.88640  0.88640  0.75806  Biso   1.000  C
  C39      1.0000 0.66524  0.47356  0.93060  Biso   1.000  C
  C40      1.0000 0.75806  0.46914  0.88640  Biso   1.000  C
  C41      1.0000 0.47356  0.93060  0.66524  Biso   1.000  C
  C42      1.0000 0.46914  0.88640  0.75806  Biso   1.000  C
  C43      1.0000 0.93060  0.66524  0.93060  Biso   1.000  C
  C44      1.0000 0.88640  0.75806  0.88640  Biso   1.000  C
  C45      1.0000 0.66524  0.93060  0.47356  Biso   1.000  C
  C46      1.0000 0.75806  0.88640  0.46914  Biso   1.000  C
  C47      1.0000 0.93060  0.47356  0.93060  Biso   1.000  C
  C48      1.0000 0.88640  0.46914  0.88640  Biso   1.000  C
  C49      1.0000 0.07154  0.19850  0.19850  Biso   1.000  C
  C50      1.0000 0.19850  0.07154  0.53146  Biso   1.000  C
  C51      1.0000 0.19850  0.53146  0.07154  Biso   1.000  C
  C52      1.0000 0.53146  0.19850  0.19850  Biso   1.000  C
  C53      1.0000 0.07154  0.19850  0.53146  Biso   1.000  C
  C54      1.0000 0.19850  0.53146  0.19850  Biso   1.000  C
  C55      1.0000 0.19850  0.07154  0.19850  Biso   1.000  C
  C56      1.0000 0.53146  0.19850  0.07154  Biso   1.000  C
  C57      1.0000 0.07154  0.53146  0.19850  Biso   1.000  C
  C58      1.0000 0.19850  0.19850  0.07154  Biso   1.000  C
  C59      1.0000 0.19850  0.19850  0.53146  Biso   1.000  C
  C60      1.0000 0.53146  0.07154  0.19850  Biso   1.000  C
  C61      1.0000 0.80150  0.92846  0.80150  Biso   1.000  C
  C62      1.0000 0.92846  0.80150  0.46854  Biso   1.000  C
  C63      1.0000 0.46854  0.80150  0.92846  Biso   1.000  C
  C64      1.0000 0.80150  0.46854  0.80150  Biso   1.000  C
  C65      1.0000 0.80150  0.92846  0.46854  Biso   1.000  C
  C66      1.0000 0.46854  0.80150  0.80150  Biso   1.000  C
  C67      1.0000 0.92846  0.80150  0.80150  Biso   1.000  C
  C68      1.0000 0.80150  0.46854  0.92846  Biso   1.000  C
  C69      1.0000 0.46854  0.92846  0.80150  Biso   1.000  C
  C70      1.0000 0.80150  0.80150  0.92846  Biso   1.000  C
  C71      1.0000 0.80150  0.80150  0.46854  Biso   1.000  C
  C72      1.0000 0.92846  0.46854  0.80150  Biso   1.000  C
  C73      1.0000 0.74300  0.54700  0.16300  Biso   1.000  C
  C74      1.0000 0.54700  0.74300  0.54700  Biso   1.000  C
  C75      1.0000 0.16300  0.54700  0.74300  Biso   1.000  C
  C76      1.0000 0.54700  0.16300  0.54700  Biso   1.000  C
  C77      1.0000 0.74300  0.16300  0.54700  Biso   1.000  C
  C78      1.0000 0.54700  0.54700  0.16300  Biso   1.000  C
  C79      1.0000 0.16300  0.74300  0.54700  Biso   1.000  C
  C80      1.0000 0.54700  0.54700  0.74300  Biso   1.000  C
  C81      1.0000 0.74300  0.54700  0.54700  Biso   1.000  C
  C82      1.0000 0.54700  0.16300  0.74300  Biso   1.000  C
  C83      1.0000 0.16300  0.54700  0.54700  Biso   1.000  C
  C84      1.0000 0.54700  0.74300  0.16300  Biso   1.000  C
  C85      1.0000 0.45300  0.25700  0.83700  Biso   1.000  C
  C86      1.0000 0.25700  0.45300  0.45300  Biso   1.000  C
  C87      1.0000 0.45300  0.83700  0.25700  Biso   1.000  C
  C88      1.0000 0.83700  0.45300  0.45300  Biso   1.000  C
  C89      1.0000 0.83700  0.25700  0.45300  Biso   1.000  C
  C90      1.0000 0.45300  0.45300  0.83700  Biso   1.000  C
  C91      1.0000 0.25700  0.83700  0.45300  Biso   1.000  C
  C92      1.0000 0.45300  0.45300  0.25700  Biso   1.000  C
  C93      1.0000 0.45300  0.25700  0.45300  Biso   1.000  C
  C94      1.0000 0.83700  0.45300  0.25700  Biso   1.000  C
  C95      1.0000 0.45300  0.83700  0.45300  Biso   1.000  C
  C96      1.0000 0.25700  0.45300  0.83700  Biso   1.000  C
  N1       1.0000 0.82300  0.50000  0.17700  Biso   1.000  N
  N2       1.0000 0.50000  0.82300  0.50000  Biso   1.000  N
  N3       1.0000 0.17700  0.50000  0.82300  Biso   1.000  N
  N4       1.0000 0.50000  0.17700  0.50000  Biso   1.000  N
  N5       1.0000 0.82300  0.17700  0.50000  Biso   1.000  N
  N6       1.0000 0.50000  0.50000  0.17700  Biso   1.000  N
  N7       1.0000 0.17700  0.82300  0.50000  Biso   1.000  N
  N8       1.0000 0.50000  0.50000  0.82300  Biso   1.000  N
  N9       1.0000 0.82300  0.50000  0.50000  Biso   1.000  N
  N10      1.0000 0.50000  0.17700  0.82300  Biso   1.000  N
  N11      1.0000 0.17700  0.50000  0.50000  Biso   1.000  N
  N12      1.0000 0.50000  0.82300  0.17700  Biso   1.000  N
  O1       1.0000 0.99401  0.37205  0.11249  Biso   1.000  O
  O2       1.0000 0.37205  0.99401  0.52145  Biso   1.000  O
  O3       1.0000 0.11249  0.52145  0.99401  Biso   1.000  O
  O4       1.0000 0.52145  0.11249  0.37205  Biso   1.000  O
  O5       1.0000 0.99401  0.11249  0.52145  Biso   1.000  O
  O6       1.0000 0.37205  0.52145  0.11249  Biso   1.000  O
  O7       1.0000 0.11249  0.99401  0.37205  Biso   1.000  O
  O8       1.0000 0.52145  0.37205  0.99401  Biso   1.000  O
  O9       1.0000 0.99401  0.52145  0.37205  Biso   1.000  O
  O10      1.0000 0.37205  0.11249  0.99401  Biso   1.000  O
  O11      1.0000 0.11249  0.37205  0.52145  Biso   1.000  O
  O12      1.0000 0.52145  0.99401  0.11249  Biso   1.000  O
  O13      1.0000 0.62795  0.00599  0.88751  Biso   1.000  O
  O14      1.0000 0.00599  0.62795  0.47855  Biso   1.000  O
  O15      1.0000 0.47855  0.88751  0.00599  Biso   1.000  O
  O16      1.0000 0.88751  0.47855  0.62795  Biso   1.000  O
  O17      1.0000 0.88751  0.00599  0.47855  Biso   1.000  O
  O18      1.0000 0.47855  0.62795  0.88751  Biso   1.000  O
  O19      1.0000 0.00599  0.88751  0.62795  Biso   1.000  O
  O20      1.0000 0.62795  0.47855  0.00599  Biso   1.000  O
  O21      1.0000 0.47855  0.00599  0.62795  Biso   1.000  O
  O22      1.0000 0.88751  0.62795  0.00599  Biso   1.000  O
  O23      1.0000 0.62795  0.88751  0.47855  Biso   1.000  O
  O24      1.0000 0.00599  0.47855  0.88751  Biso   1.000  O
  O25      1.0000 0.00599  0.62795  0.88751  Biso   1.000  O
  O26      1.0000 0.62795  0.00599  0.47855  Biso   1.000  O
  O27      1.0000 0.88751  0.47855  0.00599  Biso   1.000  O
  O28      1.0000 0.47855  0.88751  0.62795  Biso   1.000  O
  O29      1.0000 0.00599  0.88751  0.47855  Biso   1.000  O
  O30      1.0000 0.62795  0.47855  0.88751  Biso   1.000  O
  O31      1.0000 0.88751  0.00599  0.62795  Biso   1.000  O
  O32      1.0000 0.47855  0.62795  0.00599  Biso   1.000  O
  O33      1.0000 0.00599  0.47855  0.62795  Biso   1.000  O
  O34      1.0000 0.62795  0.88751  0.00599  Biso   1.000  O
  O35      1.0000 0.88751  0.62795  0.47855  Biso   1.000  O
  O36      1.0000 0.47855  0.00599  0.88751  Biso   1.000  O
  O37      1.0000 0.37205  0.99401  0.11249  Biso   1.000  O
  O38      1.0000 0.99401  0.37205  0.52145  Biso   1.000  O
  O39      1.0000 0.52145  0.11249  0.99401  Biso   1.000  O
  O40      1.0000 0.11249  0.52145  0.37205  Biso   1.000  O
  O41      1.0000 0.11249  0.99401  0.52145  Biso   1.000  O
  O42      1.0000 0.52145  0.37205  0.11249  Biso   1.000  O
  O43      1.0000 0.99401  0.11249  0.37205  Biso   1.000  O
  O44      1.0000 0.37205  0.52145  0.99401  Biso   1.000  O
  O45      1.0000 0.52145  0.99401  0.37205  Biso   1.000  O
  O46      1.0000 0.11249  0.37205  0.99401  Biso   1.000  O
  O47      1.0000 0.37205  0.11249  0.52145  Biso   1.000  O
  O48      1.0000 0.99401  0.52145  0.11249  Biso   1.000  O
