data_image0
_cell_length_a       8.741
_cell_length_b       14.796
_cell_length_c       19.34
_cell_angle_alpha    90
_cell_angle_beta     90
_cell_angle_gamma    90

_symmetry_space_group_name_H-M    P 1
_symmetry_int_tables_number       1

loop_
  _symmetry_equiv_pos_as_xyz
  'x, y, z'

loop_
  _atom_site_label
  _atom_site_occupancy
  _atom_site_fract_x
  _atom_site_fract_y
  _atom_site_fract_z
  _atom_site_thermal_displace_type
  _atom_site_B_iso_or_equiv
  _atom_site_type_symbol
  Zn1      1.0000 0.36854  0.04448  0.92670  Biso   1.000  Zn
  Zn2      1.0000 0.13146  0.95552  0.42670  Biso   1.000  Zn
  Zn3      1.0000 0.63146  0.54448  0.57330  Biso   1.000  Zn
  Zn4      1.0000 0.86854  0.45552  0.07330  Biso   1.000  Zn
  H1       1.0000 0.69630  0.86590  0.50040  Biso   1.000  H
  H2       1.0000 0.15570  0.02880  0.69130  Biso   1.000  H
  H3       1.0000 0.73730  0.71210  0.49950  Biso   1.000  H
  H4       1.0000 0.83270  0.11660  0.58020  Biso   1.000  H
  H5       1.0000 0.77810  0.02160  0.60600  Biso   1.000  H
  H6       1.0000 0.15880  0.04930  0.80830  Biso   1.000  H
  H7       1.0000 0.37430  0.82690  0.64420  Biso   1.000  H
  H8       1.0000 0.41850  0.67790  0.63870  Biso   1.000  H
  H9       1.0000 0.58990  0.98600  0.81980  Biso   1.000  H
  H10      1.0000 0.60570  0.96540  0.70230  Biso   1.000  H
  H11      1.0000 0.29500  0.99900  0.59500  Biso   1.000  H
  H12      1.0000 0.68900  0.07400  0.46700  Biso   1.000  H
  H13      1.0000 0.80370  0.13410  0.00040  Biso   1.000  H
  H14      1.0000 0.34430  0.97120  0.19130  Biso   1.000  H
  H15      1.0000 0.76270  0.28790  0.99950  Biso   1.000  H
  H16      1.0000 0.66730  0.88340  0.08020  Biso   1.000  H
  H17      1.0000 0.72190  0.97840  0.10600  Biso   1.000  H
  H18      1.0000 0.34120  0.95070  0.30830  Biso   1.000  H
  H19      1.0000 0.12570  0.17310  0.14420  Biso   1.000  H
  H20      1.0000 0.08150  0.32210  0.13870  Biso   1.000  H
  H21      1.0000 0.91010  0.01400  0.31980  Biso   1.000  H
  H22      1.0000 0.89430  0.03460  0.20230  Biso   1.000  H
  H23      1.0000 0.20500  0.00100  0.09500  Biso   1.000  H
  H24      1.0000 0.81100  0.92600  0.96700  Biso   1.000  H
  H25      1.0000 0.30370  0.36590  0.99960  Biso   1.000  H
  H26      1.0000 0.84430  0.52880  0.80870  Biso   1.000  H
  H27      1.0000 0.26270  0.21210  0.00050  Biso   1.000  H
  H28      1.0000 0.16730  0.61660  0.91980  Biso   1.000  H
  H29      1.0000 0.22190  0.52160  0.89400  Biso   1.000  H
  H30      1.0000 0.84120  0.54930  0.69170  Biso   1.000  H
  H31      1.0000 0.62570  0.32690  0.85580  Biso   1.000  H
  H32      1.0000 0.58150  0.17790  0.86130  Biso   1.000  H
  H33      1.0000 0.41010  0.48600  0.68020  Biso   1.000  H
  H34      1.0000 0.39430  0.46540  0.79770  Biso   1.000  H
  H35      1.0000 0.70500  0.49900  0.90500  Biso   1.000  H
  H36      1.0000 0.31100  0.57400  0.03300  Biso   1.000  H
  H37      1.0000 0.19630  0.63410  0.49960  Biso   1.000  H
  H38      1.0000 0.65570  0.47120  0.30870  Biso   1.000  H
  H39      1.0000 0.23730  0.78790  0.50050  Biso   1.000  H
  H40      1.0000 0.33270  0.38340  0.41980  Biso   1.000  H
  H41      1.0000 0.27810  0.47840  0.39400  Biso   1.000  H
  H42      1.0000 0.65880  0.45070  0.19170  Biso   1.000  H
  H43      1.0000 0.87430  0.67310  0.35580  Biso   1.000  H
  H44      1.0000 0.91850  0.82210  0.36130  Biso   1.000  H
  H45      1.0000 0.08990  0.51400  0.18020  Biso   1.000  H
  H46      1.0000 0.10570  0.53460  0.29770  Biso   1.000  H
  H47      1.0000 0.79500  0.50100  0.40500  Biso   1.000  H
  H48      1.0000 0.18900  0.42600  0.53300  Biso   1.000  H
  C1       1.0000 0.68240  0.05840  0.51670  Biso   1.000  C
  C2       1.0000 0.38250  0.99790  0.68250  Biso   1.000  C
  C3       1.0000 0.55160  0.01520  0.52100  Biso   1.000  C
  C4       1.0000 0.53170  0.86530  0.57330  Biso   1.000  C
  C5       1.0000 0.63950  0.82870  0.52940  Biso   1.000  C
  C6       1.0000 0.24580  0.02090  0.71610  Biso   1.000  C
  C7       1.0000 0.66280  0.73520  0.52900  Biso   1.000  C
  C8       1.0000 0.80930  0.05550  0.56550  Biso   1.000  C
  C9       1.0000 0.95190  0.01330  0.53600  Biso   1.000  C
  C10      1.0000 0.24860  0.03140  0.78650  Biso   1.000  C
  C11      1.0000 0.44890  0.80510  0.61430  Biso   1.000  C
  C12      1.0000 0.47650  0.71570  0.61060  Biso   1.000  C
  C13      1.0000 0.50260  0.99450  0.79310  Biso   1.000  C
  C14      1.0000 0.51390  0.98280  0.72270  Biso   1.000  C
  C15      1.0000 0.43290  0.01820  0.46470  Biso   1.000  C
  C16      1.0000 0.81760  0.94160  0.01670  Biso   1.000  C
  C17      1.0000 0.11750  0.00210  0.18250  Biso   1.000  C
  C18      1.0000 0.94840  0.98480  0.02100  Biso   1.000  C
  C19      1.0000 0.96830  0.13470  0.07330  Biso   1.000  C
  C20      1.0000 0.86050  0.17130  0.02940  Biso   1.000  C
  C21      1.0000 0.25420  0.97910  0.21610  Biso   1.000  C
  C22      1.0000 0.83720  0.26480  0.02900  Biso   1.000  C
  C23      1.0000 0.69070  0.94450  0.06550  Biso   1.000  C
  C24      1.0000 0.54810  0.98670  0.03600  Biso   1.000  C
  C25      1.0000 0.25140  0.96860  0.28650  Biso   1.000  C
  C26      1.0000 0.05110  0.19490  0.11430  Biso   1.000  C
  C27      1.0000 0.02350  0.28430  0.11060  Biso   1.000  C
  C28      1.0000 0.99740  0.00550  0.29310  Biso   1.000  C
  C29      1.0000 0.98610  0.01720  0.22270  Biso   1.000  C
  C30      1.0000 0.06710  0.98180  0.96470  Biso   1.000  C
  C31      1.0000 0.31760  0.55840  0.98330  Biso   1.000  C
  C32      1.0000 0.61750  0.49790  0.81750  Biso   1.000  C
  C33      1.0000 0.44840  0.51520  0.97900  Biso   1.000  C
  C34      1.0000 0.46830  0.36530  0.92670  Biso   1.000  C
  C35      1.0000 0.36050  0.32870  0.97060  Biso   1.000  C
  C36      1.0000 0.75420  0.52090  0.78390  Biso   1.000  C
  C37      1.0000 0.33720  0.23520  0.97100  Biso   1.000  C
  C38      1.0000 0.19070  0.55550  0.93450  Biso   1.000  C
  C39      1.0000 0.04810  0.51330  0.96400  Biso   1.000  C
  C40      1.0000 0.75140  0.53140  0.71350  Biso   1.000  C
  C41      1.0000 0.55110  0.30510  0.88570  Biso   1.000  C
  C42      1.0000 0.52350  0.21570  0.88940  Biso   1.000  C
  C43      1.0000 0.49740  0.49450  0.70690  Biso   1.000  C
  C44      1.0000 0.48610  0.48280  0.77730  Biso   1.000  C
  C45      1.0000 0.56710  0.51820  0.03530  Biso   1.000  C
  C46      1.0000 0.18240  0.44160  0.48330  Biso   1.000  C
  C47      1.0000 0.88250  0.50210  0.31750  Biso   1.000  C
  C48      1.0000 0.05160  0.48480  0.47900  Biso   1.000  C
  C49      1.0000 0.03170  0.63470  0.42670  Biso   1.000  C
  C50      1.0000 0.13950  0.67130  0.47060  Biso   1.000  C
  C51      1.0000 0.74580  0.47910  0.28390  Biso   1.000  C
  C52      1.0000 0.16280  0.76480  0.47100  Biso   1.000  C
  C53      1.0000 0.30930  0.44450  0.43450  Biso   1.000  C
  C54      1.0000 0.45190  0.48670  0.46400  Biso   1.000  C
  C55      1.0000 0.74860  0.46860  0.21350  Biso   1.000  C
  C56      1.0000 0.94890  0.69490  0.38570  Biso   1.000  C
  C57      1.0000 0.97650  0.78430  0.38940  Biso   1.000  C
  C58      1.0000 0.00260  0.50550  0.20690  Biso   1.000  C
  C59      1.0000 0.01390  0.51720  0.27730  Biso   1.000  C
  C60      1.0000 0.93290  0.48180  0.53530  Biso   1.000  C
  N1       1.0000 0.37940  0.98850  0.61260  Biso   1.000  N
  N2       1.0000 0.51160  0.95720  0.57830  Biso   1.000  N
  N3       1.0000 0.58410  0.67640  0.56860  Biso   1.000  N
  N4       1.0000 0.37170  0.01760  0.82550  Biso   1.000  N
  N5       1.0000 0.12060  0.01150  0.11260  Biso   1.000  N
  N6       1.0000 0.98840  0.04280  0.07830  Biso   1.000  N
  N7       1.0000 0.91590  0.32360  0.06860  Biso   1.000  N
  N8       1.0000 0.12830  0.98240  0.32550  Biso   1.000  N
  N9       1.0000 0.62060  0.48850  0.88740  Biso   1.000  N
  N10      1.0000 0.48840  0.45720  0.92170  Biso   1.000  N
  N11      1.0000 0.41590  0.17640  0.93140  Biso   1.000  N
  N12      1.0000 0.62830  0.51760  0.67450  Biso   1.000  N
  N13      1.0000 0.87940  0.51150  0.38740  Biso   1.000  N
  N14      1.0000 0.01160  0.54280  0.42170  Biso   1.000  N
  N15      1.0000 0.08410  0.82360  0.43140  Biso   1.000  N
  N16      1.0000 0.87170  0.48240  0.17450  Biso   1.000  N
  O1       1.0000 0.96770  0.02350  0.47030  Biso   1.000  O
  O2       1.0000 0.04510  0.97340  0.57280  Biso   1.000  O
  O3       1.0000 0.44440  0.07130  0.41500  Biso   1.000  O
  O4       1.0000 0.32570  0.96040  0.47250  Biso   1.000  O
  O5       1.0000 0.53230  0.97650  0.97030  Biso   1.000  O
  O6       1.0000 0.45490  0.02660  0.07280  Biso   1.000  O
  O7       1.0000 0.05560  0.92870  0.91500  Biso   1.000  O
  O8       1.0000 0.17430  0.03960  0.97250  Biso   1.000  O
  O9       1.0000 0.03230  0.52350  0.02970  Biso   1.000  O
  O10      1.0000 0.95490  0.47340  0.92720  Biso   1.000  O
  O11      1.0000 0.55560  0.57130  0.08500  Biso   1.000  O
  O12      1.0000 0.67430  0.46040  0.02750  Biso   1.000  O
  O13      1.0000 0.46770  0.47650  0.52970  Biso   1.000  O
  O14      1.0000 0.54510  0.52660  0.42720  Biso   1.000  O
  O15      1.0000 0.94440  0.42870  0.58500  Biso   1.000  O
  O16      1.0000 0.82570  0.53960  0.52750  Biso   1.000  O
