data_FABFOF_ion_b
_audit_creation_date              2014-07-02
_audit_creation_method            'Materials Studio'
_symmetry_space_group_name_H-M    'P1'
_symmetry_Int_Tables_number       1
_symmetry_cell_setting            triclinic
loop_
_symmetry_equiv_pos_as_xyz
  x,y,z
_cell_length_a                    9.5920
_cell_length_b                    9.5920
_cell_length_c                    11.0210
_cell_angle_alpha                 91.4204
_cell_angle_beta                  91.4204
_cell_angle_gamma                 105.9795
loop_
_atom_site_label
_atom_site_type_symbol
_atom_site_fract_x
_atom_site_fract_y
_atom_site_fract_z
_atom_site_U_iso_or_equiv
_atom_site_adp_type
_atom_site_occupancy
C1     C     0.50020   0.11960   0.42384   0.00000  Uiso   1.00
C2     C     0.49341   0.23512   0.33680   0.00000  Uiso   1.00
C3     C     0.51988   0.14573   0.55117   0.00000  Uiso   1.00
C4     C     0.51655   0.03027   0.62786   0.00000  Uiso   1.00
H5     H     0.53224   0.05328   0.72487   0.00000  Uiso   1.00
C6     C     0.54489   0.29085   0.60900   0.00000  Uiso   1.00
N7     N     0.84177   0.74755   0.53114   0.00000  Uiso   1.00
O8     O     0.51564   0.37894   0.37576   0.00000  Uiso   1.00
O9     O     0.46748   0.20416   0.22912   0.00000  Uiso   1.00
O10    O     0.65347   0.38696   0.58786   0.00000  Uiso   1.00
O11    O     0.44741   0.31601   0.69235   0.00000  Uiso   1.00
C12    C     0.88276   0.50182   0.08207   0.00000  Uiso   1.00
C13    C     0.76723   0.50799   0.16923   0.00000  Uiso   1.00
C14    C     0.85690   0.48353   0.95461   0.00000  Uiso   1.00
C15    C     0.97248   0.48715   0.87796   0.00000  Uiso   1.00
H16    H     0.94967   0.47211   0.78089   0.00000  Uiso   1.00
C17    C     0.71181   0.45880   0.89663   0.00000  Uiso   1.00
N18    N     0.25344   0.13359   0.95634   0.00000  Uiso   1.00
O19    O     0.62366   0.48712   0.13017   0.00000  Uiso   1.00
O20    O     0.79793   0.53226   0.27709   0.00000  Uiso   1.00
O21    O     0.61533   0.35067   0.91812   0.00000  Uiso   1.00
O22    O     0.68692   0.55592   0.81281   0.00000  Uiso   1.00
C23    C     0.49697   0.88757   0.58207   0.00000  Uiso   1.00
C24    C     0.50341   0.77209   0.66921   0.00000  Uiso   1.00
C25    C     0.47761   0.86147   0.45468   0.00000  Uiso   1.00
C26    C     0.48073   0.97691   0.37803   0.00000  Uiso   1.00
H27    H     0.46491   0.95391   0.28103   0.00000  Uiso   1.00
C28    C     0.45300   0.71636   0.39679   0.00000  Uiso   1.00
N29    N     0.14216   0.28149   0.46049   0.00000  Uiso   1.00
O30    O     0.48155   0.62835   0.63019   0.00000  Uiso   1.00
O31    O     0.52876   0.80294   0.77693   0.00000  Uiso   1.00
O32    O     0.34473   0.61993   0.41809   0.00000  Uiso   1.00
O33    O     0.55046   0.69157   0.31327   0.00000  Uiso   1.00
C34    C     0.11502   0.50590   0.92385   0.00000  Uiso   1.00
C35    C     0.23052   0.49914   0.83678   0.00000  Uiso   1.00
C36    C     0.14092   0.52452   0.05127   0.00000  Uiso   1.00
C37    C     0.02531   0.52066   0.12794   0.00000  Uiso   1.00
H38    H     0.04809   0.53537   0.22502   0.00000  Uiso   1.00
C39    C     0.28605   0.54941   0.10910   0.00000  Uiso   1.00
N40    N     0.73744   0.85087   0.03960   0.00000  Uiso   1.00
O41    O     0.37409   0.51978   0.87591   0.00000  Uiso   1.00
O42    O     0.19980   0.47468   0.72893   0.00000  Uiso   1.00
O43    O     0.38225   0.65791   0.08791   0.00000  Uiso   1.00
O44    O     0.31122   0.45187   0.19239   0.00000  Uiso   1.00
Zn45   Zn    0.50040   0.50223   0.25294   0.00000  Uiso   1.00
Zn46   Zn    0.49737   0.50519   0.75283   0.00000  Uiso   1.00
H47    H     0.87683   0.81250   0.45711   0.00000  Uiso   1.00
H48    H     0.82770   0.81240   0.60480   0.00000  Uiso   1.00
H49    H     0.91883   0.69347   0.55463   0.00000  Uiso   1.00
H50    H     0.23865   0.12743   0.86195   0.00000  Uiso   1.00
H51    H     0.22585   0.22436   0.99106   0.00000  Uiso   1.00
H52    H     0.36191   0.14240   0.97909   0.00000  Uiso   1.00
H53    H     0.14643   0.26064   0.36742   0.00000  Uiso   1.00
H54    H     0.08093   0.35478   0.47486   0.00000  Uiso   1.00
H55    H     0.24719   0.32575   0.49659   0.00000  Uiso   1.00
H56    H     0.77060   0.92030  -0.03210   0.00000  Uiso   1.00
H57    H     0.68071   0.89774   0.10075   0.00000  Uiso   1.00
H58    H     0.82830   0.83319   0.08391   0.00000  Uiso   1.00
H59    H     0.67011   0.75195   0.00574   0.00000  Uiso   1.00
H60    H     0.74322   0.67156   0.50788   0.00000  Uiso   1.00
H61    H     0.09423   0.18478   0.50314   0.00000  Uiso   1.00
H62    H     0.18743   0.03998   0.99330   0.00000  Uiso   1.00
loop_
_geom_bond_atom_site_label_1
_geom_bond_atom_site_label_2
_geom_bond_distance
_geom_bond_site_symmetry_2
_ccdc_geom_bond_type
C1     C2      1.497   .     S
C1     C3      1.418   .     A
C1     C26     1.408   1_545 S
C2     O8      1.392   .     S
C2     O9      1.219   .     D
C3     C4      1.404   .     A
C3     C6      1.472   .     S
C4     H5      1.085   .     S
C4     C23     1.408   1_545 A
C6     O10     1.218   .     D
C6     O11     1.390   .     S
N7     H47     1.044   .     S
N7     H48     1.044   .     S
N7     H49     1.044   .     S
N7     H60     1.044   .     S
O8     Zn45    1.848   .     S
O11    Zn46    1.847   .     S
C12    C13     1.497   .     S
C12    C14     1.418   1_554 S
C12    C37     1.408   1_655 D
C13    O19     1.392   .     S
C13    O20     1.219   .     D
C14    C15     1.404   .     A
C14    C17     1.472   .     S
C14    C12     1.418   1_556 S
C15    H16     1.085   .     S
C15    C34     1.408   1_655 S
C17    O21     1.218   .     D
C17    O22     1.390   .     S
N18    H50     1.044   .     S
N18    H51     1.044   .     S
N18    H52     1.044   .     S
N18    H62     1.044   .     S
O19    Zn45    1.848   .     S
O22    Zn46    1.848   .     S
C23    C24     1.497   .     S
C23    C25     1.419   .     A
C23    C4      1.408   1_565 A
C24    O30     1.392   .     S
C24    O31     1.219   .     D
C25    C26     1.404   .     A
C25    C28     1.472   .     S
C26    H27     1.085   .     S
C26    C1      1.408   1_565 S
C28    O32     1.218   .     D
C28    O33     1.390   .     S
N29    H53     1.044   .     S
N29    H54     1.044   .     S
N29    H55     1.044   .     S
N29    H61     1.044   .     S
O30    Zn46    1.847   .     S
O33    Zn45    1.848   .     S
C34    C35     1.497   .     S
C34    C15     1.408   1_455 S
C34    C36     1.418   1_556 S
C35    O41     1.392   .     S
C35    O42     1.219   .     D
C36    C37     1.404   .     A
C36    C39     1.472   .     S
C36    C34     1.418   1_554 S
C37    H38     1.085   .     S
C37    C12     1.408   1_455 D
C39    O43     1.218   .     D
C39    O44     1.390   .     S
N40    H56     1.045   .     S
N40    H57     1.044   .     S
N40    H58     1.045   .     S
N40    H59     1.044   .     S
O41    Zn46    1.849   .     S
O44    Zn45    1.847   .     S
