data_image0
_cell_length_a       12.7231
_cell_length_b       12.7231
_cell_length_c       16.4812
_cell_angle_alpha    90
_cell_angle_beta     90
_cell_angle_gamma    120

_symmetry_space_group_name_H-M    "P 1"
_symmetry_int_tables_number       1

loop_
  _symmetry_equiv_pos_as_xyz
  'x, y, z'

loop_
  _atom_site_label
  _atom_site_occupancy
  _atom_site_fract_x
  _atom_site_fract_y
  _atom_site_fract_z
  _atom_site_thermal_displace_type
  _atom_site_B_iso_or_equiv
  _atom_site_type_symbol
  O1       1.0000 0.37700  0.99320  0.17220  Biso   1.000  O
  O2       1.0000 0.53360  0.17950  0.17050  Biso   1.000  O
  N1       1.0000 0.43480  0.37070  0.84000  Biso   1.000  N
  N2       1.0000 0.31240  0.21230  0.91350  Biso   1.000  N
  H1       1.0000 0.24700  0.14500  0.92870  Biso   1.000  H
  C1       1.0000 0.32590  0.27310  0.84480  Biso   1.000  C
  H2       1.0000 0.26500  0.24920  0.80430  Biso   1.000  H
  C2       1.0000 0.49410  0.37160  0.91090  Biso   1.000  C
  H3       1.0000 0.57450  0.43160  0.92510  Biso   1.000  H
  C3       1.0000 0.41980  0.27420  0.95670  Biso   1.000  C
  C4       1.0000 0.44860  0.23550  0.03250  Biso   1.000  C
  H4       1.0000 0.52320  0.29200  0.05730  Biso   1.000  H
  C5       1.0000 0.38240  0.12910  0.07210  Biso   1.000  C
  H5       1.0000 0.30270  0.07280  0.05400  Biso   1.000  H
  C6       1.0000 0.43410  0.10020  0.14370  Biso   1.000  C
  O3       1.0000 0.00680  0.38380  0.17220  Biso   1.000  O
  O4       1.0000 0.82050  0.35410  0.17050  Biso   1.000  O
  N3       1.0000 0.62930  0.06410  0.84000  Biso   1.000  N
  N4       1.0000 0.78770  0.10010  0.91350  Biso   1.000  N
  H6       1.0000 0.85500  0.10200  0.92870  Biso   1.000  H
  C7       1.0000 0.72690  0.05280  0.84480  Biso   1.000  C
  H7       1.0000 0.75080  0.01580  0.80430  Biso   1.000  H
  C8       1.0000 0.62840  0.12250  0.91090  Biso   1.000  C
  H8       1.0000 0.56840  0.14290  0.92510  Biso   1.000  H
  C9       1.0000 0.72580  0.14560  0.95670  Biso   1.000  C
  C10      1.0000 0.76450  0.21310  0.03250  Biso   1.000  C
  H9       1.0000 0.70800  0.23120  0.05730  Biso   1.000  H
  C11      1.0000 0.87090  0.25330  0.07210  Biso   1.000  C
  H10      1.0000 0.92720  0.22990  0.05400  Biso   1.000  H
  C12      1.0000 0.89980  0.33390  0.14370  Biso   1.000  C
  O5       1.0000 0.61620  0.62300  0.17220  Biso   1.000  O
  O6       1.0000 0.64590  0.46640  0.17050  Biso   1.000  O
  N5       1.0000 0.93590  0.56520  0.84000  Biso   1.000  N
  N6       1.0000 0.89990  0.68760  0.91350  Biso   1.000  N
  H11      1.0000 0.89800  0.75300  0.92870  Biso   1.000  H
  C13      1.0000 0.94720  0.67410  0.84480  Biso   1.000  C
  H12      1.0000 0.98420  0.73500  0.80430  Biso   1.000  H
  C14      1.0000 0.87750  0.50590  0.91090  Biso   1.000  C
  H13      1.0000 0.85710  0.42550  0.92510  Biso   1.000  H
  C15      1.0000 0.85440  0.58020  0.95670  Biso   1.000  C
  C16      1.0000 0.78690  0.55140  0.03250  Biso   1.000  C
  H14      1.0000 0.76880  0.47680  0.05730  Biso   1.000  H
  C17      1.0000 0.74670  0.61760  0.07210  Biso   1.000  C
  H15      1.0000 0.77010  0.69730  0.05400  Biso   1.000  H
  C18      1.0000 0.66610  0.56590  0.14370  Biso   1.000  C
  O7       1.0000 0.62300  0.00680  0.67220  Biso   1.000  O
  O8       1.0000 0.46640  0.82050  0.67050  Biso   1.000  O
  N7       1.0000 0.56520  0.62930  0.34000  Biso   1.000  N
  N8       1.0000 0.68760  0.78770  0.41350  Biso   1.000  N
  H16      1.0000 0.75300  0.85500  0.42870  Biso   1.000  H
  C19      1.0000 0.67410  0.72690  0.34480  Biso   1.000  C
  H17      1.0000 0.73500  0.75080  0.30430  Biso   1.000  H
  C20      1.0000 0.50590  0.62840  0.41090  Biso   1.000  C
  H18      1.0000 0.42550  0.56840  0.42510  Biso   1.000  H
  C21      1.0000 0.58020  0.72580  0.45670  Biso   1.000  C
  C22      1.0000 0.55140  0.76450  0.53250  Biso   1.000  C
  H19      1.0000 0.47680  0.70800  0.55730  Biso   1.000  H
  C23      1.0000 0.61760  0.87090  0.57210  Biso   1.000  C
  H20      1.0000 0.69730  0.92720  0.55400  Biso   1.000  H
  C24      1.0000 0.56590  0.89980  0.64370  Biso   1.000  C
  O9       1.0000 0.99320  0.61620  0.67220  Biso   1.000  O
  O10      1.0000 0.17950  0.64590  0.67050  Biso   1.000  O
  N9       1.0000 0.37070  0.93590  0.34000  Biso   1.000  N
  N10      1.0000 0.21230  0.89990  0.41350  Biso   1.000  N
  H21      1.0000 0.14500  0.89800  0.42870  Biso   1.000  H
  C25      1.0000 0.27310  0.94720  0.34480  Biso   1.000  C
  H22      1.0000 0.24920  0.98420  0.30430  Biso   1.000  H
  C26      1.0000 0.37160  0.87750  0.41090  Biso   1.000  C
  H23      1.0000 0.43160  0.85710  0.42510  Biso   1.000  H
  C27      1.0000 0.27420  0.85440  0.45670  Biso   1.000  C
  C28      1.0000 0.23550  0.78690  0.53250  Biso   1.000  C
  H24      1.0000 0.29200  0.76880  0.55730  Biso   1.000  H
  C29      1.0000 0.12910  0.74670  0.57210  Biso   1.000  C
  H25      1.0000 0.07280  0.77010  0.55400  Biso   1.000  H
  C30      1.0000 0.10020  0.66610  0.64370  Biso   1.000  C
  O11      1.0000 0.38380  0.37700  0.67220  Biso   1.000  O
  O12      1.0000 0.35410  0.53360  0.67050  Biso   1.000  O
  N11      1.0000 0.06410  0.43480  0.34000  Biso   1.000  N
  N12      1.0000 0.10010  0.31240  0.41350  Biso   1.000  N
  H26      1.0000 0.10200  0.24700  0.42870  Biso   1.000  H
  C31      1.0000 0.05280  0.32590  0.34480  Biso   1.000  C
  H27      1.0000 0.01580  0.26500  0.30430  Biso   1.000  H
  C32      1.0000 0.12250  0.49410  0.41090  Biso   1.000  C
  H28      1.0000 0.14290  0.57450  0.42510  Biso   1.000  H
  C33      1.0000 0.14560  0.41980  0.45670  Biso   1.000  C
  C34      1.0000 0.21310  0.44860  0.53250  Biso   1.000  C
  H29      1.0000 0.23120  0.52320  0.55730  Biso   1.000  H
  C35      1.0000 0.25330  0.38240  0.57210  Biso   1.000  C
  H30      1.0000 0.22990  0.30270  0.55400  Biso   1.000  H
  C36      1.0000 0.33390  0.43410  0.64370  Biso   1.000  C
  O13      1.0000 0.99320  0.37700  0.82780  Biso   1.000  O
  O14      1.0000 0.17950  0.53360  0.82950  Biso   1.000  O
  N13      1.0000 0.37070  0.43480  0.16000  Biso   1.000  N
  N14      1.0000 0.21230  0.31240  0.08650  Biso   1.000  N
  H31      1.0000 0.14500  0.24700  0.07130  Biso   1.000  H
  C37      1.0000 0.27310  0.32590  0.15520  Biso   1.000  C
  H32      1.0000 0.24920  0.26500  0.19570  Biso   1.000  H
  C38      1.0000 0.37160  0.49410  0.08910  Biso   1.000  C
  H33      1.0000 0.43160  0.57450  0.07490  Biso   1.000  H
  C39      1.0000 0.27420  0.41980  0.04330  Biso   1.000  C
  C40      1.0000 0.23550  0.44860  0.96750  Biso   1.000  C
  H34      1.0000 0.29200  0.52320  0.94270  Biso   1.000  H
  C41      1.0000 0.12910  0.38240  0.92790  Biso   1.000  C
  H35      1.0000 0.07280  0.30270  0.94600  Biso   1.000  H
  C42      1.0000 0.10020  0.43410  0.85630  Biso   1.000  C
  O15      1.0000 0.38380  0.00680  0.82780  Biso   1.000  O
  O16      1.0000 0.35410  0.82050  0.82950  Biso   1.000  O
  N15      1.0000 0.06410  0.62930  0.16000  Biso   1.000  N
  N16      1.0000 0.10010  0.78770  0.08650  Biso   1.000  N
  H36      1.0000 0.10200  0.85500  0.07130  Biso   1.000  H
  C43      1.0000 0.05280  0.72690  0.15520  Biso   1.000  C
  H37      1.0000 0.01580  0.75080  0.19570  Biso   1.000  H
  C44      1.0000 0.12250  0.62840  0.08910  Biso   1.000  C
  H38      1.0000 0.14290  0.56840  0.07490  Biso   1.000  H
  C45      1.0000 0.14560  0.72580  0.04330  Biso   1.000  C
  C46      1.0000 0.21310  0.76450  0.96750  Biso   1.000  C
  H39      1.0000 0.23120  0.70800  0.94270  Biso   1.000  H
  C47      1.0000 0.25330  0.87090  0.92790  Biso   1.000  C
  H40      1.0000 0.22990  0.92720  0.94600  Biso   1.000  H
  C48      1.0000 0.33390  0.89980  0.85630  Biso   1.000  C
  O17      1.0000 0.62300  0.61620  0.82780  Biso   1.000  O
  O18      1.0000 0.46640  0.64590  0.82950  Biso   1.000  O
  N17      1.0000 0.56520  0.93590  0.16000  Biso   1.000  N
  N18      1.0000 0.68760  0.89990  0.08650  Biso   1.000  N
  H41      1.0000 0.75300  0.89800  0.07130  Biso   1.000  H
  C49      1.0000 0.67410  0.94720  0.15520  Biso   1.000  C
  H42      1.0000 0.73500  0.98420  0.19570  Biso   1.000  H
  C50      1.0000 0.50590  0.87750  0.08910  Biso   1.000  C
  H43      1.0000 0.42550  0.85710  0.07490  Biso   1.000  H
  C51      1.0000 0.58020  0.85440  0.04330  Biso   1.000  C
  C52      1.0000 0.55140  0.78690  0.96750  Biso   1.000  C
  H44      1.0000 0.47680  0.76880  0.94270  Biso   1.000  H
  C53      1.0000 0.61760  0.74670  0.92790  Biso   1.000  C
  H45      1.0000 0.69730  0.77010  0.94600  Biso   1.000  H
  C54      1.0000 0.56590  0.66610  0.85630  Biso   1.000  C
  O19      1.0000 0.00680  0.62300  0.32780  Biso   1.000  O
  O20      1.0000 0.82050  0.46640  0.32950  Biso   1.000  O
  N19      1.0000 0.62930  0.56520  0.66000  Biso   1.000  N
  N20      1.0000 0.78770  0.68760  0.58650  Biso   1.000  N
  H46      1.0000 0.85500  0.75300  0.57130  Biso   1.000  H
  C55      1.0000 0.72690  0.67410  0.65520  Biso   1.000  C
  H47      1.0000 0.75080  0.73500  0.69570  Biso   1.000  H
  C56      1.0000 0.62840  0.50590  0.58910  Biso   1.000  C
  H48      1.0000 0.56840  0.42550  0.57490  Biso   1.000  H
  C57      1.0000 0.72580  0.58020  0.54330  Biso   1.000  C
  C58      1.0000 0.76450  0.55140  0.46750  Biso   1.000  C
  H49      1.0000 0.70800  0.47680  0.44270  Biso   1.000  H
  C59      1.0000 0.87090  0.61760  0.42790  Biso   1.000  C
  H50      1.0000 0.92720  0.69730  0.44600  Biso   1.000  H
  C60      1.0000 0.89980  0.56590  0.35630  Biso   1.000  C
  O21      1.0000 0.61620  0.99320  0.32780  Biso   1.000  O
  O22      1.0000 0.64590  0.17950  0.32950  Biso   1.000  O
  N21      1.0000 0.93590  0.37070  0.66000  Biso   1.000  N
  N22      1.0000 0.89990  0.21230  0.58650  Biso   1.000  N
  H51      1.0000 0.89800  0.14500  0.57130  Biso   1.000  H
  C61      1.0000 0.94720  0.27310  0.65520  Biso   1.000  C
  H52      1.0000 0.98420  0.24920  0.69570  Biso   1.000  H
  C62      1.0000 0.87750  0.37160  0.58910  Biso   1.000  C
  H53      1.0000 0.85710  0.43160  0.57490  Biso   1.000  H
  C63      1.0000 0.85440  0.27420  0.54330  Biso   1.000  C
  C64      1.0000 0.78690  0.23550  0.46750  Biso   1.000  C
  H54      1.0000 0.76880  0.29200  0.44270  Biso   1.000  H
  C65      1.0000 0.74670  0.12910  0.42790  Biso   1.000  C
  H55      1.0000 0.77010  0.07280  0.44600  Biso   1.000  H
  C66      1.0000 0.66610  0.10020  0.35630  Biso   1.000  C
  O23      1.0000 0.37700  0.38380  0.32780  Biso   1.000  O
  O24      1.0000 0.53360  0.35410  0.32950  Biso   1.000  O
  N23      1.0000 0.43480  0.06410  0.66000  Biso   1.000  N
  N24      1.0000 0.31240  0.10010  0.58650  Biso   1.000  N
  H56      1.0000 0.24700  0.10200  0.57130  Biso   1.000  H
  C67      1.0000 0.32590  0.05280  0.65520  Biso   1.000  C
  H57      1.0000 0.26500  0.01580  0.69570  Biso   1.000  H
  C68      1.0000 0.49410  0.12250  0.58910  Biso   1.000  C
  H58      1.0000 0.57450  0.14290  0.57490  Biso   1.000  H
  C69      1.0000 0.41980  0.14560  0.54330  Biso   1.000  C
  C70      1.0000 0.44860  0.21310  0.46750  Biso   1.000  C
  H59      1.0000 0.52320  0.23120  0.44270  Biso   1.000  H
  C71      1.0000 0.38240  0.25330  0.42790  Biso   1.000  C
  H60      1.0000 0.30270  0.22990  0.44600  Biso   1.000  H
  C72      1.0000 0.43410  0.33390  0.35630  Biso   1.000  C
  Cu1      1.0000 0.48886  0.97771  0.25000  Biso   1.000  Cu
  Cu2      1.0000 0.02229  0.51114  0.25000  Biso   1.000  Cu
  Cu3      1.0000 0.48886  0.51114  0.25000  Biso   1.000  Cu
  Cu4      1.0000 0.51114  0.02229  0.75000  Biso   1.000  Cu
  Cu5      1.0000 0.97771  0.48885  0.75000  Biso   1.000  Cu
  Cu6      1.0000 0.51114  0.48885  0.75000  Biso   1.000  Cu
  Cu7      1.0000 0.66667  0.33333  0.25000  Biso   1.000  Cu
  Cu8      1.0000 0.33333  0.66667  0.75000  Biso   1.000  Cu
