data_image0
_cell_length_a       5.8478
_cell_length_b       9.108
_cell_length_c       11.0349
_cell_angle_alpha    91.713
_cell_angle_beta     93.054
_cell_angle_gamma    97.672

_symmetry_space_group_name_H-M    P 1
_symmetry_int_tables_number       1

loop_
  _symmetry_equiv_pos_as_xyz
  'x, y, z'

loop_
  _atom_site_label
  _atom_site_occupancy
  _atom_site_fract_x
  _atom_site_fract_y
  _atom_site_fract_z
  _atom_site_thermal_displace_type
  _atom_site_B_iso_or_equiv
  _atom_site_type_symbol
  K1       1.0000 0.17790  0.95420  0.57480  Biso   1.000  K
  Mn1      1.0000 0.55680  0.85471  0.84498  Biso   1.000  Mn
  H1       1.0000 0.16600  0.93700  0.86500  Biso   1.000  H
  H2       1.0000 0.11600  0.29700  0.65800  Biso   1.000  H
  H3       1.0000 0.75200  0.59300  0.78100  Biso   1.000  H
  H4       1.0000 0.90000  0.62600  0.56100  Biso   1.000  H
  H5       1.0000 0.02500  0.93700  0.30200  Biso   1.000  H
  H6       1.0000 0.37700  0.84400  0.07200  Biso   1.000  H
  H7       1.0000 0.56500  0.85500  0.63800  Biso   1.000  H
  H8       1.0000 0.70400  0.99100  0.63200  Biso   1.000  H
  H9       1.0000 0.26870  0.15440  0.96890  Biso   1.000  H
  H10      1.0000 0.05500  0.28870  0.85170  Biso   1.000  H
  H11      1.0000 0.36630  0.44900  0.92350  Biso   1.000  H
  H12      1.0000 0.46610  0.46830  0.67510  Biso   1.000  H
  H13      1.0000 0.74240  0.55050  0.39330  Biso   1.000  H
  H14      1.0000 0.00490  0.68760  0.28080  Biso   1.000  H
  H15      1.0000 0.68280  0.94820  0.17150  Biso   1.000  H
  H16      1.0000 0.66440  0.63960  0.16220  Biso   1.000  H
  C1       1.0000 0.55820  0.19000  0.87370  Biso   1.000  C
  C2       1.0000 0.30340  0.14960  0.88490  Biso   1.000  C
  C3       1.0000 0.20090  0.26990  0.81840  Biso   1.000  C
  C4       1.0000 0.39380  0.40110  0.84790  Biso   1.000  C
  C5       1.0000 0.43510  0.51680  0.75190  Biso   1.000  C
  C6       1.0000 0.22170  0.59890  0.73430  Biso   1.000  C
  C7       1.0000 0.51380  0.70210  0.39320  Biso   1.000  C
  C8       1.0000 0.75170  0.65780  0.40830  Biso   1.000  C
  C9       1.0000 0.87840  0.73890  0.30770  Biso   1.000  C
  C10      1.0000 0.68810  0.85850  0.12450  Biso   1.000  C
  C11      1.0000 0.67890  0.73080  0.20960  Biso   1.000  C
  C12      1.0000 0.91070  0.87500  0.05510  Biso   1.000  C
  O1       1.0000 0.70170  0.10760  0.86970  Biso   1.000  O
  O2       1.0000 0.60940  0.33310  0.85960  Biso   1.000  O
  O3       1.0000 0.24960  0.00510  0.83690  Biso   1.000  O
  O4       1.0000 0.17310  0.23160  0.69470  Biso   1.000  O
  O5       1.0000 0.62820  0.62310  0.79060  Biso   1.000  O
  O6       1.0000 0.03630  0.51970  0.69470  Biso   1.000  O
  O7       1.0000 0.24350  0.73320  0.76070  Biso   1.000  O
  O8       1.0000 0.38060  0.71600  0.47180  Biso   1.000  O
  O9       1.0000 0.47070  0.73620  0.27820  Biso   1.000  O
  O10      1.0000 0.84720  0.69600  0.52820  Biso   1.000  O
  O11      1.0000 0.95840  0.88550  0.35200  Biso   1.000  O
  O12      1.0000 0.49510  0.83390  0.03720  Biso   1.000  O
  O13      1.0000 0.89200  0.86080  0.94120  Biso   1.000  O
  O14      1.0000 0.09690  0.90260  0.11760  Biso   1.000  O
  O15      1.0000 0.68670  0.90920  0.66760  Biso   1.000  O
