data_image0
_cell_length_a       6.3902
_cell_length_b       10.5428
_cell_length_c       31.1619
_cell_angle_alpha    90
_cell_angle_beta     90
_cell_angle_gamma    93.77

_symmetry_space_group_name_H-M    P 1
_symmetry_int_tables_number       1

loop_
  _symmetry_equiv_pos_as_xyz
  'x, y, z'

loop_
  _atom_site_label
  _atom_site_occupancy
  _atom_site_fract_x
  _atom_site_fract_y
  _atom_site_fract_z
  _atom_site_thermal_displace_type
  _atom_site_B_iso_or_equiv
  _atom_site_type_symbol
  Ag1      1.0000 0.86412  0.58536  0.75167  Biso   1.000  Ag
  Ag2      1.0000 0.36412  0.08536  0.74833  Biso   1.000  Ag
  H1       1.0000 0.20300  0.24170  0.83560  Biso   1.000  H
  H2       1.0000 0.45410  0.24850  0.83780  Biso   1.000  H
  H3       1.0000 0.15110  0.56960  0.83490  Biso   1.000  H
  H4       1.0000 0.02190  0.43430  0.83390  Biso   1.000  H
  H5       1.0000 0.65030  0.45460  0.83880  Biso   1.000  H
  H6       1.0000 0.52700  0.58200  0.83740  Biso   1.000  H
  H7       1.0000 0.02760  0.30180  0.77090  Biso   1.000  H
  H8       1.0000 0.15980  0.34840  0.72950  Biso   1.000  H
  H9       1.0000 0.35970  0.55370  0.73040  Biso   1.000  H
  H10      1.0000 0.35460  0.64250  0.77210  Biso   1.000  H
  H11      1.0000 0.54400  0.36000  0.73250  Biso   1.000  H
  H12      1.0000 0.65890  0.32000  0.77560  Biso   1.000  H
  H13      1.0000 0.70300  0.74170  0.66440  Biso   1.000  H
  H14      1.0000 0.95410  0.74850  0.66220  Biso   1.000  H
  H15      1.0000 0.65110  0.06960  0.66510  Biso   1.000  H
  H16      1.0000 0.52190  0.93430  0.66610  Biso   1.000  H
  H17      1.0000 0.15030  0.95460  0.66120  Biso   1.000  H
  H18      1.0000 0.02700  0.08200  0.66260  Biso   1.000  H
  H19      1.0000 0.52760  0.80180  0.72910  Biso   1.000  H
  H20      1.0000 0.65980  0.84840  0.77050  Biso   1.000  H
  H21      1.0000 0.85970  0.05370  0.76960  Biso   1.000  H
  H22      1.0000 0.85460  0.14250  0.72790  Biso   1.000  H
  H23      1.0000 0.04400  0.86000  0.76750  Biso   1.000  H
  H24      1.0000 0.15890  0.82000  0.72440  Biso   1.000  H
  C1       1.0000 0.33230  0.28990  0.82583  Biso   1.000  C
  C2       1.0000 0.15210  0.48150  0.82397  Biso   1.000  C
  C3       1.0000 0.52630  0.49350  0.82675  Biso   1.000  C
  C4       1.0000 0.15740  0.34990  0.76123  Biso   1.000  C
  C5       1.0000 0.35350  0.55320  0.76219  Biso   1.000  C
  C6       1.0000 0.53540  0.36090  0.76418  Biso   1.000  C
  C7       1.0000 0.83230  0.78990  0.67417  Biso   1.000  C
  C8       1.0000 0.65210  0.98150  0.67603  Biso   1.000  C
  C9       1.0000 0.02630  0.99350  0.67325  Biso   1.000  C
  C10      1.0000 0.65740  0.84990  0.73877  Biso   1.000  C
  C11      1.0000 0.85350  0.05320  0.73781  Biso   1.000  C
  C12      1.0000 0.03540  0.86090  0.73582  Biso   1.000  C
  N1       1.0000 0.54080  0.49440  0.77936  Biso   1.000  N
  N2       1.0000 0.33360  0.42160  0.84158  Biso   1.000  N
  N3       1.0000 0.34220  0.28740  0.77795  Biso   1.000  N
  N4       1.0000 0.15520  0.48370  0.77625  Biso   1.000  N
  N5       1.0000 0.04080  0.99440  0.72064  Biso   1.000  N
  N6       1.0000 0.83360  0.92160  0.65842  Biso   1.000  N
  N7       1.0000 0.84220  0.78740  0.72205  Biso   1.000  N
  N8       1.0000 0.65520  0.98370  0.72375  Biso   1.000  N
  Ag3      1.0000 0.63588  0.91464  0.25167  Biso   1.000  Ag
  Ag4      1.0000 0.13588  0.41464  0.24833  Biso   1.000  Ag
  H25      1.0000 0.29700  0.25830  0.33560  Biso   1.000  H
  H26      1.0000 0.04590  0.25150  0.33780  Biso   1.000  H
  H27      1.0000 0.34890  0.93040  0.33490  Biso   1.000  H
  H28      1.0000 0.47810  0.06570  0.33390  Biso   1.000  H
  H29      1.0000 0.84970  0.04540  0.33880  Biso   1.000  H
  H30      1.0000 0.97300  0.91800  0.33740  Biso   1.000  H
  H31      1.0000 0.47240  0.19820  0.27090  Biso   1.000  H
  H32      1.0000 0.34020  0.15160  0.22950  Biso   1.000  H
  H33      1.0000 0.14030  0.94630  0.23040  Biso   1.000  H
  H34      1.0000 0.14540  0.85750  0.27210  Biso   1.000  H
  H35      1.0000 0.95600  0.14000  0.23250  Biso   1.000  H
  H36      1.0000 0.84110  0.18000  0.27560  Biso   1.000  H
  H37      1.0000 0.79700  0.75830  0.16440  Biso   1.000  H
  H38      1.0000 0.54590  0.75150  0.16220  Biso   1.000  H
  H39      1.0000 0.84890  0.43040  0.16510  Biso   1.000  H
  H40      1.0000 0.97810  0.56570  0.16610  Biso   1.000  H
  H41      1.0000 0.34970  0.54540  0.16120  Biso   1.000  H
  H42      1.0000 0.47300  0.41800  0.16260  Biso   1.000  H
  H43      1.0000 0.97240  0.69820  0.22910  Biso   1.000  H
  H44      1.0000 0.84020  0.65160  0.27050  Biso   1.000  H
  H45      1.0000 0.64030  0.44630  0.26960  Biso   1.000  H
  H46      1.0000 0.64540  0.35750  0.22790  Biso   1.000  H
  H47      1.0000 0.45600  0.64000  0.26750  Biso   1.000  H
  H48      1.0000 0.34110  0.68000  0.22440  Biso   1.000  H
  C13      1.0000 0.16770  0.21010  0.32583  Biso   1.000  C
  C14      1.0000 0.34790  0.01850  0.32397  Biso   1.000  C
  C15      1.0000 0.97370  0.00650  0.32675  Biso   1.000  C
  C16      1.0000 0.34260  0.15010  0.26123  Biso   1.000  C
  C17      1.0000 0.14650  0.94680  0.26219  Biso   1.000  C
  C18      1.0000 0.96460  0.13910  0.26418  Biso   1.000  C
  C19      1.0000 0.66770  0.71010  0.17417  Biso   1.000  C
  C20      1.0000 0.84790  0.51850  0.17603  Biso   1.000  C
  C21      1.0000 0.47370  0.50650  0.17325  Biso   1.000  C
  C22      1.0000 0.84260  0.65010  0.23877  Biso   1.000  C
  C23      1.0000 0.64650  0.44680  0.23781  Biso   1.000  C
  C24      1.0000 0.46460  0.63910  0.23582  Biso   1.000  C
  N9       1.0000 0.95920  0.00560  0.27936  Biso   1.000  N
  N10      1.0000 0.16640  0.07840  0.34158  Biso   1.000  N
  N11      1.0000 0.15780  0.21260  0.27795  Biso   1.000  N
  N12      1.0000 0.34480  0.01630  0.27625  Biso   1.000  N
  N13      1.0000 0.45920  0.50560  0.22064  Biso   1.000  N
  N14      1.0000 0.66640  0.57840  0.15842  Biso   1.000  N
  N15      1.0000 0.65780  0.71260  0.22205  Biso   1.000  N
  N16      1.0000 0.84480  0.51630  0.22375  Biso   1.000  N
  H49      1.0000 0.92860  0.54490  0.59230  Biso   1.000  H
  H50      1.0000 0.92970  0.39890  0.57840  Biso   1.000  H
  H51      1.0000 0.56420  0.37120  0.58680  Biso   1.000  H
  H52      1.0000 0.55570  0.51130  0.60620  Biso   1.000  H
  H53      1.0000 0.32660  0.58790  0.55720  Biso   1.000  H
  H54      1.0000 0.29240  0.44560  0.53920  Biso   1.000  H
  H55      1.0000 0.58620  0.33740  0.51270  Biso   1.000  H
  H56      1.0000 0.81610  0.40810  0.51250  Biso   1.000  H
  H57      1.0000 0.07140  0.45510  0.40770  Biso   1.000  H
  H58      1.0000 0.07030  0.60110  0.42160  Biso   1.000  H
  H59      1.0000 0.43580  0.62880  0.41320  Biso   1.000  H
  H60      1.0000 0.44430  0.48870  0.39380  Biso   1.000  H
  H61      1.0000 0.67340  0.41210  0.44280  Biso   1.000  H
  H62      1.0000 0.70760  0.55440  0.46080  Biso   1.000  H
  H63      1.0000 0.41380  0.66260  0.48730  Biso   1.000  H
  H64      1.0000 0.18390  0.59190  0.48750  Biso   1.000  H
  C25      1.0000 0.86070  0.45900  0.59726  Biso   1.000  C
  C26      1.0000 0.62840  0.45910  0.58521  Biso   1.000  C
  C27      1.0000 0.37450  0.52780  0.53541  Biso   1.000  C
  C28      1.0000 0.66490  0.42080  0.50906  Biso   1.000  C
  C29      1.0000 0.13930  0.54100  0.40274  Biso   1.000  C
  C30      1.0000 0.37160  0.54090  0.41479  Biso   1.000  C
  C31      1.0000 0.62550  0.47220  0.46459  Biso   1.000  C
  C32      1.0000 0.33510  0.57920  0.49094  Biso   1.000  C
  S1       1.0000 0.89875  0.41552  0.65135  Biso   1.000  S
  S2       1.0000 0.10125  0.58448  0.34865  Biso   1.000  S
  N17      1.0000 0.59860  0.50950  0.54206  Biso   1.000  N
  N18      1.0000 0.40140  0.49050  0.45794  Biso   1.000  N
  O1       1.0000 0.78170  0.50060  0.67774  Biso   1.000  O
  O2       1.0000 0.82040  0.28320  0.65615  Biso   1.000  O
  O3       1.0000 0.12640  0.43230  0.65814  Biso   1.000  O
  O4       1.0000 0.21830  0.49940  0.32226  Biso   1.000  O
  O5       1.0000 0.17960  0.71680  0.34385  Biso   1.000  O
  O6       1.0000 0.87360  0.56770  0.34186  Biso   1.000  O
  H65      1.0000 0.57140  0.95510  0.09230  Biso   1.000  H
  H66      1.0000 0.57030  0.10110  0.07840  Biso   1.000  H
  H67      1.0000 0.93580  0.12880  0.08680  Biso   1.000  H
  H68      1.0000 0.94430  0.98870  0.10620  Biso   1.000  H
  H69      1.0000 0.17340  0.91210  0.05720  Biso   1.000  H
  H70      1.0000 0.20760  0.05440  0.03920  Biso   1.000  H
  H71      1.0000 0.91380  0.16260  0.01270  Biso   1.000  H
  H72      1.0000 0.68390  0.09190  0.01250  Biso   1.000  H
  H73      1.0000 0.42860  0.04490  0.90770  Biso   1.000  H
  H74      1.0000 0.42970  0.89890  0.92160  Biso   1.000  H
  H75      1.0000 0.06420  0.87120  0.91320  Biso   1.000  H
  H76      1.0000 0.05570  0.01130  0.89380  Biso   1.000  H
  H77      1.0000 0.82660  0.08790  0.94280  Biso   1.000  H
  H78      1.0000 0.79240  0.94560  0.96080  Biso   1.000  H
  H79      1.0000 0.08620  0.83740  0.98730  Biso   1.000  H
  H80      1.0000 0.31610  0.90810  0.98750  Biso   1.000  H
  C33      1.0000 0.63930  0.04100  0.09726  Biso   1.000  C
  C34      1.0000 0.87160  0.04090  0.08521  Biso   1.000  C
  C35      1.0000 0.12550  0.97220  0.03541  Biso   1.000  C
  C36      1.0000 0.83510  0.07920  0.00906  Biso   1.000  C
  C37      1.0000 0.36070  0.95900  0.90274  Biso   1.000  C
  C38      1.0000 0.12840  0.95910  0.91479  Biso   1.000  C
  C39      1.0000 0.87450  0.02780  0.96459  Biso   1.000  C
  C40      1.0000 0.16490  0.92080  0.99094  Biso   1.000  C
  S3       1.0000 0.60125  0.08448  0.15135  Biso   1.000  S
  S4       1.0000 0.39875  0.91552  0.84865  Biso   1.000  S
  N19      1.0000 0.90140  0.99050  0.04206  Biso   1.000  N
  N20      1.0000 0.09860  0.00950  0.95794  Biso   1.000  N
  O7       1.0000 0.71830  0.99940  0.17774  Biso   1.000  O
  O8       1.0000 0.67960  0.21680  0.15615  Biso   1.000  O
  O9       1.0000 0.37360  0.06770  0.15814  Biso   1.000  O
  O10      1.0000 0.28170  0.00060  0.82226  Biso   1.000  O
  O11      1.0000 0.32040  0.78320  0.84385  Biso   1.000  O
  O12      1.0000 0.62640  0.93230  0.84186  Biso   1.000  O
