data_image0
_cell_length_a       24.958
_cell_length_b       24.958
_cell_length_c       13.8496
_cell_angle_alpha    90
_cell_angle_beta     90
_cell_angle_gamma    90

_symmetry_space_group_name_H-M    "P 1"
_symmetry_int_tables_number       1

loop_
  _symmetry_equiv_pos_as_xyz
  'x, y, z'

loop_
  _atom_site_label
  _atom_site_occupancy
  _atom_site_fract_x
  _atom_site_fract_y
  _atom_site_fract_z
  _atom_site_thermal_displace_type
  _atom_site_B_iso_or_equiv
  _atom_site_type_symbol
  S1       1.0000 0.34270  0.46965  0.49270  Biso   1.000  S
  C1       1.0000 0.39370  0.42760  0.44720  Biso   1.000  C
  C2       1.0000 0.43760  0.40820  0.49800  Biso   1.000  C
  C3       1.0000 0.47280  0.37250  0.45400  Biso   1.000  C
  C4       1.0000 0.46410  0.35630  0.35930  Biso   1.000  C
  H1       1.0000 0.48810  0.33200  0.32930  Biso   1.000  H
  C5       1.0000 0.42010  0.37580  0.30850  Biso   1.000  C
  C6       1.0000 0.38490  0.41140  0.35250  Biso   1.000  C
  H2       1.0000 0.35490  0.42470  0.31770  Biso   1.000  H
  S2       1.0000 0.45034  0.42611  0.62300  Biso   1.000  S
  C7       1.0000 0.39280  0.39840  0.68540  Biso   1.000  C
  H3       1.0000 0.38750  0.41800  0.74680  Biso   1.000  H
  H4       1.0000 0.36050  0.40360  0.64520  Biso   1.000  H
  C8       1.0000 0.39920  0.34110  0.70630  Biso   1.000  C
  H5       1.0000 0.36450  0.32710  0.72970  Biso   1.000  H
  H6       1.0000 0.40760  0.32240  0.64500  Biso   1.000  H
  N1       1.0000 0.44000  0.32730  0.77610  Biso   1.000  N
  N2       1.0000 0.47770  0.29010  0.76200  Biso   1.000  N
  C9       1.0000 0.50540  0.28570  0.84050  Biso   1.000  C
  H7       1.0000 0.53570  0.26320  0.84920  Biso   1.000  H
  C10      1.0000 0.48370  0.31940  0.91000  Biso   1.000  C
  H8       1.0000 0.49540  0.32440  0.97470  Biso   1.000  H
  C11      1.0000 0.44160  0.34390  0.86450  Biso   1.000  C
  H9       1.0000 0.41760  0.36880  0.89300  Biso   1.000  H
  C12      1.0000 0.41300  0.36350  0.19820  Biso   1.000  C
  C13      1.0000 0.42900  0.41160  0.13900  Biso   1.000  C
  H10      1.0000 0.45580  0.40090  0.09110  Biso   1.000  H
  H11      1.0000 0.44420  0.43910  0.18150  Biso   1.000  H
  H12      1.0000 0.39740  0.42600  0.10600  Biso   1.000  H
  C14      1.0000 0.35300  0.34810  0.17990  Biso   1.000  C
  H13      1.0000 0.35130  0.31830  0.13400  Biso   1.000  H
  H14      1.0000 0.33390  0.37910  0.15340  Biso   1.000  H
  H15      1.0000 0.33640  0.33740  0.24100  Biso   1.000  H
  C15      1.0000 0.44690  0.31540  0.16570  Biso   1.000  C
  H16      1.0000 0.44180  0.28560  0.21090  Biso   1.000  H
  H17      1.0000 0.48480  0.32560  0.16450  Biso   1.000  H
  H18      1.0000 0.43570  0.30420  0.10090  Biso   1.000  H
  S3       1.0000 0.84270  0.96965  0.99270  Biso   1.000  S
  C16      1.0000 0.89370  0.92760  0.94720  Biso   1.000  C
  C17      1.0000 0.93760  0.90820  0.99800  Biso   1.000  C
  C18      1.0000 0.97280  0.87250  0.95400  Biso   1.000  C
  C19      1.0000 0.96410  0.85630  0.85930  Biso   1.000  C
  H19      1.0000 0.98810  0.83200  0.82930  Biso   1.000  H
  C20      1.0000 0.92010  0.87580  0.80850  Biso   1.000  C
  C21      1.0000 0.88490  0.91140  0.85250  Biso   1.000  C
  H20      1.0000 0.85490  0.92470  0.81770  Biso   1.000  H
  S4       1.0000 0.95034  0.92611  0.12300  Biso   1.000  S
  C22      1.0000 0.89280  0.89840  0.18540  Biso   1.000  C
  H21      1.0000 0.88750  0.91800  0.24680  Biso   1.000  H
  H22      1.0000 0.86050  0.90360  0.14520  Biso   1.000  H
  C23      1.0000 0.89920  0.84110  0.20630  Biso   1.000  C
  H23      1.0000 0.86450  0.82710  0.22970  Biso   1.000  H
  H24      1.0000 0.90760  0.82240  0.14500  Biso   1.000  H
  N3       1.0000 0.94000  0.82730  0.27610  Biso   1.000  N
  N4       1.0000 0.97770  0.79010  0.26200  Biso   1.000  N
  C24      1.0000 0.00540  0.78570  0.34050  Biso   1.000  C
  H25      1.0000 0.03570  0.76320  0.34920  Biso   1.000  H
  C25      1.0000 0.98370  0.81940  0.41000  Biso   1.000  C
  H26      1.0000 0.99540  0.82440  0.47470  Biso   1.000  H
  C26      1.0000 0.94160  0.84390  0.36450  Biso   1.000  C
  H27      1.0000 0.91760  0.86880  0.39300  Biso   1.000  H
  C27      1.0000 0.91300  0.86350  0.69820  Biso   1.000  C
  C28      1.0000 0.92900  0.91160  0.63900  Biso   1.000  C
  H28      1.0000 0.95580  0.90090  0.59110  Biso   1.000  H
  H29      1.0000 0.94420  0.93910  0.68150  Biso   1.000  H
  H30      1.0000 0.89740  0.92600  0.60600  Biso   1.000  H
  C29      1.0000 0.85300  0.84810  0.67990  Biso   1.000  C
  H31      1.0000 0.85130  0.81830  0.63400  Biso   1.000  H
  H32      1.0000 0.83390  0.87910  0.65340  Biso   1.000  H
  H33      1.0000 0.83640  0.83740  0.74100  Biso   1.000  H
  C30      1.0000 0.94690  0.81540  0.66570  Biso   1.000  C
  H34      1.0000 0.94180  0.78560  0.71090  Biso   1.000  H
  H35      1.0000 0.98480  0.82560  0.66450  Biso   1.000  H
  H36      1.0000 0.93570  0.80420  0.60090  Biso   1.000  H
  S5       1.0000 0.65730  0.53035  0.49270  Biso   1.000  S
  C31      1.0000 0.60630  0.57240  0.44720  Biso   1.000  C
  C32      1.0000 0.56240  0.59180  0.49800  Biso   1.000  C
  C33      1.0000 0.52720  0.62750  0.45400  Biso   1.000  C
  C34      1.0000 0.53590  0.64370  0.35930  Biso   1.000  C
  H37      1.0000 0.51190  0.66800  0.32930  Biso   1.000  H
  C35      1.0000 0.57990  0.62420  0.30850  Biso   1.000  C
  C36      1.0000 0.61510  0.58860  0.35250  Biso   1.000  C
  H38      1.0000 0.64510  0.57530  0.31770  Biso   1.000  H
  S6       1.0000 0.54966  0.57389  0.62300  Biso   1.000  S
  C37      1.0000 0.60720  0.60160  0.68540  Biso   1.000  C
  H39      1.0000 0.61250  0.58200  0.74680  Biso   1.000  H
  H40      1.0000 0.63950  0.59640  0.64520  Biso   1.000  H
  C38      1.0000 0.60080  0.65890  0.70630  Biso   1.000  C
  H41      1.0000 0.63550  0.67290  0.72970  Biso   1.000  H
  H42      1.0000 0.59240  0.67760  0.64500  Biso   1.000  H
  N5       1.0000 0.56000  0.67270  0.77610  Biso   1.000  N
  N6       1.0000 0.52230  0.70990  0.76200  Biso   1.000  N
  C39      1.0000 0.49460  0.71430  0.84050  Biso   1.000  C
  H43      1.0000 0.46430  0.73680  0.84920  Biso   1.000  H
  C40      1.0000 0.51630  0.68060  0.91000  Biso   1.000  C
  H44      1.0000 0.50460  0.67560  0.97470  Biso   1.000  H
  C41      1.0000 0.55840  0.65610  0.86450  Biso   1.000  C
  H45      1.0000 0.58240  0.63120  0.89300  Biso   1.000  H
  C42      1.0000 0.58700  0.63650  0.19820  Biso   1.000  C
  C43      1.0000 0.57100  0.58840  0.13900  Biso   1.000  C
  H46      1.0000 0.54420  0.59910  0.09110  Biso   1.000  H
  H47      1.0000 0.55580  0.56090  0.18150  Biso   1.000  H
  H48      1.0000 0.60260  0.57400  0.10600  Biso   1.000  H
  C44      1.0000 0.64700  0.65190  0.17990  Biso   1.000  C
  H49      1.0000 0.64870  0.68170  0.13400  Biso   1.000  H
  H50      1.0000 0.66610  0.62090  0.15340  Biso   1.000  H
  H51      1.0000 0.66360  0.66260  0.24100  Biso   1.000  H
  C45      1.0000 0.55310  0.68460  0.16570  Biso   1.000  C
  H52      1.0000 0.55820  0.71440  0.21090  Biso   1.000  H
  H53      1.0000 0.51520  0.67440  0.16450  Biso   1.000  H
  H54      1.0000 0.56430  0.69580  0.10090  Biso   1.000  H
  S7       1.0000 0.15730  0.03035  0.99270  Biso   1.000  S
  C46      1.0000 0.10630  0.07240  0.94720  Biso   1.000  C
  C47      1.0000 0.06240  0.09180  0.99800  Biso   1.000  C
  C48      1.0000 0.02720  0.12750  0.95400  Biso   1.000  C
  C49      1.0000 0.03590  0.14370  0.85930  Biso   1.000  C
  H55      1.0000 0.01190  0.16800  0.82930  Biso   1.000  H
  C50      1.0000 0.07990  0.12420  0.80850  Biso   1.000  C
  C51      1.0000 0.11510  0.08860  0.85250  Biso   1.000  C
  H56      1.0000 0.14510  0.07530  0.81770  Biso   1.000  H
  S8       1.0000 0.04966  0.07389  0.12300  Biso   1.000  S
  C52      1.0000 0.10720  0.10160  0.18540  Biso   1.000  C
  H57      1.0000 0.11250  0.08200  0.24680  Biso   1.000  H
  H58      1.0000 0.13950  0.09640  0.14520  Biso   1.000  H
  C53      1.0000 0.10080  0.15890  0.20630  Biso   1.000  C
  H59      1.0000 0.13550  0.17290  0.22970  Biso   1.000  H
  H60      1.0000 0.09240  0.17760  0.14500  Biso   1.000  H
  N7       1.0000 0.06000  0.17270  0.27610  Biso   1.000  N
  N8       1.0000 0.02230  0.20990  0.26200  Biso   1.000  N
  C54      1.0000 0.99460  0.21430  0.34050  Biso   1.000  C
  H61      1.0000 0.96430  0.23680  0.34920  Biso   1.000  H
  C55      1.0000 0.01630  0.18060  0.41000  Biso   1.000  C
  H62      1.0000 0.00460  0.17560  0.47470  Biso   1.000  H
  C56      1.0000 0.05840  0.15610  0.36450  Biso   1.000  C
  H63      1.0000 0.08240  0.13120  0.39300  Biso   1.000  H
  C57      1.0000 0.08700  0.13650  0.69820  Biso   1.000  C
  C58      1.0000 0.07100  0.08840  0.63900  Biso   1.000  C
  H64      1.0000 0.04420  0.09910  0.59110  Biso   1.000  H
  H65      1.0000 0.05580  0.06090  0.68150  Biso   1.000  H
  H66      1.0000 0.10260  0.07400  0.60600  Biso   1.000  H
  C59      1.0000 0.14700  0.15190  0.67990  Biso   1.000  C
  H67      1.0000 0.14870  0.18170  0.63400  Biso   1.000  H
  H68      1.0000 0.16610  0.12090  0.65340  Biso   1.000  H
  H69      1.0000 0.16360  0.16260  0.74100  Biso   1.000  H
  C60      1.0000 0.05310  0.18460  0.66570  Biso   1.000  C
  H70      1.0000 0.05820  0.21440  0.71090  Biso   1.000  H
  H71      1.0000 0.01520  0.17440  0.66450  Biso   1.000  H
  H72      1.0000 0.06430  0.19580  0.60090  Biso   1.000  H
  S9       1.0000 0.46965  0.65730  0.50730  Biso   1.000  S
  C61      1.0000 0.42760  0.60630  0.55280  Biso   1.000  C
  C62      1.0000 0.40820  0.56240  0.50200  Biso   1.000  C
  C63      1.0000 0.37250  0.52720  0.54600  Biso   1.000  C
  C64      1.0000 0.35630  0.53590  0.64070  Biso   1.000  C
  H73      1.0000 0.33200  0.51190  0.67070  Biso   1.000  H
  C65      1.0000 0.37580  0.57990  0.69150  Biso   1.000  C
  C66      1.0000 0.41140  0.61510  0.64750  Biso   1.000  C
  H74      1.0000 0.42470  0.64510  0.68230  Biso   1.000  H
  S10      1.0000 0.42611  0.54966  0.37700  Biso   1.000  S
  C67      1.0000 0.39840  0.60720  0.31460  Biso   1.000  C
  H75      1.0000 0.41800  0.61250  0.25320  Biso   1.000  H
  H76      1.0000 0.40360  0.63950  0.35480  Biso   1.000  H
  C68      1.0000 0.34110  0.60080  0.29370  Biso   1.000  C
  H77      1.0000 0.32710  0.63550  0.27030  Biso   1.000  H
  H78      1.0000 0.32240  0.59240  0.35500  Biso   1.000  H
  N9       1.0000 0.32730  0.56000  0.22390  Biso   1.000  N
  N10      1.0000 0.29010  0.52230  0.23800  Biso   1.000  N
  C69      1.0000 0.28570  0.49460  0.15950  Biso   1.000  C
  H79      1.0000 0.26320  0.46430  0.15080  Biso   1.000  H
  C70      1.0000 0.31940  0.51630  0.09000  Biso   1.000  C
  H80      1.0000 0.32440  0.50460  0.02530  Biso   1.000  H
  C71      1.0000 0.34390  0.55840  0.13550  Biso   1.000  C
  H81      1.0000 0.36880  0.58240  0.10700  Biso   1.000  H
  C72      1.0000 0.36350  0.58700  0.80180  Biso   1.000  C
  C73      1.0000 0.41160  0.57100  0.86100  Biso   1.000  C
  H82      1.0000 0.40090  0.54420  0.90890  Biso   1.000  H
  H83      1.0000 0.43910  0.55580  0.81850  Biso   1.000  H
  H84      1.0000 0.42600  0.60260  0.89400  Biso   1.000  H
  C74      1.0000 0.34810  0.64700  0.82010  Biso   1.000  C
  H85      1.0000 0.31830  0.64870  0.86600  Biso   1.000  H
  H86      1.0000 0.37910  0.66610  0.84660  Biso   1.000  H
  H87      1.0000 0.33740  0.66360  0.75900  Biso   1.000  H
  C75      1.0000 0.31540  0.55310  0.83430  Biso   1.000  C
  H88      1.0000 0.28560  0.55820  0.78910  Biso   1.000  H
  H89      1.0000 0.32560  0.51520  0.83550  Biso   1.000  H
  H90      1.0000 0.30420  0.56430  0.89910  Biso   1.000  H
  S11      1.0000 0.96965  0.15730  0.00730  Biso   1.000  S
  C76      1.0000 0.92760  0.10630  0.05280  Biso   1.000  C
  C77      1.0000 0.90820  0.06240  0.00200  Biso   1.000  C
  C78      1.0000 0.87250  0.02720  0.04600  Biso   1.000  C
  C79      1.0000 0.85630  0.03590  0.14070  Biso   1.000  C
  H91      1.0000 0.83200  0.01190  0.17070  Biso   1.000  H
  C80      1.0000 0.87580  0.07990  0.19150  Biso   1.000  C
  C81      1.0000 0.91140  0.11510  0.14750  Biso   1.000  C
  H92      1.0000 0.92470  0.14510  0.18230  Biso   1.000  H
  S12      1.0000 0.92611  0.04966  0.87700  Biso   1.000  S
  C82      1.0000 0.89840  0.10720  0.81460  Biso   1.000  C
  H93      1.0000 0.91800  0.11250  0.75320  Biso   1.000  H
  H94      1.0000 0.90360  0.13950  0.85480  Biso   1.000  H
  C83      1.0000 0.84110  0.10080  0.79370  Biso   1.000  C
  H95      1.0000 0.82710  0.13550  0.77030  Biso   1.000  H
  H96      1.0000 0.82240  0.09240  0.85500  Biso   1.000  H
  N11      1.0000 0.82730  0.06000  0.72390  Biso   1.000  N
  N12      1.0000 0.79010  0.02230  0.73800  Biso   1.000  N
  C84      1.0000 0.78570  0.99460  0.65950  Biso   1.000  C
  H97      1.0000 0.76320  0.96430  0.65080  Biso   1.000  H
  C85      1.0000 0.81940  0.01630  0.59000  Biso   1.000  C
  H98      1.0000 0.82440  0.00460  0.52530  Biso   1.000  H
  C86      1.0000 0.84390  0.05840  0.63550  Biso   1.000  C
  H99      1.0000 0.86880  0.08240  0.60700  Biso   1.000  H
  C87      1.0000 0.86350  0.08700  0.30180  Biso   1.000  C
  C88      1.0000 0.91160  0.07100  0.36100  Biso   1.000  C
  H100     1.0000 0.90090  0.04420  0.40890  Biso   1.000  H
  H101     1.0000 0.93910  0.05580  0.31850  Biso   1.000  H
  H102     1.0000 0.92600  0.10260  0.39400  Biso   1.000  H
  C89      1.0000 0.84810  0.14700  0.32010  Biso   1.000  C
  H103     1.0000 0.81830  0.14870  0.36600  Biso   1.000  H
  H104     1.0000 0.87910  0.16610  0.34660  Biso   1.000  H
  H105     1.0000 0.83740  0.16360  0.25900  Biso   1.000  H
  C90      1.0000 0.81540  0.05310  0.33430  Biso   1.000  C
  H106     1.0000 0.78560  0.05820  0.28910  Biso   1.000  H
  H107     1.0000 0.82560  0.01520  0.33550  Biso   1.000  H
  H108     1.0000 0.80420  0.06430  0.39910  Biso   1.000  H
  S13      1.0000 0.53035  0.34270  0.50730  Biso   1.000  S
  C91      1.0000 0.57240  0.39370  0.55280  Biso   1.000  C
  C92      1.0000 0.59180  0.43760  0.50200  Biso   1.000  C
  C93      1.0000 0.62750  0.47280  0.54600  Biso   1.000  C
  C94      1.0000 0.64370  0.46410  0.64070  Biso   1.000  C
  H109     1.0000 0.66800  0.48810  0.67070  Biso   1.000  H
  C95      1.0000 0.62420  0.42010  0.69150  Biso   1.000  C
  C96      1.0000 0.58860  0.38490  0.64750  Biso   1.000  C
  H110     1.0000 0.57530  0.35490  0.68230  Biso   1.000  H
  S14      1.0000 0.57389  0.45034  0.37700  Biso   1.000  S
  C97      1.0000 0.60160  0.39280  0.31460  Biso   1.000  C
  H111     1.0000 0.58200  0.38750  0.25320  Biso   1.000  H
  H112     1.0000 0.59640  0.36050  0.35480  Biso   1.000  H
  C98      1.0000 0.65890  0.39920  0.29370  Biso   1.000  C
  H113     1.0000 0.67290  0.36450  0.27030  Biso   1.000  H
  H114     1.0000 0.67760  0.40760  0.35500  Biso   1.000  H
  N13      1.0000 0.67270  0.44000  0.22390  Biso   1.000  N
  N14      1.0000 0.70990  0.47770  0.23800  Biso   1.000  N
  C99      1.0000 0.71430  0.50540  0.15950  Biso   1.000  C
  H115     1.0000 0.73680  0.53570  0.15080  Biso   1.000  H
  C100     1.0000 0.68060  0.48370  0.09000  Biso   1.000  C
  H116     1.0000 0.67560  0.49540  0.02530  Biso   1.000  H
  C101     1.0000 0.65610  0.44160  0.13550  Biso   1.000  C
  H117     1.0000 0.63120  0.41760  0.10700  Biso   1.000  H
  C102     1.0000 0.63650  0.41300  0.80180  Biso   1.000  C
  C103     1.0000 0.58840  0.42900  0.86100  Biso   1.000  C
  H118     1.0000 0.59910  0.45580  0.90890  Biso   1.000  H
  H119     1.0000 0.56090  0.44420  0.81850  Biso   1.000  H
  H120     1.0000 0.57400  0.39740  0.89400  Biso   1.000  H
  C104     1.0000 0.65190  0.35300  0.82010  Biso   1.000  C
  H121     1.0000 0.68170  0.35130  0.86600  Biso   1.000  H
  H122     1.0000 0.62090  0.33390  0.84660  Biso   1.000  H
  H123     1.0000 0.66260  0.33640  0.75900  Biso   1.000  H
  C105     1.0000 0.68460  0.44690  0.83430  Biso   1.000  C
  H124     1.0000 0.71440  0.44180  0.78910  Biso   1.000  H
  H125     1.0000 0.67440  0.48480  0.83550  Biso   1.000  H
  H126     1.0000 0.69580  0.43570  0.89910  Biso   1.000  H
  S15      1.0000 0.03035  0.84270  0.00730  Biso   1.000  S
  C106     1.0000 0.07240  0.89370  0.05280  Biso   1.000  C
  C107     1.0000 0.09180  0.93760  0.00200  Biso   1.000  C
  C108     1.0000 0.12750  0.97280  0.04600  Biso   1.000  C
  C109     1.0000 0.14370  0.96410  0.14070  Biso   1.000  C
  H127     1.0000 0.16800  0.98810  0.17070  Biso   1.000  H
  C110     1.0000 0.12420  0.92010  0.19150  Biso   1.000  C
  C111     1.0000 0.08860  0.88490  0.14750  Biso   1.000  C
  H128     1.0000 0.07530  0.85490  0.18230  Biso   1.000  H
  S16      1.0000 0.07389  0.95034  0.87700  Biso   1.000  S
  C112     1.0000 0.10160  0.89280  0.81460  Biso   1.000  C
  H129     1.0000 0.08200  0.88750  0.75320  Biso   1.000  H
  H130     1.0000 0.09640  0.86050  0.85480  Biso   1.000  H
  C113     1.0000 0.15890  0.89920  0.79370  Biso   1.000  C
  H131     1.0000 0.17290  0.86450  0.77030  Biso   1.000  H
  H132     1.0000 0.17760  0.90760  0.85500  Biso   1.000  H
  N15      1.0000 0.17270  0.94000  0.72390  Biso   1.000  N
  N16      1.0000 0.20990  0.97770  0.73800  Biso   1.000  N
  C114     1.0000 0.21430  0.00540  0.65950  Biso   1.000  C
  H133     1.0000 0.23680  0.03570  0.65080  Biso   1.000  H
  C115     1.0000 0.18060  0.98370  0.59000  Biso   1.000  C
  H134     1.0000 0.17560  0.99540  0.52530  Biso   1.000  H
  C116     1.0000 0.15610  0.94160  0.63550  Biso   1.000  C
  H135     1.0000 0.13120  0.91760  0.60700  Biso   1.000  H
  C117     1.0000 0.13650  0.91300  0.30180  Biso   1.000  C
  C118     1.0000 0.08840  0.92900  0.36100  Biso   1.000  C
  H136     1.0000 0.09910  0.95580  0.40890  Biso   1.000  H
  H137     1.0000 0.06090  0.94420  0.31850  Biso   1.000  H
  H138     1.0000 0.07400  0.89740  0.39400  Biso   1.000  H
  C119     1.0000 0.15190  0.85300  0.32010  Biso   1.000  C
  H139     1.0000 0.18170  0.85130  0.36600  Biso   1.000  H
  H140     1.0000 0.12090  0.83390  0.34660  Biso   1.000  H
  H141     1.0000 0.16260  0.83640  0.25900  Biso   1.000  H
  C120     1.0000 0.18460  0.94690  0.33430  Biso   1.000  C
  H142     1.0000 0.21440  0.94180  0.28910  Biso   1.000  H
  H143     1.0000 0.17440  0.98480  0.33550  Biso   1.000  H
  H144     1.0000 0.19580  0.93570  0.39910  Biso   1.000  H
  S17      1.0000 0.15730  0.46965  0.25730  Biso   1.000  S
  C121     1.0000 0.10630  0.42760  0.30280  Biso   1.000  C
  C122     1.0000 0.06240  0.40820  0.25200  Biso   1.000  C
  C123     1.0000 0.02720  0.37250  0.29600  Biso   1.000  C
  C124     1.0000 0.03590  0.35630  0.39070  Biso   1.000  C
  H145     1.0000 0.01190  0.33200  0.42070  Biso   1.000  H
  C125     1.0000 0.07990  0.37580  0.44150  Biso   1.000  C
  C126     1.0000 0.11510  0.41140  0.39750  Biso   1.000  C
  H146     1.0000 0.14510  0.42470  0.43230  Biso   1.000  H
  S18      1.0000 0.04966  0.42611  0.12700  Biso   1.000  S
  C127     1.0000 0.10720  0.39840  0.06460  Biso   1.000  C
  H147     1.0000 0.11250  0.41800  0.00320  Biso   1.000  H
  H148     1.0000 0.13950  0.40360  0.10480  Biso   1.000  H
  C128     1.0000 0.10080  0.34110  0.04370  Biso   1.000  C
  H149     1.0000 0.13550  0.32710  0.02030  Biso   1.000  H
  H150     1.0000 0.09240  0.32240  0.10500  Biso   1.000  H
  N17      1.0000 0.06000  0.32730  0.97390  Biso   1.000  N
  N18      1.0000 0.02230  0.29010  0.98800  Biso   1.000  N
  C129     1.0000 0.99460  0.28570  0.90950  Biso   1.000  C
  H151     1.0000 0.96430  0.26320  0.90080  Biso   1.000  H
  C130     1.0000 0.01630  0.31940  0.84000  Biso   1.000  C
  H152     1.0000 0.00460  0.32440  0.77530  Biso   1.000  H
  C131     1.0000 0.05840  0.34390  0.88550  Biso   1.000  C
  H153     1.0000 0.08240  0.36880  0.85700  Biso   1.000  H
  C132     1.0000 0.08700  0.36350  0.55180  Biso   1.000  C
  C133     1.0000 0.07100  0.41160  0.61100  Biso   1.000  C
  H154     1.0000 0.04420  0.40090  0.65890  Biso   1.000  H
  H155     1.0000 0.05580  0.43910  0.56850  Biso   1.000  H
  H156     1.0000 0.10260  0.42600  0.64400  Biso   1.000  H
  C134     1.0000 0.14700  0.34810  0.57010  Biso   1.000  C
  H157     1.0000 0.14870  0.31830  0.61600  Biso   1.000  H
  H158     1.0000 0.16610  0.37910  0.59660  Biso   1.000  H
  H159     1.0000 0.16360  0.33740  0.50900  Biso   1.000  H
  C135     1.0000 0.05310  0.31540  0.58430  Biso   1.000  C
  H160     1.0000 0.05820  0.28560  0.53910  Biso   1.000  H
  H161     1.0000 0.01520  0.32560  0.58550  Biso   1.000  H
  H162     1.0000 0.06430  0.30420  0.64910  Biso   1.000  H
  S19      1.0000 0.65730  0.96965  0.75730  Biso   1.000  S
  C136     1.0000 0.60630  0.92760  0.80280  Biso   1.000  C
  C137     1.0000 0.56240  0.90820  0.75200  Biso   1.000  C
  C138     1.0000 0.52720  0.87250  0.79600  Biso   1.000  C
  C139     1.0000 0.53590  0.85630  0.89070  Biso   1.000  C
  H163     1.0000 0.51190  0.83200  0.92070  Biso   1.000  H
  C140     1.0000 0.57990  0.87580  0.94150  Biso   1.000  C
  C141     1.0000 0.61510  0.91140  0.89750  Biso   1.000  C
  H164     1.0000 0.64510  0.92470  0.93230  Biso   1.000  H
  S20      1.0000 0.54966  0.92611  0.62700  Biso   1.000  S
  C142     1.0000 0.60720  0.89840  0.56460  Biso   1.000  C
  H165     1.0000 0.61250  0.91800  0.50320  Biso   1.000  H
  H166     1.0000 0.63950  0.90360  0.60480  Biso   1.000  H
  C143     1.0000 0.60080  0.84110  0.54370  Biso   1.000  C
  H167     1.0000 0.63550  0.82710  0.52030  Biso   1.000  H
  H168     1.0000 0.59240  0.82240  0.60500  Biso   1.000  H
  N19      1.0000 0.56000  0.82730  0.47390  Biso   1.000  N
  N20      1.0000 0.52230  0.79010  0.48800  Biso   1.000  N
  C144     1.0000 0.49460  0.78570  0.40950  Biso   1.000  C
  H169     1.0000 0.46430  0.76320  0.40080  Biso   1.000  H
  C145     1.0000 0.51630  0.81940  0.34000  Biso   1.000  C
  H170     1.0000 0.50460  0.82440  0.27530  Biso   1.000  H
  C146     1.0000 0.55840  0.84390  0.38550  Biso   1.000  C
  H171     1.0000 0.58240  0.86880  0.35700  Biso   1.000  H
  C147     1.0000 0.58700  0.86350  0.05180  Biso   1.000  C
  C148     1.0000 0.57100  0.91160  0.11100  Biso   1.000  C
  H172     1.0000 0.54420  0.90090  0.15890  Biso   1.000  H
  H173     1.0000 0.55580  0.93910  0.06850  Biso   1.000  H
  H174     1.0000 0.60260  0.92600  0.14400  Biso   1.000  H
  C149     1.0000 0.64700  0.84810  0.07010  Biso   1.000  C
  H175     1.0000 0.64870  0.81830  0.11600  Biso   1.000  H
  H176     1.0000 0.66610  0.87910  0.09660  Biso   1.000  H
  H177     1.0000 0.66360  0.83740  0.00900  Biso   1.000  H
  C150     1.0000 0.55310  0.81540  0.08430  Biso   1.000  C
  H178     1.0000 0.55820  0.78560  0.03910  Biso   1.000  H
  H179     1.0000 0.51520  0.82560  0.08550  Biso   1.000  H
  H180     1.0000 0.56430  0.80420  0.14910  Biso   1.000  H
  S21      1.0000 0.84270  0.53035  0.25730  Biso   1.000  S
  C151     1.0000 0.89370  0.57240  0.30280  Biso   1.000  C
  C152     1.0000 0.93760  0.59180  0.25200  Biso   1.000  C
  C153     1.0000 0.97280  0.62750  0.29600  Biso   1.000  C
  C154     1.0000 0.96410  0.64370  0.39070  Biso   1.000  C
  H181     1.0000 0.98810  0.66800  0.42070  Biso   1.000  H
  C155     1.0000 0.92010  0.62420  0.44150  Biso   1.000  C
  C156     1.0000 0.88490  0.58860  0.39750  Biso   1.000  C
  H182     1.0000 0.85490  0.57530  0.43230  Biso   1.000  H
  S22      1.0000 0.95034  0.57389  0.12700  Biso   1.000  S
  C157     1.0000 0.89280  0.60160  0.06460  Biso   1.000  C
  H183     1.0000 0.88750  0.58200  0.00320  Biso   1.000  H
  H184     1.0000 0.86050  0.59640  0.10480  Biso   1.000  H
  C158     1.0000 0.89920  0.65890  0.04370  Biso   1.000  C
  H185     1.0000 0.86450  0.67290  0.02030  Biso   1.000  H
  H186     1.0000 0.90760  0.67760  0.10500  Biso   1.000  H
  N21      1.0000 0.94000  0.67270  0.97390  Biso   1.000  N
  N22      1.0000 0.97770  0.70990  0.98800  Biso   1.000  N
  C159     1.0000 0.00540  0.71430  0.90950  Biso   1.000  C
  H187     1.0000 0.03570  0.73680  0.90080  Biso   1.000  H
  C160     1.0000 0.98370  0.68060  0.84000  Biso   1.000  C
  H188     1.0000 0.99540  0.67560  0.77530  Biso   1.000  H
  C161     1.0000 0.94160  0.65610  0.88550  Biso   1.000  C
  H189     1.0000 0.91760  0.63120  0.85700  Biso   1.000  H
  C162     1.0000 0.91300  0.63650  0.55180  Biso   1.000  C
  C163     1.0000 0.92900  0.58840  0.61100  Biso   1.000  C
  H190     1.0000 0.95580  0.59910  0.65890  Biso   1.000  H
  H191     1.0000 0.94420  0.56090  0.56850  Biso   1.000  H
  H192     1.0000 0.89740  0.57400  0.64400  Biso   1.000  H
  C164     1.0000 0.85300  0.65190  0.57010  Biso   1.000  C
  H193     1.0000 0.85130  0.68170  0.61600  Biso   1.000  H
  H194     1.0000 0.83390  0.62090  0.59660  Biso   1.000  H
  H195     1.0000 0.83640  0.66260  0.50900  Biso   1.000  H
  C165     1.0000 0.94690  0.68460  0.58430  Biso   1.000  C
  H196     1.0000 0.94180  0.71440  0.53910  Biso   1.000  H
  H197     1.0000 0.98480  0.67440  0.58550  Biso   1.000  H
  H198     1.0000 0.93570  0.69580  0.64910  Biso   1.000  H
  S23      1.0000 0.34270  0.03035  0.75730  Biso   1.000  S
  C166     1.0000 0.39370  0.07240  0.80280  Biso   1.000  C
  C167     1.0000 0.43760  0.09180  0.75200  Biso   1.000  C
  C168     1.0000 0.47280  0.12750  0.79600  Biso   1.000  C
  C169     1.0000 0.46410  0.14370  0.89070  Biso   1.000  C
  H199     1.0000 0.48810  0.16800  0.92070  Biso   1.000  H
  C170     1.0000 0.42010  0.12420  0.94150  Biso   1.000  C
  C171     1.0000 0.38490  0.08860  0.89750  Biso   1.000  C
  H200     1.0000 0.35490  0.07530  0.93230  Biso   1.000  H
  S24      1.0000 0.45034  0.07389  0.62700  Biso   1.000  S
  C172     1.0000 0.39280  0.10160  0.56460  Biso   1.000  C
  H201     1.0000 0.38750  0.08200  0.50320  Biso   1.000  H
  H202     1.0000 0.36050  0.09640  0.60480  Biso   1.000  H
  C173     1.0000 0.39920  0.15890  0.54370  Biso   1.000  C
  H203     1.0000 0.36450  0.17290  0.52030  Biso   1.000  H
  H204     1.0000 0.40760  0.17760  0.60500  Biso   1.000  H
  N23      1.0000 0.44000  0.17270  0.47390  Biso   1.000  N
  N24      1.0000 0.47770  0.20990  0.48800  Biso   1.000  N
  C174     1.0000 0.50540  0.21430  0.40950  Biso   1.000  C
  H205     1.0000 0.53570  0.23680  0.40080  Biso   1.000  H
  C175     1.0000 0.48370  0.18060  0.34000  Biso   1.000  C
  H206     1.0000 0.49540  0.17560  0.27530  Biso   1.000  H
  C176     1.0000 0.44160  0.15610  0.38550  Biso   1.000  C
  H207     1.0000 0.41760  0.13120  0.35700  Biso   1.000  H
  C177     1.0000 0.41300  0.13650  0.05180  Biso   1.000  C
  C178     1.0000 0.42900  0.08840  0.11100  Biso   1.000  C
  H208     1.0000 0.45580  0.09910  0.15890  Biso   1.000  H
  H209     1.0000 0.44420  0.06090  0.06850  Biso   1.000  H
  H210     1.0000 0.39740  0.07400  0.14400  Biso   1.000  H
  C179     1.0000 0.35300  0.15190  0.07010  Biso   1.000  C
  H211     1.0000 0.35130  0.18170  0.11600  Biso   1.000  H
  H212     1.0000 0.33390  0.12090  0.09660  Biso   1.000  H
  H213     1.0000 0.33640  0.16260  0.00900  Biso   1.000  H
  C180     1.0000 0.44690  0.18460  0.08430  Biso   1.000  C
  H214     1.0000 0.44180  0.21440  0.03910  Biso   1.000  H
  H215     1.0000 0.48480  0.17440  0.08550  Biso   1.000  H
  H216     1.0000 0.43570  0.19580  0.14910  Biso   1.000  H
  S25      1.0000 0.03035  0.65730  0.24270  Biso   1.000  S
  C181     1.0000 0.07240  0.60630  0.19720  Biso   1.000  C
  C182     1.0000 0.09180  0.56240  0.24800  Biso   1.000  C
  C183     1.0000 0.12750  0.52720  0.20400  Biso   1.000  C
  C184     1.0000 0.14370  0.53590  0.10930  Biso   1.000  C
  H217     1.0000 0.16800  0.51190  0.07930  Biso   1.000  H
  C185     1.0000 0.12420  0.57990  0.05850  Biso   1.000  C
  C186     1.0000 0.08860  0.61510  0.10250  Biso   1.000  C
  H218     1.0000 0.07530  0.64510  0.06770  Biso   1.000  H
  S26      1.0000 0.07389  0.54966  0.37300  Biso   1.000  S
  C187     1.0000 0.10160  0.60720  0.43540  Biso   1.000  C
  H219     1.0000 0.08200  0.61250  0.49680  Biso   1.000  H
  H220     1.0000 0.09640  0.63950  0.39520  Biso   1.000  H
  C188     1.0000 0.15890  0.60080  0.45630  Biso   1.000  C
  H221     1.0000 0.17290  0.63550  0.47970  Biso   1.000  H
  H222     1.0000 0.17760  0.59240  0.39500  Biso   1.000  H
  N25      1.0000 0.17270  0.56000  0.52610  Biso   1.000  N
  N26      1.0000 0.20990  0.52230  0.51200  Biso   1.000  N
  C189     1.0000 0.21430  0.49460  0.59050  Biso   1.000  C
  H223     1.0000 0.23680  0.46430  0.59920  Biso   1.000  H
  C190     1.0000 0.18060  0.51630  0.66000  Biso   1.000  C
  H224     1.0000 0.17560  0.50460  0.72470  Biso   1.000  H
  C191     1.0000 0.15610  0.55840  0.61450  Biso   1.000  C
  H225     1.0000 0.13120  0.58240  0.64300  Biso   1.000  H
  C192     1.0000 0.13650  0.58700  0.94820  Biso   1.000  C
  C193     1.0000 0.08840  0.57100  0.88900  Biso   1.000  C
  H226     1.0000 0.09910  0.54420  0.84110  Biso   1.000  H
  H227     1.0000 0.06090  0.55580  0.93150  Biso   1.000  H
  H228     1.0000 0.07400  0.60260  0.85600  Biso   1.000  H
  C194     1.0000 0.15190  0.64700  0.92990  Biso   1.000  C
  H229     1.0000 0.18170  0.64870  0.88400  Biso   1.000  H
  H230     1.0000 0.12090  0.66610  0.90340  Biso   1.000  H
  H231     1.0000 0.16260  0.66360  0.99100  Biso   1.000  H
  C195     1.0000 0.18460  0.55310  0.91570  Biso   1.000  C
  H232     1.0000 0.21440  0.55820  0.96090  Biso   1.000  H
  H233     1.0000 0.17440  0.51520  0.91450  Biso   1.000  H
  H234     1.0000 0.19580  0.56430  0.85090  Biso   1.000  H
  S27      1.0000 0.53035  0.15730  0.74270  Biso   1.000  S
  C196     1.0000 0.57240  0.10630  0.69720  Biso   1.000  C
  C197     1.0000 0.59180  0.06240  0.74800  Biso   1.000  C
  C198     1.0000 0.62750  0.02720  0.70400  Biso   1.000  C
  C199     1.0000 0.64370  0.03590  0.60930  Biso   1.000  C
  H235     1.0000 0.66800  0.01190  0.57930  Biso   1.000  H
  C200     1.0000 0.62420  0.07990  0.55850  Biso   1.000  C
  C201     1.0000 0.58860  0.11510  0.60250  Biso   1.000  C
  H236     1.0000 0.57530  0.14510  0.56770  Biso   1.000  H
  S28      1.0000 0.57389  0.04966  0.87300  Biso   1.000  S
  C202     1.0000 0.60160  0.10720  0.93540  Biso   1.000  C
  H237     1.0000 0.58200  0.11250  0.99680  Biso   1.000  H
  H238     1.0000 0.59640  0.13950  0.89520  Biso   1.000  H
  C203     1.0000 0.65890  0.10080  0.95630  Biso   1.000  C
  H239     1.0000 0.67290  0.13550  0.97970  Biso   1.000  H
  H240     1.0000 0.67760  0.09240  0.89500  Biso   1.000  H
  N27      1.0000 0.67270  0.06000  0.02610  Biso   1.000  N
  N28      1.0000 0.70990  0.02230  0.01200  Biso   1.000  N
  C204     1.0000 0.71430  0.99460  0.09050  Biso   1.000  C
  H241     1.0000 0.73680  0.96430  0.09920  Biso   1.000  H
  C205     1.0000 0.68060  0.01630  0.16000  Biso   1.000  C
  H242     1.0000 0.67560  0.00460  0.22470  Biso   1.000  H
  C206     1.0000 0.65610  0.05840  0.11450  Biso   1.000  C
  H243     1.0000 0.63120  0.08240  0.14300  Biso   1.000  H
  C207     1.0000 0.63650  0.08700  0.44820  Biso   1.000  C
  C208     1.0000 0.58840  0.07100  0.38900  Biso   1.000  C
  H244     1.0000 0.59910  0.04420  0.34110  Biso   1.000  H
  H245     1.0000 0.56090  0.05580  0.43150  Biso   1.000  H
  H246     1.0000 0.57400  0.10260  0.35600  Biso   1.000  H
  C209     1.0000 0.65190  0.14700  0.42990  Biso   1.000  C
  H247     1.0000 0.68170  0.14870  0.38400  Biso   1.000  H
  H248     1.0000 0.62090  0.16610  0.40340  Biso   1.000  H
  H249     1.0000 0.66260  0.16360  0.49100  Biso   1.000  H
  C210     1.0000 0.68460  0.05310  0.41570  Biso   1.000  C
  H250     1.0000 0.71440  0.05820  0.46090  Biso   1.000  H
  H251     1.0000 0.67440  0.01520  0.41450  Biso   1.000  H
  H252     1.0000 0.69580  0.06430  0.35090  Biso   1.000  H
  S29      1.0000 0.96965  0.34270  0.24270  Biso   1.000  S
  C211     1.0000 0.92760  0.39370  0.19720  Biso   1.000  C
  C212     1.0000 0.90820  0.43760  0.24800  Biso   1.000  C
  C213     1.0000 0.87250  0.47280  0.20400  Biso   1.000  C
  C214     1.0000 0.85630  0.46410  0.10930  Biso   1.000  C
  H253     1.0000 0.83200  0.48810  0.07930  Biso   1.000  H
  C215     1.0000 0.87580  0.42010  0.05850  Biso   1.000  C
  C216     1.0000 0.91140  0.38490  0.10250  Biso   1.000  C
  H254     1.0000 0.92470  0.35490  0.06770  Biso   1.000  H
  S30      1.0000 0.92611  0.45034  0.37300  Biso   1.000  S
  C217     1.0000 0.89840  0.39280  0.43540  Biso   1.000  C
  H255     1.0000 0.91800  0.38750  0.49680  Biso   1.000  H
  H256     1.0000 0.90360  0.36050  0.39520  Biso   1.000  H
  C218     1.0000 0.84110  0.39920  0.45630  Biso   1.000  C
  H257     1.0000 0.82710  0.36450  0.47970  Biso   1.000  H
  H258     1.0000 0.82240  0.40760  0.39500  Biso   1.000  H
  N29      1.0000 0.82730  0.44000  0.52610  Biso   1.000  N
  N30      1.0000 0.79010  0.47770  0.51200  Biso   1.000  N
  C219     1.0000 0.78570  0.50540  0.59050  Biso   1.000  C
  H259     1.0000 0.76320  0.53570  0.59920  Biso   1.000  H
  C220     1.0000 0.81940  0.48370  0.66000  Biso   1.000  C
  H260     1.0000 0.82440  0.49540  0.72470  Biso   1.000  H
  C221     1.0000 0.84390  0.44160  0.61450  Biso   1.000  C
  H261     1.0000 0.86880  0.41760  0.64300  Biso   1.000  H
  C222     1.0000 0.86350  0.41300  0.94820  Biso   1.000  C
  C223     1.0000 0.91160  0.42900  0.88900  Biso   1.000  C
  H262     1.0000 0.90090  0.45580  0.84110  Biso   1.000  H
  H263     1.0000 0.93910  0.44420  0.93150  Biso   1.000  H
  H264     1.0000 0.92600  0.39740  0.85600  Biso   1.000  H
  C224     1.0000 0.84810  0.35300  0.92990  Biso   1.000  C
  H265     1.0000 0.81830  0.35130  0.88400  Biso   1.000  H
  H266     1.0000 0.87910  0.33390  0.90340  Biso   1.000  H
  H267     1.0000 0.83740  0.33640  0.99100  Biso   1.000  H
  C225     1.0000 0.81540  0.44690  0.91570  Biso   1.000  C
  H268     1.0000 0.78560  0.44180  0.96090  Biso   1.000  H
  H269     1.0000 0.82560  0.48480  0.91450  Biso   1.000  H
  H270     1.0000 0.80420  0.43570  0.85090  Biso   1.000  H
  S31      1.0000 0.46965  0.84270  0.74270  Biso   1.000  S
  C226     1.0000 0.42760  0.89370  0.69720  Biso   1.000  C
  C227     1.0000 0.40820  0.93760  0.74800  Biso   1.000  C
  C228     1.0000 0.37250  0.97280  0.70400  Biso   1.000  C
  C229     1.0000 0.35630  0.96410  0.60930  Biso   1.000  C
  H271     1.0000 0.33200  0.98810  0.57930  Biso   1.000  H
  C230     1.0000 0.37580  0.92010  0.55850  Biso   1.000  C
  C231     1.0000 0.41140  0.88490  0.60250  Biso   1.000  C
  H272     1.0000 0.42470  0.85490  0.56770  Biso   1.000  H
  S32      1.0000 0.42611  0.95034  0.87300  Biso   1.000  S
  C232     1.0000 0.39840  0.89280  0.93540  Biso   1.000  C
  H273     1.0000 0.41800  0.88750  0.99680  Biso   1.000  H
  H274     1.0000 0.40360  0.86050  0.89520  Biso   1.000  H
  C233     1.0000 0.34110  0.89920  0.95630  Biso   1.000  C
  H275     1.0000 0.32710  0.86450  0.97970  Biso   1.000  H
  H276     1.0000 0.32240  0.90760  0.89500  Biso   1.000  H
  N31      1.0000 0.32730  0.94000  0.02610  Biso   1.000  N
  N32      1.0000 0.29010  0.97770  0.01200  Biso   1.000  N
  C234     1.0000 0.28570  0.00540  0.09050  Biso   1.000  C
  H277     1.0000 0.26320  0.03570  0.09920  Biso   1.000  H
  C235     1.0000 0.31940  0.98370  0.16000  Biso   1.000  C
  H278     1.0000 0.32440  0.99540  0.22470  Biso   1.000  H
  C236     1.0000 0.34390  0.94160  0.11450  Biso   1.000  C
  H279     1.0000 0.36880  0.91760  0.14300  Biso   1.000  H
  C237     1.0000 0.36350  0.91300  0.44820  Biso   1.000  C
  C238     1.0000 0.41160  0.92900  0.38900  Biso   1.000  C
  H280     1.0000 0.40090  0.95580  0.34110  Biso   1.000  H
  H281     1.0000 0.43910  0.94420  0.43150  Biso   1.000  H
  H282     1.0000 0.42600  0.89740  0.35600  Biso   1.000  H
  C239     1.0000 0.34810  0.85300  0.42990  Biso   1.000  C
  H283     1.0000 0.31830  0.85130  0.38400  Biso   1.000  H
  H284     1.0000 0.37910  0.83390  0.40340  Biso   1.000  H
  H285     1.0000 0.33740  0.83640  0.49100  Biso   1.000  H
  C240     1.0000 0.31540  0.94690  0.41570  Biso   1.000  C
  H286     1.0000 0.28560  0.94180  0.46090  Biso   1.000  H
  H287     1.0000 0.32560  0.98480  0.41450  Biso   1.000  H
  H288     1.0000 0.30420  0.93570  0.35090  Biso   1.000  H
  Ag1      1.0000 0.48877  0.25000  0.62500  Biso   1.000  Ag
  Ag2      1.0000 0.51123  0.75000  0.62500  Biso   1.000  Ag
  Ag3      1.0000 0.25000  0.51123  0.37500  Biso   1.000  Ag
  Ag4      1.0000 0.75000  0.01123  0.87500  Biso   1.000  Ag
  Ag5      1.0000 0.75000  0.48877  0.37500  Biso   1.000  Ag
  Ag6      1.0000 0.25000  0.98877  0.87500  Biso   1.000  Ag
  Ag7      1.0000 0.01123  0.25000  0.12500  Biso   1.000  Ag
  Ag8      1.0000 0.98877  0.75000  0.12500  Biso   1.000  Ag
