data_image0
_cell_length_a       24.4165
_cell_length_b       24.4165
_cell_length_c       13.7457
_cell_angle_alpha    90
_cell_angle_beta     90
_cell_angle_gamma    90

_symmetry_space_group_name_H-M    "P 1"
_symmetry_int_tables_number       1

loop_
  _symmetry_equiv_pos_as_xyz
  'x, y, z'

loop_
  _atom_site_label
  _atom_site_occupancy
  _atom_site_fract_x
  _atom_site_fract_y
  _atom_site_fract_z
  _atom_site_thermal_displace_type
  _atom_site_B_iso_or_equiv
  _atom_site_type_symbol
  N1       1.0000 0.20160  0.08280  0.24500  Biso   1.000  N
  N2       1.0000 0.34560  0.11080  0.51610  Biso   1.000  N
  C1       1.0000 0.28710  0.06150  0.59240  Biso   1.000  C
  C2       1.0000 0.37000  0.14350  0.43780  Biso   1.000  C
  C3       1.0000 0.36420  0.10550  0.60860  Biso   1.000  C
  C4       1.0000 0.32730  0.07490  0.65990  Biso   1.000  C
  H1       1.0000 0.25570  0.03990  0.60640  Biso   1.000  H
  C5       1.0000 0.42980  0.13380  0.42650  Biso   1.000  C
  H2       1.0000 0.35140  0.13460  0.37570  Biso   1.000  H
  H3       1.0000 0.36370  0.18280  0.45140  Biso   1.000  H
  H4       1.0000 0.39720  0.12060  0.63350  Biso   1.000  H
  H5       1.0000 0.32890  0.06500  0.72660  Biso   1.000  H
  S1       1.0000 0.44739  0.06878  0.36831  Biso   1.000  S
  H6       1.0000 0.44560  0.16400  0.38760  Biso   1.000  H
  H7       1.0000 0.44710  0.13490  0.49160  Biso   1.000  H
  C6       1.0000 0.43280  0.08880  0.24700  Biso   1.000  C
  C7       1.0000 0.46530  0.12660  0.19800  Biso   1.000  C
  C8       1.0000 0.38730  0.06810  0.19860  Biso   1.000  C
  S2       1.0000 0.52250  0.16107  0.24769  Biso   1.000  S
  C9       1.0000 0.45010  0.14590  0.10590  Biso   1.000  C
  C10      1.0000 0.37180  0.08750  0.10700  Biso   1.000  C
  C11      1.0000 0.40190  0.12900  0.06020  Biso   1.000  C
  H8       1.0000 0.47330  0.17130  0.07350  Biso   1.000  H
  H9       1.0000 0.34040  0.07250  0.07590  Biso   1.000  H
  C12      1.0000 0.38500  0.15270  0.96270  Biso   1.000  C
  C13      1.0000 0.32550  0.14200  0.93750  Biso   1.000  C
  C14      1.0000 0.42060  0.12540  0.88380  Biso   1.000  C
  C15      1.0000 0.39480  0.21450  0.96180  Biso   1.000  C
  H10      1.0000 0.30180  0.16270  0.98180  Biso   1.000  H
  H11      1.0000 0.31850  0.15360  0.87040  Biso   1.000  H
  H12      1.0000 0.31770  0.10280  0.94390  Biso   1.000  H
  H13      1.0000 0.41450  0.08580  0.88450  Biso   1.000  H
  H14      1.0000 0.41060  0.14010  0.81980  Biso   1.000  H
  H15      1.0000 0.45930  0.13310  0.89670  Biso   1.000  H
  H16      1.0000 0.38170  0.22980  0.90020  Biso   1.000  H
  H17      1.0000 0.37490  0.23140  0.01590  Biso   1.000  H
  H18      1.0000 0.43400  0.22190  0.96880  Biso   1.000  H
  N3       1.0000 0.70160  0.58280  0.74500  Biso   1.000  N
  N4       1.0000 0.84560  0.61080  0.01610  Biso   1.000  N
  C16      1.0000 0.78710  0.56150  0.09240  Biso   1.000  C
  C17      1.0000 0.87000  0.64350  0.93780  Biso   1.000  C
  C18      1.0000 0.86420  0.60550  0.10860  Biso   1.000  C
  C19      1.0000 0.82730  0.57490  0.15990  Biso   1.000  C
  H19      1.0000 0.75570  0.53990  0.10640  Biso   1.000  H
  C20      1.0000 0.92980  0.63380  0.92650  Biso   1.000  C
  H20      1.0000 0.85140  0.63460  0.87570  Biso   1.000  H
  H21      1.0000 0.86370  0.68280  0.95140  Biso   1.000  H
  H22      1.0000 0.89720  0.62060  0.13350  Biso   1.000  H
  H23      1.0000 0.82890  0.56500  0.22660  Biso   1.000  H
  S3       1.0000 0.94739  0.56878  0.86831  Biso   1.000  S
  H24      1.0000 0.94560  0.66400  0.88760  Biso   1.000  H
  H25      1.0000 0.94710  0.63490  0.99160  Biso   1.000  H
  C21      1.0000 0.93280  0.58880  0.74700  Biso   1.000  C
  C22      1.0000 0.96530  0.62660  0.69800  Biso   1.000  C
  C23      1.0000 0.88730  0.56810  0.69860  Biso   1.000  C
  S4       1.0000 0.02250  0.66107  0.74769  Biso   1.000  S
  C24      1.0000 0.95010  0.64590  0.60590  Biso   1.000  C
  C25      1.0000 0.87180  0.58750  0.60700  Biso   1.000  C
  C26      1.0000 0.90190  0.62900  0.56020  Biso   1.000  C
  H26      1.0000 0.97330  0.67130  0.57350  Biso   1.000  H
  H27      1.0000 0.84040  0.57250  0.57590  Biso   1.000  H
  C27      1.0000 0.88500  0.65270  0.46270  Biso   1.000  C
  C28      1.0000 0.82550  0.64200  0.43750  Biso   1.000  C
  C29      1.0000 0.92060  0.62540  0.38380  Biso   1.000  C
  C30      1.0000 0.89480  0.71450  0.46180  Biso   1.000  C
  H28      1.0000 0.80180  0.66270  0.48180  Biso   1.000  H
  H29      1.0000 0.81850  0.65360  0.37040  Biso   1.000  H
  H30      1.0000 0.81770  0.60280  0.44390  Biso   1.000  H
  H31      1.0000 0.91450  0.58580  0.38450  Biso   1.000  H
  H32      1.0000 0.91060  0.64010  0.31980  Biso   1.000  H
  H33      1.0000 0.95930  0.63310  0.39670  Biso   1.000  H
  H34      1.0000 0.88170  0.72980  0.40020  Biso   1.000  H
  H35      1.0000 0.87490  0.73140  0.51590  Biso   1.000  H
  H36      1.0000 0.93400  0.72190  0.46880  Biso   1.000  H
  N5       1.0000 0.79840  0.91720  0.24500  Biso   1.000  N
  N6       1.0000 0.65440  0.88920  0.51610  Biso   1.000  N
  C31      1.0000 0.71290  0.93850  0.59240  Biso   1.000  C
  C32      1.0000 0.63000  0.85650  0.43780  Biso   1.000  C
  C33      1.0000 0.63580  0.89450  0.60860  Biso   1.000  C
  C34      1.0000 0.67270  0.92510  0.65990  Biso   1.000  C
  H37      1.0000 0.74430  0.96010  0.60640  Biso   1.000  H
  C35      1.0000 0.57020  0.86620  0.42650  Biso   1.000  C
  H38      1.0000 0.64860  0.86540  0.37570  Biso   1.000  H
  H39      1.0000 0.63630  0.81720  0.45140  Biso   1.000  H
  H40      1.0000 0.60280  0.87940  0.63350  Biso   1.000  H
  H41      1.0000 0.67110  0.93500  0.72660  Biso   1.000  H
  S5       1.0000 0.55261  0.93122  0.36831  Biso   1.000  S
  H42      1.0000 0.55440  0.83600  0.38760  Biso   1.000  H
  H43      1.0000 0.55290  0.86510  0.49160  Biso   1.000  H
  C36      1.0000 0.56720  0.91120  0.24700  Biso   1.000  C
  C37      1.0000 0.53470  0.87340  0.19800  Biso   1.000  C
  C38      1.0000 0.61270  0.93190  0.19860  Biso   1.000  C
  S6       1.0000 0.47750  0.83893  0.24769  Biso   1.000  S
  C39      1.0000 0.54990  0.85410  0.10590  Biso   1.000  C
  C40      1.0000 0.62820  0.91250  0.10700  Biso   1.000  C
  C41      1.0000 0.59810  0.87100  0.06020  Biso   1.000  C
  H44      1.0000 0.52670  0.82870  0.07350  Biso   1.000  H
  H45      1.0000 0.65960  0.92750  0.07590  Biso   1.000  H
  C42      1.0000 0.61500  0.84730  0.96270  Biso   1.000  C
  C43      1.0000 0.67450  0.85800  0.93750  Biso   1.000  C
  C44      1.0000 0.57940  0.87460  0.88380  Biso   1.000  C
  C45      1.0000 0.60520  0.78550  0.96180  Biso   1.000  C
  H46      1.0000 0.69820  0.83730  0.98180  Biso   1.000  H
  H47      1.0000 0.68150  0.84640  0.87040  Biso   1.000  H
  H48      1.0000 0.68230  0.89720  0.94390  Biso   1.000  H
  H49      1.0000 0.58550  0.91420  0.88450  Biso   1.000  H
  H50      1.0000 0.58940  0.85990  0.81980  Biso   1.000  H
  H51      1.0000 0.54070  0.86690  0.89670  Biso   1.000  H
  H52      1.0000 0.61830  0.77020  0.90020  Biso   1.000  H
  H53      1.0000 0.62510  0.76860  0.01590  Biso   1.000  H
  H54      1.0000 0.56600  0.77810  0.96880  Biso   1.000  H
  N7       1.0000 0.29840  0.41720  0.74500  Biso   1.000  N
  N8       1.0000 0.15440  0.38920  0.01610  Biso   1.000  N
  C46      1.0000 0.21290  0.43850  0.09240  Biso   1.000  C
  C47      1.0000 0.13000  0.35650  0.93780  Biso   1.000  C
  C48      1.0000 0.13580  0.39450  0.10860  Biso   1.000  C
  C49      1.0000 0.17270  0.42510  0.15990  Biso   1.000  C
  H55      1.0000 0.24430  0.46010  0.10640  Biso   1.000  H
  C50      1.0000 0.07020  0.36620  0.92650  Biso   1.000  C
  H56      1.0000 0.14860  0.36540  0.87570  Biso   1.000  H
  H57      1.0000 0.13630  0.31720  0.95140  Biso   1.000  H
  H58      1.0000 0.10280  0.37940  0.13350  Biso   1.000  H
  H59      1.0000 0.17110  0.43500  0.22660  Biso   1.000  H
  S7       1.0000 0.05261  0.43122  0.86831  Biso   1.000  S
  H60      1.0000 0.05440  0.33600  0.88760  Biso   1.000  H
  H61      1.0000 0.05290  0.36510  0.99160  Biso   1.000  H
  C51      1.0000 0.06720  0.41120  0.74700  Biso   1.000  C
  C52      1.0000 0.03470  0.37340  0.69800  Biso   1.000  C
  C53      1.0000 0.11270  0.43190  0.69860  Biso   1.000  C
  S8       1.0000 0.97750  0.33893  0.74769  Biso   1.000  S
  C54      1.0000 0.04990  0.35410  0.60590  Biso   1.000  C
  C55      1.0000 0.12820  0.41250  0.60700  Biso   1.000  C
  C56      1.0000 0.09810  0.37100  0.56020  Biso   1.000  C
  H62      1.0000 0.02670  0.32870  0.57350  Biso   1.000  H
  H63      1.0000 0.15960  0.42750  0.57590  Biso   1.000  H
  C57      1.0000 0.11500  0.34730  0.46270  Biso   1.000  C
  C58      1.0000 0.17450  0.35800  0.43750  Biso   1.000  C
  C59      1.0000 0.07940  0.37460  0.38380  Biso   1.000  C
  C60      1.0000 0.10520  0.28550  0.46180  Biso   1.000  C
  H64      1.0000 0.19820  0.33730  0.48180  Biso   1.000  H
  H65      1.0000 0.18150  0.34640  0.37040  Biso   1.000  H
  H66      1.0000 0.18230  0.39720  0.44390  Biso   1.000  H
  H67      1.0000 0.08550  0.41420  0.38450  Biso   1.000  H
  H68      1.0000 0.08940  0.35990  0.31980  Biso   1.000  H
  H69      1.0000 0.04070  0.36690  0.39670  Biso   1.000  H
  H70      1.0000 0.11830  0.27020  0.40020  Biso   1.000  H
  H71      1.0000 0.12510  0.26860  0.51590  Biso   1.000  H
  H72      1.0000 0.06600  0.27810  0.46880  Biso   1.000  H
  N9       1.0000 0.08280  0.79840  0.75500  Biso   1.000  N
  N10      1.0000 0.11080  0.65440  0.48390  Biso   1.000  N
  C61      1.0000 0.06150  0.71290  0.40760  Biso   1.000  C
  C62      1.0000 0.14350  0.63000  0.56220  Biso   1.000  C
  C63      1.0000 0.10550  0.63580  0.39140  Biso   1.000  C
  C64      1.0000 0.07490  0.67270  0.34010  Biso   1.000  C
  H73      1.0000 0.03990  0.74430  0.39360  Biso   1.000  H
  C65      1.0000 0.13380  0.57020  0.57350  Biso   1.000  C
  H74      1.0000 0.13460  0.64860  0.62430  Biso   1.000  H
  H75      1.0000 0.18280  0.63630  0.54860  Biso   1.000  H
  H76      1.0000 0.12060  0.60280  0.36650  Biso   1.000  H
  H77      1.0000 0.06500  0.67110  0.27340  Biso   1.000  H
  S9       1.0000 0.06878  0.55261  0.63169  Biso   1.000  S
  H78      1.0000 0.16400  0.55440  0.61240  Biso   1.000  H
  H79      1.0000 0.13490  0.55290  0.50840  Biso   1.000  H
  C66      1.0000 0.08880  0.56720  0.75300  Biso   1.000  C
  C67      1.0000 0.12660  0.53470  0.80200  Biso   1.000  C
  C68      1.0000 0.06810  0.61270  0.80140  Biso   1.000  C
  S10      1.0000 0.16107  0.47750  0.75231  Biso   1.000  S
  C69      1.0000 0.14590  0.54990  0.89410  Biso   1.000  C
  C70      1.0000 0.08750  0.62820  0.89300  Biso   1.000  C
  C71      1.0000 0.12900  0.59810  0.93980  Biso   1.000  C
  H80      1.0000 0.17130  0.52670  0.92650  Biso   1.000  H
  H81      1.0000 0.07250  0.65960  0.92410  Biso   1.000  H
  C72      1.0000 0.15270  0.61500  0.03730  Biso   1.000  C
  C73      1.0000 0.14200  0.67450  0.06250  Biso   1.000  C
  C74      1.0000 0.12540  0.57940  0.11620  Biso   1.000  C
  C75      1.0000 0.21450  0.60520  0.03820  Biso   1.000  C
  H82      1.0000 0.16270  0.69820  0.01820  Biso   1.000  H
  H83      1.0000 0.15360  0.68150  0.12960  Biso   1.000  H
  H84      1.0000 0.10280  0.68230  0.05610  Biso   1.000  H
  H85      1.0000 0.08580  0.58550  0.11550  Biso   1.000  H
  H86      1.0000 0.14010  0.58940  0.18020  Biso   1.000  H
  H87      1.0000 0.13310  0.54070  0.10330  Biso   1.000  H
  H88      1.0000 0.22980  0.61830  0.09980  Biso   1.000  H
  H89      1.0000 0.23140  0.62510  0.98410  Biso   1.000  H
  H90      1.0000 0.22190  0.56600  0.03120  Biso   1.000  H
  N11      1.0000 0.58280  0.29840  0.25500  Biso   1.000  N
  N12      1.0000 0.61080  0.15440  0.98390  Biso   1.000  N
  C76      1.0000 0.56150  0.21290  0.90760  Biso   1.000  C
  C77      1.0000 0.64350  0.13000  0.06220  Biso   1.000  C
  C78      1.0000 0.60550  0.13580  0.89140  Biso   1.000  C
  C79      1.0000 0.57490  0.17270  0.84010  Biso   1.000  C
  H91      1.0000 0.53990  0.24430  0.89360  Biso   1.000  H
  C80      1.0000 0.63380  0.07020  0.07350  Biso   1.000  C
  H92      1.0000 0.63460  0.14860  0.12430  Biso   1.000  H
  H93      1.0000 0.68280  0.13630  0.04860  Biso   1.000  H
  H94      1.0000 0.62060  0.10280  0.86650  Biso   1.000  H
  H95      1.0000 0.56500  0.17110  0.77340  Biso   1.000  H
  S11      1.0000 0.56878  0.05261  0.13169  Biso   1.000  S
  H96      1.0000 0.66400  0.05440  0.11240  Biso   1.000  H
  H97      1.0000 0.63490  0.05290  0.00840  Biso   1.000  H
  C81      1.0000 0.58880  0.06720  0.25300  Biso   1.000  C
  C82      1.0000 0.62660  0.03470  0.30200  Biso   1.000  C
  C83      1.0000 0.56810  0.11270  0.30140  Biso   1.000  C
  S12      1.0000 0.66107  0.97750  0.25231  Biso   1.000  S
  C84      1.0000 0.64590  0.04990  0.39410  Biso   1.000  C
  C85      1.0000 0.58750  0.12820  0.39300  Biso   1.000  C
  C86      1.0000 0.62900  0.09810  0.43980  Biso   1.000  C
  H98      1.0000 0.67130  0.02670  0.42650  Biso   1.000  H
  H99      1.0000 0.57250  0.15960  0.42410  Biso   1.000  H
  C87      1.0000 0.65270  0.11500  0.53730  Biso   1.000  C
  C88      1.0000 0.64200  0.17450  0.56250  Biso   1.000  C
  C89      1.0000 0.62540  0.07940  0.61620  Biso   1.000  C
  C90      1.0000 0.71450  0.10520  0.53820  Biso   1.000  C
  H100     1.0000 0.66270  0.19820  0.51820  Biso   1.000  H
  H101     1.0000 0.65360  0.18150  0.62960  Biso   1.000  H
  H102     1.0000 0.60280  0.18230  0.55610  Biso   1.000  H
  H103     1.0000 0.58580  0.08550  0.61550  Biso   1.000  H
  H104     1.0000 0.64010  0.08940  0.68020  Biso   1.000  H
  H105     1.0000 0.63310  0.04070  0.60330  Biso   1.000  H
  H106     1.0000 0.72980  0.11830  0.59980  Biso   1.000  H
  H107     1.0000 0.73140  0.12510  0.48410  Biso   1.000  H
  H108     1.0000 0.72190  0.06600  0.53120  Biso   1.000  H
  N13      1.0000 0.91720  0.20160  0.75500  Biso   1.000  N
  N14      1.0000 0.88920  0.34560  0.48390  Biso   1.000  N
  C91      1.0000 0.93850  0.28710  0.40760  Biso   1.000  C
  C92      1.0000 0.85650  0.37000  0.56220  Biso   1.000  C
  C93      1.0000 0.89450  0.36420  0.39140  Biso   1.000  C
  C94      1.0000 0.92510  0.32730  0.34010  Biso   1.000  C
  H109     1.0000 0.96010  0.25570  0.39360  Biso   1.000  H
  C95      1.0000 0.86620  0.42980  0.57350  Biso   1.000  C
  H110     1.0000 0.86540  0.35140  0.62430  Biso   1.000  H
  H111     1.0000 0.81720  0.36370  0.54860  Biso   1.000  H
  H112     1.0000 0.87940  0.39720  0.36650  Biso   1.000  H
  H113     1.0000 0.93500  0.32890  0.27340  Biso   1.000  H
  S13      1.0000 0.93122  0.44739  0.63169  Biso   1.000  S
  H114     1.0000 0.83600  0.44560  0.61240  Biso   1.000  H
  H115     1.0000 0.86510  0.44710  0.50840  Biso   1.000  H
  C96      1.0000 0.91120  0.43280  0.75300  Biso   1.000  C
  C97      1.0000 0.87340  0.46530  0.80200  Biso   1.000  C
  C98      1.0000 0.93190  0.38730  0.80140  Biso   1.000  C
  S14      1.0000 0.83893  0.52250  0.75231  Biso   1.000  S
  C99      1.0000 0.85410  0.45010  0.89410  Biso   1.000  C
  C100     1.0000 0.91250  0.37180  0.89300  Biso   1.000  C
  C101     1.0000 0.87100  0.40190  0.93980  Biso   1.000  C
  H116     1.0000 0.82870  0.47330  0.92650  Biso   1.000  H
  H117     1.0000 0.92750  0.34040  0.92410  Biso   1.000  H
  C102     1.0000 0.84730  0.38500  0.03730  Biso   1.000  C
  C103     1.0000 0.85800  0.32550  0.06250  Biso   1.000  C
  C104     1.0000 0.87460  0.42060  0.11620  Biso   1.000  C
  C105     1.0000 0.78550  0.39480  0.03820  Biso   1.000  C
  H118     1.0000 0.83730  0.30180  0.01820  Biso   1.000  H
  H119     1.0000 0.84640  0.31850  0.12960  Biso   1.000  H
  H120     1.0000 0.89720  0.31770  0.05610  Biso   1.000  H
  H121     1.0000 0.91420  0.41450  0.11550  Biso   1.000  H
  H122     1.0000 0.85990  0.41060  0.18020  Biso   1.000  H
  H123     1.0000 0.86690  0.45930  0.10330  Biso   1.000  H
  H124     1.0000 0.77020  0.38170  0.09980  Biso   1.000  H
  H125     1.0000 0.76860  0.37490  0.98410  Biso   1.000  H
  H126     1.0000 0.77810  0.43400  0.03120  Biso   1.000  H
  N15      1.0000 0.41720  0.70160  0.25500  Biso   1.000  N
  N16      1.0000 0.38920  0.84560  0.98390  Biso   1.000  N
  C106     1.0000 0.43850  0.78710  0.90760  Biso   1.000  C
  C107     1.0000 0.35650  0.87000  0.06220  Biso   1.000  C
  C108     1.0000 0.39450  0.86420  0.89140  Biso   1.000  C
  C109     1.0000 0.42510  0.82730  0.84010  Biso   1.000  C
  H127     1.0000 0.46010  0.75570  0.89360  Biso   1.000  H
  C110     1.0000 0.36620  0.92980  0.07350  Biso   1.000  C
  H128     1.0000 0.36540  0.85140  0.12430  Biso   1.000  H
  H129     1.0000 0.31720  0.86370  0.04860  Biso   1.000  H
  H130     1.0000 0.37940  0.89720  0.86650  Biso   1.000  H
  H131     1.0000 0.43500  0.82890  0.77340  Biso   1.000  H
  S15      1.0000 0.43122  0.94739  0.13169  Biso   1.000  S
  H132     1.0000 0.33600  0.94560  0.11240  Biso   1.000  H
  H133     1.0000 0.36510  0.94710  0.00840  Biso   1.000  H
  C111     1.0000 0.41120  0.93280  0.25300  Biso   1.000  C
  C112     1.0000 0.37340  0.96530  0.30200  Biso   1.000  C
  C113     1.0000 0.43190  0.88730  0.30140  Biso   1.000  C
  S16      1.0000 0.33893  0.02250  0.25231  Biso   1.000  S
  C114     1.0000 0.35410  0.95010  0.39410  Biso   1.000  C
  C115     1.0000 0.41250  0.87180  0.39300  Biso   1.000  C
  C116     1.0000 0.37100  0.90190  0.43980  Biso   1.000  C
  H134     1.0000 0.32870  0.97330  0.42650  Biso   1.000  H
  H135     1.0000 0.42750  0.84040  0.42410  Biso   1.000  H
  C117     1.0000 0.34730  0.88500  0.53730  Biso   1.000  C
  C118     1.0000 0.35800  0.82550  0.56250  Biso   1.000  C
  C119     1.0000 0.37460  0.92060  0.61620  Biso   1.000  C
  C120     1.0000 0.28550  0.89480  0.53820  Biso   1.000  C
  H136     1.0000 0.33730  0.80180  0.51820  Biso   1.000  H
  H137     1.0000 0.34640  0.81850  0.62960  Biso   1.000  H
  H138     1.0000 0.39720  0.81770  0.55610  Biso   1.000  H
  H139     1.0000 0.41420  0.91450  0.61550  Biso   1.000  H
  H140     1.0000 0.35990  0.91060  0.68020  Biso   1.000  H
  H141     1.0000 0.36690  0.95930  0.60330  Biso   1.000  H
  H142     1.0000 0.27020  0.88170  0.59980  Biso   1.000  H
  H143     1.0000 0.26860  0.87490  0.48410  Biso   1.000  H
  H144     1.0000 0.27810  0.93400  0.53120  Biso   1.000  H
  N17      1.0000 0.29840  0.08280  0.50500  Biso   1.000  N
  N18      1.0000 0.15440  0.11080  0.23390  Biso   1.000  N
  C121     1.0000 0.21290  0.06150  0.15760  Biso   1.000  C
  C122     1.0000 0.13000  0.14350  0.31220  Biso   1.000  C
  C123     1.0000 0.13580  0.10550  0.14140  Biso   1.000  C
  C124     1.0000 0.17270  0.07490  0.09010  Biso   1.000  C
  H145     1.0000 0.24430  0.03990  0.14360  Biso   1.000  H
  C125     1.0000 0.07020  0.13380  0.32350  Biso   1.000  C
  H146     1.0000 0.14860  0.13460  0.37430  Biso   1.000  H
  H147     1.0000 0.13630  0.18280  0.29860  Biso   1.000  H
  H148     1.0000 0.10280  0.12060  0.11650  Biso   1.000  H
  H149     1.0000 0.17110  0.06500  0.02340  Biso   1.000  H
  S17      1.0000 0.05261  0.06878  0.38169  Biso   1.000  S
  H150     1.0000 0.05440  0.16400  0.36240  Biso   1.000  H
  H151     1.0000 0.05290  0.13490  0.25840  Biso   1.000  H
  C126     1.0000 0.06720  0.08880  0.50300  Biso   1.000  C
  C127     1.0000 0.03470  0.12660  0.55200  Biso   1.000  C
  C128     1.0000 0.11270  0.06810  0.55140  Biso   1.000  C
  S18      1.0000 0.97750  0.16107  0.50231  Biso   1.000  S
  C129     1.0000 0.04990  0.14590  0.64410  Biso   1.000  C
  C130     1.0000 0.12820  0.08750  0.64300  Biso   1.000  C
  C131     1.0000 0.09810  0.12900  0.68980  Biso   1.000  C
  H152     1.0000 0.02670  0.17130  0.67650  Biso   1.000  H
  H153     1.0000 0.15960  0.07250  0.67410  Biso   1.000  H
  C132     1.0000 0.11500  0.15270  0.78730  Biso   1.000  C
  C133     1.0000 0.17450  0.14200  0.81250  Biso   1.000  C
  C134     1.0000 0.07940  0.12540  0.86620  Biso   1.000  C
  C135     1.0000 0.10520  0.21450  0.78820  Biso   1.000  C
  H154     1.0000 0.19820  0.16270  0.76820  Biso   1.000  H
  H155     1.0000 0.18150  0.15360  0.87960  Biso   1.000  H
  H156     1.0000 0.18230  0.10280  0.80610  Biso   1.000  H
  H157     1.0000 0.08550  0.08580  0.86550  Biso   1.000  H
  H158     1.0000 0.08940  0.14010  0.93020  Biso   1.000  H
  H159     1.0000 0.04070  0.13310  0.85330  Biso   1.000  H
  H160     1.0000 0.11830  0.22980  0.84980  Biso   1.000  H
  H161     1.0000 0.12510  0.23140  0.73410  Biso   1.000  H
  H162     1.0000 0.06600  0.22190  0.78120  Biso   1.000  H
  N19      1.0000 0.79840  0.58280  0.00500  Biso   1.000  N
  N20      1.0000 0.65440  0.61080  0.73390  Biso   1.000  N
  C136     1.0000 0.71290  0.56150  0.65760  Biso   1.000  C
  C137     1.0000 0.63000  0.64350  0.81220  Biso   1.000  C
  C138     1.0000 0.63580  0.60550  0.64140  Biso   1.000  C
  C139     1.0000 0.67270  0.57490  0.59010  Biso   1.000  C
  H163     1.0000 0.74430  0.53990  0.64360  Biso   1.000  H
  C140     1.0000 0.57020  0.63380  0.82350  Biso   1.000  C
  H164     1.0000 0.64860  0.63460  0.87430  Biso   1.000  H
  H165     1.0000 0.63630  0.68280  0.79860  Biso   1.000  H
  H166     1.0000 0.60280  0.62060  0.61650  Biso   1.000  H
  H167     1.0000 0.67110  0.56500  0.52340  Biso   1.000  H
  S19      1.0000 0.55261  0.56878  0.88169  Biso   1.000  S
  H168     1.0000 0.55440  0.66400  0.86240  Biso   1.000  H
  H169     1.0000 0.55290  0.63490  0.75840  Biso   1.000  H
  C141     1.0000 0.56720  0.58880  0.00300  Biso   1.000  C
  C142     1.0000 0.53470  0.62660  0.05200  Biso   1.000  C
  C143     1.0000 0.61270  0.56810  0.05140  Biso   1.000  C
  S20      1.0000 0.47750  0.66107  0.00231  Biso   1.000  S
  C144     1.0000 0.54990  0.64590  0.14410  Biso   1.000  C
  C145     1.0000 0.62820  0.58750  0.14300  Biso   1.000  C
  C146     1.0000 0.59810  0.62900  0.18980  Biso   1.000  C
  H170     1.0000 0.52670  0.67130  0.17650  Biso   1.000  H
  H171     1.0000 0.65960  0.57250  0.17410  Biso   1.000  H
  C147     1.0000 0.61500  0.65270  0.28730  Biso   1.000  C
  C148     1.0000 0.67450  0.64200  0.31250  Biso   1.000  C
  C149     1.0000 0.57940  0.62540  0.36620  Biso   1.000  C
  C150     1.0000 0.60520  0.71450  0.28820  Biso   1.000  C
  H172     1.0000 0.69820  0.66270  0.26820  Biso   1.000  H
  H173     1.0000 0.68150  0.65360  0.37960  Biso   1.000  H
  H174     1.0000 0.68230  0.60280  0.30610  Biso   1.000  H
  H175     1.0000 0.58550  0.58580  0.36550  Biso   1.000  H
  H176     1.0000 0.58940  0.64010  0.43020  Biso   1.000  H
  H177     1.0000 0.54070  0.63310  0.35330  Biso   1.000  H
  H178     1.0000 0.61830  0.72980  0.34980  Biso   1.000  H
  H179     1.0000 0.62510  0.73140  0.23410  Biso   1.000  H
  H180     1.0000 0.56600  0.72190  0.28120  Biso   1.000  H
  N21      1.0000 0.70160  0.91720  0.50500  Biso   1.000  N
  N22      1.0000 0.84560  0.88920  0.23390  Biso   1.000  N
  C151     1.0000 0.78710  0.93850  0.15760  Biso   1.000  C
  C152     1.0000 0.87000  0.85650  0.31220  Biso   1.000  C
  C153     1.0000 0.86420  0.89450  0.14140  Biso   1.000  C
  C154     1.0000 0.82730  0.92510  0.09010  Biso   1.000  C
  H181     1.0000 0.75570  0.96010  0.14360  Biso   1.000  H
  C155     1.0000 0.92980  0.86620  0.32350  Biso   1.000  C
  H182     1.0000 0.85140  0.86540  0.37430  Biso   1.000  H
  H183     1.0000 0.86370  0.81720  0.29860  Biso   1.000  H
  H184     1.0000 0.89720  0.87940  0.11650  Biso   1.000  H
  H185     1.0000 0.82890  0.93500  0.02340  Biso   1.000  H
  S21      1.0000 0.94739  0.93122  0.38169  Biso   1.000  S
  H186     1.0000 0.94560  0.83600  0.36240  Biso   1.000  H
  H187     1.0000 0.94710  0.86510  0.25840  Biso   1.000  H
  C156     1.0000 0.93280  0.91120  0.50300  Biso   1.000  C
  C157     1.0000 0.96530  0.87340  0.55200  Biso   1.000  C
  C158     1.0000 0.88730  0.93190  0.55140  Biso   1.000  C
  S22      1.0000 0.02250  0.83893  0.50231  Biso   1.000  S
  C159     1.0000 0.95010  0.85410  0.64410  Biso   1.000  C
  C160     1.0000 0.87180  0.91250  0.64300  Biso   1.000  C
  C161     1.0000 0.90190  0.87100  0.68980  Biso   1.000  C
  H188     1.0000 0.97330  0.82870  0.67650  Biso   1.000  H
  H189     1.0000 0.84040  0.92750  0.67410  Biso   1.000  H
  C162     1.0000 0.88500  0.84730  0.78730  Biso   1.000  C
  C163     1.0000 0.82550  0.85800  0.81250  Biso   1.000  C
  C164     1.0000 0.92060  0.87460  0.86620  Biso   1.000  C
  C165     1.0000 0.89480  0.78550  0.78820  Biso   1.000  C
  H190     1.0000 0.80180  0.83730  0.76820  Biso   1.000  H
  H191     1.0000 0.81850  0.84640  0.87960  Biso   1.000  H
  H192     1.0000 0.81770  0.89720  0.80610  Biso   1.000  H
  H193     1.0000 0.91450  0.91420  0.86550  Biso   1.000  H
  H194     1.0000 0.91060  0.85990  0.93020  Biso   1.000  H
  H195     1.0000 0.95930  0.86690  0.85330  Biso   1.000  H
  H196     1.0000 0.88170  0.77020  0.84980  Biso   1.000  H
  H197     1.0000 0.87490  0.76860  0.73410  Biso   1.000  H
  H198     1.0000 0.93400  0.77810  0.78120  Biso   1.000  H
  N23      1.0000 0.20160  0.41720  0.00500  Biso   1.000  N
  N24      1.0000 0.34560  0.38920  0.73390  Biso   1.000  N
  C166     1.0000 0.28710  0.43850  0.65760  Biso   1.000  C
  C167     1.0000 0.37000  0.35650  0.81220  Biso   1.000  C
  C168     1.0000 0.36420  0.39450  0.64140  Biso   1.000  C
  C169     1.0000 0.32730  0.42510  0.59010  Biso   1.000  C
  H199     1.0000 0.25570  0.46010  0.64360  Biso   1.000  H
  C170     1.0000 0.42980  0.36620  0.82350  Biso   1.000  C
  H200     1.0000 0.35140  0.36540  0.87430  Biso   1.000  H
  H201     1.0000 0.36370  0.31720  0.79860  Biso   1.000  H
  H202     1.0000 0.39720  0.37940  0.61650  Biso   1.000  H
  H203     1.0000 0.32890  0.43500  0.52340  Biso   1.000  H
  S23      1.0000 0.44739  0.43122  0.88169  Biso   1.000  S
  H204     1.0000 0.44560  0.33600  0.86240  Biso   1.000  H
  H205     1.0000 0.44710  0.36510  0.75840  Biso   1.000  H
  C171     1.0000 0.43280  0.41120  0.00300  Biso   1.000  C
  C172     1.0000 0.46530  0.37340  0.05200  Biso   1.000  C
  C173     1.0000 0.38730  0.43190  0.05140  Biso   1.000  C
  S24      1.0000 0.52250  0.33893  0.00231  Biso   1.000  S
  C174     1.0000 0.45010  0.35410  0.14410  Biso   1.000  C
  C175     1.0000 0.37180  0.41250  0.14300  Biso   1.000  C
  C176     1.0000 0.40190  0.37100  0.18980  Biso   1.000  C
  H206     1.0000 0.47330  0.32870  0.17650  Biso   1.000  H
  H207     1.0000 0.34040  0.42750  0.17410  Biso   1.000  H
  C177     1.0000 0.38500  0.34730  0.28730  Biso   1.000  C
  C178     1.0000 0.32550  0.35800  0.31250  Biso   1.000  C
  C179     1.0000 0.42060  0.37460  0.36620  Biso   1.000  C
  C180     1.0000 0.39480  0.28550  0.28820  Biso   1.000  C
  H208     1.0000 0.30180  0.33730  0.26820  Biso   1.000  H
  H209     1.0000 0.31850  0.34640  0.37960  Biso   1.000  H
  H210     1.0000 0.31770  0.39720  0.30610  Biso   1.000  H
  H211     1.0000 0.41450  0.41420  0.36550  Biso   1.000  H
  H212     1.0000 0.41060  0.35990  0.43020  Biso   1.000  H
  H213     1.0000 0.45930  0.36690  0.35330  Biso   1.000  H
  H214     1.0000 0.38170  0.27020  0.34980  Biso   1.000  H
  H215     1.0000 0.37490  0.26860  0.23410  Biso   1.000  H
  H216     1.0000 0.43400  0.27810  0.28120  Biso   1.000  H
  N25      1.0000 0.41720  0.79840  0.99500  Biso   1.000  N
  N26      1.0000 0.38920  0.65440  0.26610  Biso   1.000  N
  C181     1.0000 0.43850  0.71290  0.34240  Biso   1.000  C
  C182     1.0000 0.35650  0.63000  0.18780  Biso   1.000  C
  C183     1.0000 0.39450  0.63580  0.35860  Biso   1.000  C
  C184     1.0000 0.42510  0.67270  0.40990  Biso   1.000  C
  H217     1.0000 0.46010  0.74430  0.35640  Biso   1.000  H
  C185     1.0000 0.36620  0.57020  0.17650  Biso   1.000  C
  H218     1.0000 0.36540  0.64860  0.12570  Biso   1.000  H
  H219     1.0000 0.31720  0.63630  0.20140  Biso   1.000  H
  H220     1.0000 0.37940  0.60280  0.38350  Biso   1.000  H
  H221     1.0000 0.43500  0.67110  0.47660  Biso   1.000  H
  S25      1.0000 0.43122  0.55261  0.11831  Biso   1.000  S
  H222     1.0000 0.33600  0.55440  0.13760  Biso   1.000  H
  H223     1.0000 0.36510  0.55290  0.24160  Biso   1.000  H
  C186     1.0000 0.41120  0.56720  0.99700  Biso   1.000  C
  C187     1.0000 0.37340  0.53470  0.94800  Biso   1.000  C
  C188     1.0000 0.43190  0.61270  0.94860  Biso   1.000  C
  S26      1.0000 0.33893  0.47750  0.99769  Biso   1.000  S
  C189     1.0000 0.35410  0.54990  0.85590  Biso   1.000  C
  C190     1.0000 0.41250  0.62820  0.85700  Biso   1.000  C
  C191     1.0000 0.37100  0.59810  0.81020  Biso   1.000  C
  H224     1.0000 0.32870  0.52670  0.82350  Biso   1.000  H
  H225     1.0000 0.42750  0.65960  0.82590  Biso   1.000  H
  C192     1.0000 0.34730  0.61500  0.71270  Biso   1.000  C
  C193     1.0000 0.35800  0.67450  0.68750  Biso   1.000  C
  C194     1.0000 0.37460  0.57940  0.63380  Biso   1.000  C
  C195     1.0000 0.28550  0.60520  0.71180  Biso   1.000  C
  H226     1.0000 0.33730  0.69820  0.73180  Biso   1.000  H
  H227     1.0000 0.34640  0.68150  0.62040  Biso   1.000  H
  H228     1.0000 0.39720  0.68230  0.69390  Biso   1.000  H
  H229     1.0000 0.41420  0.58550  0.63450  Biso   1.000  H
  H230     1.0000 0.35990  0.58940  0.56980  Biso   1.000  H
  H231     1.0000 0.36690  0.54070  0.64670  Biso   1.000  H
  H232     1.0000 0.27020  0.61830  0.65020  Biso   1.000  H
  H233     1.0000 0.26860  0.62510  0.76590  Biso   1.000  H
  H234     1.0000 0.27810  0.56600  0.71880  Biso   1.000  H
  N27      1.0000 0.91720  0.29840  0.49500  Biso   1.000  N
  N28      1.0000 0.88920  0.15440  0.76610  Biso   1.000  N
  C196     1.0000 0.93850  0.21290  0.84240  Biso   1.000  C
  C197     1.0000 0.85650  0.13000  0.68780  Biso   1.000  C
  C198     1.0000 0.89450  0.13580  0.85860  Biso   1.000  C
  C199     1.0000 0.92510  0.17270  0.90990  Biso   1.000  C
  H235     1.0000 0.96010  0.24430  0.85640  Biso   1.000  H
  C200     1.0000 0.86620  0.07020  0.67650  Biso   1.000  C
  H236     1.0000 0.86540  0.14860  0.62570  Biso   1.000  H
  H237     1.0000 0.81720  0.13630  0.70140  Biso   1.000  H
  H238     1.0000 0.87940  0.10280  0.88350  Biso   1.000  H
  H239     1.0000 0.93500  0.17110  0.97660  Biso   1.000  H
  S27      1.0000 0.93122  0.05261  0.61831  Biso   1.000  S
  H240     1.0000 0.83600  0.05440  0.63760  Biso   1.000  H
  H241     1.0000 0.86510  0.05290  0.74160  Biso   1.000  H
  C201     1.0000 0.91120  0.06720  0.49700  Biso   1.000  C
  C202     1.0000 0.87340  0.03470  0.44800  Biso   1.000  C
  C203     1.0000 0.93190  0.11270  0.44860  Biso   1.000  C
  S28      1.0000 0.83893  0.97750  0.49769  Biso   1.000  S
  C204     1.0000 0.85410  0.04990  0.35590  Biso   1.000  C
  C205     1.0000 0.91250  0.12820  0.35700  Biso   1.000  C
  C206     1.0000 0.87100  0.09810  0.31020  Biso   1.000  C
  H242     1.0000 0.82870  0.02670  0.32350  Biso   1.000  H
  H243     1.0000 0.92750  0.15960  0.32590  Biso   1.000  H
  C207     1.0000 0.84730  0.11500  0.21270  Biso   1.000  C
  C208     1.0000 0.85800  0.17450  0.18750  Biso   1.000  C
  C209     1.0000 0.87460  0.07940  0.13380  Biso   1.000  C
  C210     1.0000 0.78550  0.10520  0.21180  Biso   1.000  C
  H244     1.0000 0.83730  0.19820  0.23180  Biso   1.000  H
  H245     1.0000 0.84640  0.18150  0.12040  Biso   1.000  H
  H246     1.0000 0.89720  0.18230  0.19390  Biso   1.000  H
  H247     1.0000 0.91420  0.08550  0.13450  Biso   1.000  H
  H248     1.0000 0.85990  0.08940  0.06980  Biso   1.000  H
  H249     1.0000 0.86690  0.04070  0.14670  Biso   1.000  H
  H250     1.0000 0.77020  0.11830  0.15020  Biso   1.000  H
  H251     1.0000 0.76860  0.12510  0.26590  Biso   1.000  H
  H252     1.0000 0.77810  0.06600  0.21880  Biso   1.000  H
  N29      1.0000 0.58280  0.20160  0.99500  Biso   1.000  N
  N30      1.0000 0.61080  0.34560  0.26610  Biso   1.000  N
  C211     1.0000 0.56150  0.28710  0.34240  Biso   1.000  C
  C212     1.0000 0.64350  0.37000  0.18780  Biso   1.000  C
  C213     1.0000 0.60550  0.36420  0.35860  Biso   1.000  C
  C214     1.0000 0.57490  0.32730  0.40990  Biso   1.000  C
  H253     1.0000 0.53990  0.25570  0.35640  Biso   1.000  H
  C215     1.0000 0.63380  0.42980  0.17650  Biso   1.000  C
  H254     1.0000 0.63460  0.35140  0.12570  Biso   1.000  H
  H255     1.0000 0.68280  0.36370  0.20140  Biso   1.000  H
  H256     1.0000 0.62060  0.39720  0.38350  Biso   1.000  H
  H257     1.0000 0.56500  0.32890  0.47660  Biso   1.000  H
  S29      1.0000 0.56878  0.44739  0.11831  Biso   1.000  S
  H258     1.0000 0.66400  0.44560  0.13760  Biso   1.000  H
  H259     1.0000 0.63490  0.44710  0.24160  Biso   1.000  H
  C216     1.0000 0.58880  0.43280  0.99700  Biso   1.000  C
  C217     1.0000 0.62660  0.46530  0.94800  Biso   1.000  C
  C218     1.0000 0.56810  0.38730  0.94860  Biso   1.000  C
  S30      1.0000 0.66107  0.52250  0.99769  Biso   1.000  S
  C219     1.0000 0.64590  0.45010  0.85590  Biso   1.000  C
  C220     1.0000 0.58750  0.37180  0.85700  Biso   1.000  C
  C221     1.0000 0.62900  0.40190  0.81020  Biso   1.000  C
  H260     1.0000 0.67130  0.47330  0.82350  Biso   1.000  H
  H261     1.0000 0.57250  0.34040  0.82590  Biso   1.000  H
  C222     1.0000 0.65270  0.38500  0.71270  Biso   1.000  C
  C223     1.0000 0.64200  0.32550  0.68750  Biso   1.000  C
  C224     1.0000 0.62540  0.42060  0.63380  Biso   1.000  C
  C225     1.0000 0.71450  0.39480  0.71180  Biso   1.000  C
  H262     1.0000 0.66270  0.30180  0.73180  Biso   1.000  H
  H263     1.0000 0.65360  0.31850  0.62040  Biso   1.000  H
  H264     1.0000 0.60280  0.31770  0.69390  Biso   1.000  H
  H265     1.0000 0.58580  0.41450  0.63450  Biso   1.000  H
  H266     1.0000 0.64010  0.41060  0.56980  Biso   1.000  H
  H267     1.0000 0.63310  0.45930  0.64670  Biso   1.000  H
  H268     1.0000 0.72980  0.38170  0.65020  Biso   1.000  H
  H269     1.0000 0.73140  0.37490  0.76590  Biso   1.000  H
  H270     1.0000 0.72190  0.43400  0.71880  Biso   1.000  H
  N31      1.0000 0.08280  0.70160  0.49500  Biso   1.000  N
  N32      1.0000 0.11080  0.84560  0.76610  Biso   1.000  N
  C226     1.0000 0.06150  0.78710  0.84240  Biso   1.000  C
  C227     1.0000 0.14350  0.87000  0.68780  Biso   1.000  C
  C228     1.0000 0.10550  0.86420  0.85860  Biso   1.000  C
  C229     1.0000 0.07490  0.82730  0.90990  Biso   1.000  C
  H271     1.0000 0.03990  0.75570  0.85640  Biso   1.000  H
  C230     1.0000 0.13380  0.92980  0.67650  Biso   1.000  C
  H272     1.0000 0.13460  0.85140  0.62570  Biso   1.000  H
  H273     1.0000 0.18280  0.86370  0.70140  Biso   1.000  H
  H274     1.0000 0.12060  0.89720  0.88350  Biso   1.000  H
  H275     1.0000 0.06500  0.82890  0.97660  Biso   1.000  H
  S31      1.0000 0.06878  0.94739  0.61831  Biso   1.000  S
  H276     1.0000 0.16400  0.94560  0.63760  Biso   1.000  H
  H277     1.0000 0.13490  0.94710  0.74160  Biso   1.000  H
  C231     1.0000 0.08880  0.93280  0.49700  Biso   1.000  C
  C232     1.0000 0.12660  0.96530  0.44800  Biso   1.000  C
  C233     1.0000 0.06810  0.88730  0.44860  Biso   1.000  C
  S32      1.0000 0.16107  0.02250  0.49769  Biso   1.000  S
  C234     1.0000 0.14590  0.95010  0.35590  Biso   1.000  C
  C235     1.0000 0.08750  0.87180  0.35700  Biso   1.000  C
  C236     1.0000 0.12900  0.90190  0.31020  Biso   1.000  C
  H278     1.0000 0.17130  0.97330  0.32350  Biso   1.000  H
  H279     1.0000 0.07250  0.84040  0.32590  Biso   1.000  H
  C237     1.0000 0.15270  0.88500  0.21270  Biso   1.000  C
  C238     1.0000 0.14200  0.82550  0.18750  Biso   1.000  C
  C239     1.0000 0.12540  0.92060  0.13380  Biso   1.000  C
  C240     1.0000 0.21450  0.89480  0.21180  Biso   1.000  C
  H280     1.0000 0.16270  0.80180  0.23180  Biso   1.000  H
  H281     1.0000 0.15360  0.81850  0.12040  Biso   1.000  H
  H282     1.0000 0.10280  0.81770  0.19390  Biso   1.000  H
  H283     1.0000 0.08580  0.91450  0.13450  Biso   1.000  H
  H284     1.0000 0.14010  0.91060  0.06980  Biso   1.000  H
  H285     1.0000 0.13310  0.95930  0.14670  Biso   1.000  H
  H286     1.0000 0.22980  0.88170  0.15020  Biso   1.000  H
  H287     1.0000 0.23140  0.87490  0.26590  Biso   1.000  H
  H288     1.0000 0.22190  0.93400  0.21880  Biso   1.000  H
  Ag1      1.0000 0.25000  0.07813  0.37500  Biso   1.000  Ag
  Ag2      1.0000 0.75000  0.57813  0.87500  Biso   1.000  Ag
  Ag3      1.0000 0.75000  0.92187  0.37500  Biso   1.000  Ag
  Ag4      1.0000 0.25000  0.42187  0.87500  Biso   1.000  Ag
  Ag5      1.0000 0.07813  0.75000  0.62500  Biso   1.000  Ag
  Ag6      1.0000 0.92187  0.25000  0.62500  Biso   1.000  Ag
  Ag7      1.0000 0.42187  0.75000  0.12500  Biso   1.000  Ag
  Ag8      1.0000 0.57813  0.25000  0.12500  Biso   1.000  Ag
