data_image0
_cell_length_a       24.2538
_cell_length_b       24.2538
_cell_length_c       13.6809
_cell_angle_alpha    90
_cell_angle_beta     90
_cell_angle_gamma    90

_symmetry_space_group_name_H-M    "P 1"
_symmetry_int_tables_number       1

loop_
  _symmetry_equiv_pos_as_xyz
  'x, y, z'

loop_
  _atom_site_label
  _atom_site_occupancy
  _atom_site_fract_x
  _atom_site_fract_y
  _atom_site_fract_z
  _atom_site_thermal_displace_type
  _atom_site_B_iso_or_equiv
  _atom_site_type_symbol
  S1       1.0000 0.16197  0.02224  0.49709  Biso   1.000  S
  C1       1.0000 0.11400  0.06810  0.55080  Biso   1.000  C
  C2       1.0000 0.06780  0.08910  0.50220  Biso   1.000  C
  C3       1.0000 0.03510  0.12710  0.55300  Biso   1.000  C
  C4       1.0000 0.05100  0.14640  0.64510  Biso   1.000  C
  H1       1.0000 0.02810  0.17220  0.67810  Biso   1.000  H
  C5       1.0000 0.09910  0.12920  0.68930  Biso   1.000  C
  C6       1.0000 0.12970  0.08810  0.64330  Biso   1.000  C
  H2       1.0000 0.16150  0.07350  0.67450  Biso   1.000  H
  S2       1.0000 0.05290  0.06894  0.38121  Biso   1.000  S
  C7       1.0000 0.06820  0.13390  0.32110  Biso   1.000  C
  H3       1.0000 0.05070  0.13400  0.25570  Biso   1.000  H
  H4       1.0000 0.05170  0.16430  0.35950  Biso   1.000  H
  C8       1.0000 0.12950  0.14500  0.30920  Biso   1.000  C
  H5       1.0000 0.13510  0.18450  0.29390  Biso   1.000  H
  H6       1.0000 0.14840  0.13700  0.37170  Biso   1.000  H
  N1       1.0000 0.15430  0.11130  0.23120  Biso   1.000  N
  N2       1.0000 0.20180  0.08290  0.24310  Biso   1.000  N
  C9       1.0000 0.21290  0.06120  0.15660  Biso   1.000  C
  H7       1.0000 0.24400  0.03870  0.14300  Biso   1.000  H
  C10      1.0000 0.17300  0.07580  0.08820  Biso   1.000  C
  H8       1.0000 0.17110  0.06550  0.02120  Biso   1.000  H
  C11      1.0000 0.13720  0.10830  0.13930  Biso   1.000  C
  H9       1.0000 0.10540  0.12590  0.11330  Biso   1.000  H
  C12      1.0000 0.11570  0.15290  0.78890  Biso   1.000  C
  C13      1.0000 0.10640  0.21510  0.78970  Biso   1.000  C
  H10      1.0000 0.12880  0.23220  0.73840  Biso   1.000  H
  H11      1.0000 0.11710  0.23000  0.85350  Biso   1.000  H
  H12      1.0000 0.06740  0.22290  0.77760  Biso   1.000  H
  C14      1.0000 0.07830  0.12650  0.86820  Biso   1.000  C
  H13      1.0000 0.03960  0.13120  0.84980  Biso   1.000  H
  H14      1.0000 0.08510  0.14450  0.93120  Biso   1.000  H
  H15      1.0000 0.08680  0.08710  0.87350  Biso   1.000  H
  C15      1.0000 0.17640  0.14210  0.81200  Biso   1.000  C
  H16      1.0000 0.18190  0.10260  0.82360  Biso   1.000  H
  H17      1.0000 0.18690  0.16280  0.87060  Biso   1.000  H
  H18      1.0000 0.19920  0.15400  0.75670  Biso   1.000  H
  S3       1.0000 0.66197  0.52224  0.99709  Biso   1.000  S
  C16      1.0000 0.61400  0.56810  0.05080  Biso   1.000  C
  C17      1.0000 0.56780  0.58910  0.00220  Biso   1.000  C
  C18      1.0000 0.53510  0.62710  0.05300  Biso   1.000  C
  C19      1.0000 0.55100  0.64640  0.14510  Biso   1.000  C
  H19      1.0000 0.52810  0.67220  0.17810  Biso   1.000  H
  C20      1.0000 0.59910  0.62920  0.18930  Biso   1.000  C
  C21      1.0000 0.62970  0.58810  0.14330  Biso   1.000  C
  H20      1.0000 0.66150  0.57350  0.17450  Biso   1.000  H
  S4       1.0000 0.55290  0.56894  0.88121  Biso   1.000  S
  C22      1.0000 0.56820  0.63390  0.82110  Biso   1.000  C
  H21      1.0000 0.55070  0.63400  0.75570  Biso   1.000  H
  H22      1.0000 0.55170  0.66430  0.85950  Biso   1.000  H
  C23      1.0000 0.62950  0.64500  0.80920  Biso   1.000  C
  H23      1.0000 0.63510  0.68450  0.79390  Biso   1.000  H
  H24      1.0000 0.64840  0.63700  0.87170  Biso   1.000  H
  N3       1.0000 0.65430  0.61130  0.73120  Biso   1.000  N
  N4       1.0000 0.70180  0.58290  0.74310  Biso   1.000  N
  C24      1.0000 0.71290  0.56120  0.65660  Biso   1.000  C
  H25      1.0000 0.74400  0.53870  0.64300  Biso   1.000  H
  C25      1.0000 0.67300  0.57580  0.58820  Biso   1.000  C
  H26      1.0000 0.67110  0.56550  0.52120  Biso   1.000  H
  C26      1.0000 0.63720  0.60830  0.63930  Biso   1.000  C
  H27      1.0000 0.60540  0.62590  0.61330  Biso   1.000  H
  C27      1.0000 0.61570  0.65290  0.28890  Biso   1.000  C
  C28      1.0000 0.60640  0.71510  0.28970  Biso   1.000  C
  H28      1.0000 0.62880  0.73220  0.23840  Biso   1.000  H
  H29      1.0000 0.61710  0.73000  0.35350  Biso   1.000  H
  H30      1.0000 0.56740  0.72290  0.27760  Biso   1.000  H
  C29      1.0000 0.57830  0.62650  0.36820  Biso   1.000  C
  H31      1.0000 0.53960  0.63120  0.34980  Biso   1.000  H
  H32      1.0000 0.58510  0.64450  0.43120  Biso   1.000  H
  H33      1.0000 0.58680  0.58710  0.37350  Biso   1.000  H
  C30      1.0000 0.67640  0.64210  0.31200  Biso   1.000  C
  H34      1.0000 0.68190  0.60260  0.32360  Biso   1.000  H
  H35      1.0000 0.68690  0.66280  0.37060  Biso   1.000  H
  H36      1.0000 0.69920  0.65400  0.25670  Biso   1.000  H
  S5       1.0000 0.83803  0.97776  0.49709  Biso   1.000  S
  C31      1.0000 0.88600  0.93190  0.55080  Biso   1.000  C
  C32      1.0000 0.93220  0.91090  0.50220  Biso   1.000  C
  C33      1.0000 0.96490  0.87290  0.55300  Biso   1.000  C
  C34      1.0000 0.94900  0.85360  0.64510  Biso   1.000  C
  H37      1.0000 0.97190  0.82780  0.67810  Biso   1.000  H
  C35      1.0000 0.90090  0.87080  0.68930  Biso   1.000  C
  C36      1.0000 0.87030  0.91190  0.64330  Biso   1.000  C
  H38      1.0000 0.83850  0.92650  0.67450  Biso   1.000  H
  S6       1.0000 0.94710  0.93106  0.38121  Biso   1.000  S
  C37      1.0000 0.93180  0.86610  0.32110  Biso   1.000  C
  H39      1.0000 0.94930  0.86600  0.25570  Biso   1.000  H
  H40      1.0000 0.94830  0.83570  0.35950  Biso   1.000  H
  C38      1.0000 0.87050  0.85500  0.30920  Biso   1.000  C
  H41      1.0000 0.86490  0.81550  0.29390  Biso   1.000  H
  H42      1.0000 0.85160  0.86300  0.37170  Biso   1.000  H
  N5       1.0000 0.84570  0.88870  0.23120  Biso   1.000  N
  N6       1.0000 0.79820  0.91710  0.24310  Biso   1.000  N
  C39      1.0000 0.78710  0.93880  0.15660  Biso   1.000  C
  H43      1.0000 0.75600  0.96130  0.14300  Biso   1.000  H
  C40      1.0000 0.82700  0.92420  0.08820  Biso   1.000  C
  H44      1.0000 0.82890  0.93450  0.02120  Biso   1.000  H
  C41      1.0000 0.86280  0.89170  0.13930  Biso   1.000  C
  H45      1.0000 0.89460  0.87410  0.11330  Biso   1.000  H
  C42      1.0000 0.88430  0.84710  0.78890  Biso   1.000  C
  C43      1.0000 0.89360  0.78490  0.78970  Biso   1.000  C
  H46      1.0000 0.87120  0.76780  0.73840  Biso   1.000  H
  H47      1.0000 0.88290  0.77000  0.85350  Biso   1.000  H
  H48      1.0000 0.93260  0.77710  0.77760  Biso   1.000  H
  C44      1.0000 0.92170  0.87350  0.86820  Biso   1.000  C
  H49      1.0000 0.96040  0.86880  0.84980  Biso   1.000  H
  H50      1.0000 0.91490  0.85550  0.93120  Biso   1.000  H
  H51      1.0000 0.91320  0.91290  0.87350  Biso   1.000  H
  C45      1.0000 0.82360  0.85790  0.81200  Biso   1.000  C
  H52      1.0000 0.81810  0.89740  0.82360  Biso   1.000  H
  H53      1.0000 0.81310  0.83720  0.87060  Biso   1.000  H
  H54      1.0000 0.80080  0.84600  0.75670  Biso   1.000  H
  S7       1.0000 0.33803  0.47776  0.99709  Biso   1.000  S
  C46      1.0000 0.38600  0.43190  0.05080  Biso   1.000  C
  C47      1.0000 0.43220  0.41090  0.00220  Biso   1.000  C
  C48      1.0000 0.46490  0.37290  0.05300  Biso   1.000  C
  C49      1.0000 0.44900  0.35360  0.14510  Biso   1.000  C
  H55      1.0000 0.47190  0.32780  0.17810  Biso   1.000  H
  C50      1.0000 0.40090  0.37080  0.18930  Biso   1.000  C
  C51      1.0000 0.37030  0.41190  0.14330  Biso   1.000  C
  H56      1.0000 0.33850  0.42650  0.17450  Biso   1.000  H
  S8       1.0000 0.44710  0.43106  0.88121  Biso   1.000  S
  C52      1.0000 0.43180  0.36610  0.82110  Biso   1.000  C
  H57      1.0000 0.44930  0.36600  0.75570  Biso   1.000  H
  H58      1.0000 0.44830  0.33570  0.85950  Biso   1.000  H
  C53      1.0000 0.37050  0.35500  0.80920  Biso   1.000  C
  H59      1.0000 0.36490  0.31550  0.79390  Biso   1.000  H
  H60      1.0000 0.35160  0.36300  0.87170  Biso   1.000  H
  N7       1.0000 0.34570  0.38870  0.73120  Biso   1.000  N
  N8       1.0000 0.29820  0.41710  0.74310  Biso   1.000  N
  C54      1.0000 0.28710  0.43880  0.65660  Biso   1.000  C
  H61      1.0000 0.25600  0.46130  0.64300  Biso   1.000  H
  C55      1.0000 0.32700  0.42420  0.58820  Biso   1.000  C
  H62      1.0000 0.32890  0.43450  0.52120  Biso   1.000  H
  C56      1.0000 0.36280  0.39170  0.63930  Biso   1.000  C
  H63      1.0000 0.39460  0.37410  0.61330  Biso   1.000  H
  C57      1.0000 0.38430  0.34710  0.28890  Biso   1.000  C
  C58      1.0000 0.39360  0.28490  0.28970  Biso   1.000  C
  H64      1.0000 0.37120  0.26780  0.23840  Biso   1.000  H
  H65      1.0000 0.38290  0.27000  0.35350  Biso   1.000  H
  H66      1.0000 0.43260  0.27710  0.27760  Biso   1.000  H
  C59      1.0000 0.42170  0.37350  0.36820  Biso   1.000  C
  H67      1.0000 0.46040  0.36880  0.34980  Biso   1.000  H
  H68      1.0000 0.41490  0.35550  0.43120  Biso   1.000  H
  H69      1.0000 0.41320  0.41290  0.37350  Biso   1.000  H
  C60      1.0000 0.32360  0.35790  0.31200  Biso   1.000  C
  H70      1.0000 0.31810  0.39740  0.32360  Biso   1.000  H
  H71      1.0000 0.31310  0.33720  0.37060  Biso   1.000  H
  H72      1.0000 0.30080  0.34600  0.25670  Biso   1.000  H
  S9       1.0000 0.02224  0.83803  0.50291  Biso   1.000  S
  C61      1.0000 0.06810  0.88600  0.44920  Biso   1.000  C
  C62      1.0000 0.08910  0.93220  0.49780  Biso   1.000  C
  C63      1.0000 0.12710  0.96490  0.44700  Biso   1.000  C
  C64      1.0000 0.14640  0.94900  0.35490  Biso   1.000  C
  H73      1.0000 0.17220  0.97190  0.32190  Biso   1.000  H
  C65      1.0000 0.12920  0.90090  0.31070  Biso   1.000  C
  C66      1.0000 0.08810  0.87030  0.35670  Biso   1.000  C
  H74      1.0000 0.07350  0.83850  0.32550  Biso   1.000  H
  S10      1.0000 0.06894  0.94710  0.61879  Biso   1.000  S
  C67      1.0000 0.13390  0.93180  0.67890  Biso   1.000  C
  H75      1.0000 0.13400  0.94930  0.74430  Biso   1.000  H
  H76      1.0000 0.16430  0.94830  0.64050  Biso   1.000  H
  C68      1.0000 0.14500  0.87050  0.69080  Biso   1.000  C
  H77      1.0000 0.18450  0.86490  0.70610  Biso   1.000  H
  H78      1.0000 0.13700  0.85160  0.62830  Biso   1.000  H
  N9       1.0000 0.11130  0.84570  0.76880  Biso   1.000  N
  N10      1.0000 0.08290  0.79820  0.75690  Biso   1.000  N
  C69      1.0000 0.06120  0.78710  0.84340  Biso   1.000  C
  H79      1.0000 0.03870  0.75600  0.85700  Biso   1.000  H
  C70      1.0000 0.07580  0.82700  0.91180  Biso   1.000  C
  H80      1.0000 0.06550  0.82890  0.97880  Biso   1.000  H
  C71      1.0000 0.10830  0.86280  0.86070  Biso   1.000  C
  H81      1.0000 0.12590  0.89460  0.88670  Biso   1.000  H
  C72      1.0000 0.15290  0.88430  0.21110  Biso   1.000  C
  C73      1.0000 0.21510  0.89360  0.21030  Biso   1.000  C
  H82      1.0000 0.23220  0.87120  0.26160  Biso   1.000  H
  H83      1.0000 0.23000  0.88290  0.14650  Biso   1.000  H
  H84      1.0000 0.22290  0.93260  0.22240  Biso   1.000  H
  C74      1.0000 0.12650  0.92170  0.13180  Biso   1.000  C
  H85      1.0000 0.13120  0.96040  0.15020  Biso   1.000  H
  H86      1.0000 0.14450  0.91490  0.06880  Biso   1.000  H
  H87      1.0000 0.08710  0.91320  0.12650  Biso   1.000  H
  C75      1.0000 0.14210  0.82360  0.18800  Biso   1.000  C
  H88      1.0000 0.10260  0.81810  0.17640  Biso   1.000  H
  H89      1.0000 0.16280  0.81310  0.12940  Biso   1.000  H
  H90      1.0000 0.15400  0.80080  0.24330  Biso   1.000  H
  S11      1.0000 0.52224  0.33803  0.00291  Biso   1.000  S
  C76      1.0000 0.56810  0.38600  0.94920  Biso   1.000  C
  C77      1.0000 0.58910  0.43220  0.99780  Biso   1.000  C
  C78      1.0000 0.62710  0.46490  0.94700  Biso   1.000  C
  C79      1.0000 0.64640  0.44900  0.85490  Biso   1.000  C
  H91      1.0000 0.67220  0.47190  0.82190  Biso   1.000  H
  C80      1.0000 0.62920  0.40090  0.81070  Biso   1.000  C
  C81      1.0000 0.58810  0.37030  0.85670  Biso   1.000  C
  H92      1.0000 0.57350  0.33850  0.82550  Biso   1.000  H
  S12      1.0000 0.56894  0.44710  0.11879  Biso   1.000  S
  C82      1.0000 0.63390  0.43180  0.17890  Biso   1.000  C
  H93      1.0000 0.63400  0.44930  0.24430  Biso   1.000  H
  H94      1.0000 0.66430  0.44830  0.14050  Biso   1.000  H
  C83      1.0000 0.64500  0.37050  0.19080  Biso   1.000  C
  H95      1.0000 0.68450  0.36490  0.20610  Biso   1.000  H
  H96      1.0000 0.63700  0.35160  0.12830  Biso   1.000  H
  N11      1.0000 0.61130  0.34570  0.26880  Biso   1.000  N
  N12      1.0000 0.58290  0.29820  0.25690  Biso   1.000  N
  C84      1.0000 0.56120  0.28710  0.34340  Biso   1.000  C
  H97      1.0000 0.53870  0.25600  0.35700  Biso   1.000  H
  C85      1.0000 0.57580  0.32700  0.41180  Biso   1.000  C
  H98      1.0000 0.56550  0.32890  0.47880  Biso   1.000  H
  C86      1.0000 0.60830  0.36280  0.36070  Biso   1.000  C
  H99      1.0000 0.62590  0.39460  0.38670  Biso   1.000  H
  C87      1.0000 0.65290  0.38430  0.71110  Biso   1.000  C
  C88      1.0000 0.71510  0.39360  0.71030  Biso   1.000  C
  H100     1.0000 0.73220  0.37120  0.76160  Biso   1.000  H
  H101     1.0000 0.73000  0.38290  0.64650  Biso   1.000  H
  H102     1.0000 0.72290  0.43260  0.72240  Biso   1.000  H
  C89      1.0000 0.62650  0.42170  0.63180  Biso   1.000  C
  H103     1.0000 0.63120  0.46040  0.65020  Biso   1.000  H
  H104     1.0000 0.64450  0.41490  0.56880  Biso   1.000  H
  H105     1.0000 0.58710  0.41320  0.62650  Biso   1.000  H
  C90      1.0000 0.64210  0.32360  0.68800  Biso   1.000  C
  H106     1.0000 0.60260  0.31810  0.67640  Biso   1.000  H
  H107     1.0000 0.66280  0.31310  0.62940  Biso   1.000  H
  H108     1.0000 0.65400  0.30080  0.74330  Biso   1.000  H
  S13      1.0000 0.97776  0.16197  0.50291  Biso   1.000  S
  C91      1.0000 0.93190  0.11400  0.44920  Biso   1.000  C
  C92      1.0000 0.91090  0.06780  0.49780  Biso   1.000  C
  C93      1.0000 0.87290  0.03510  0.44700  Biso   1.000  C
  C94      1.0000 0.85360  0.05100  0.35490  Biso   1.000  C
  H109     1.0000 0.82780  0.02810  0.32190  Biso   1.000  H
  C95      1.0000 0.87080  0.09910  0.31070  Biso   1.000  C
  C96      1.0000 0.91190  0.12970  0.35670  Biso   1.000  C
  H110     1.0000 0.92650  0.16150  0.32550  Biso   1.000  H
  S14      1.0000 0.93106  0.05290  0.61879  Biso   1.000  S
  C97      1.0000 0.86610  0.06820  0.67890  Biso   1.000  C
  H111     1.0000 0.86600  0.05070  0.74430  Biso   1.000  H
  H112     1.0000 0.83570  0.05170  0.64050  Biso   1.000  H
  C98      1.0000 0.85500  0.12950  0.69080  Biso   1.000  C
  H113     1.0000 0.81550  0.13510  0.70610  Biso   1.000  H
  H114     1.0000 0.86300  0.14840  0.62830  Biso   1.000  H
  N13      1.0000 0.88870  0.15430  0.76880  Biso   1.000  N
  N14      1.0000 0.91710  0.20180  0.75690  Biso   1.000  N
  C99      1.0000 0.93880  0.21290  0.84340  Biso   1.000  C
  H115     1.0000 0.96130  0.24400  0.85700  Biso   1.000  H
  C100     1.0000 0.92420  0.17300  0.91180  Biso   1.000  C
  H116     1.0000 0.93450  0.17110  0.97880  Biso   1.000  H
  C101     1.0000 0.89170  0.13720  0.86070  Biso   1.000  C
  H117     1.0000 0.87410  0.10540  0.88670  Biso   1.000  H
  C102     1.0000 0.84710  0.11570  0.21110  Biso   1.000  C
  C103     1.0000 0.78490  0.10640  0.21030  Biso   1.000  C
  H118     1.0000 0.76780  0.12880  0.26160  Biso   1.000  H
  H119     1.0000 0.77000  0.11710  0.14650  Biso   1.000  H
  H120     1.0000 0.77710  0.06740  0.22240  Biso   1.000  H
  C104     1.0000 0.87350  0.07830  0.13180  Biso   1.000  C
  H121     1.0000 0.86880  0.03960  0.15020  Biso   1.000  H
  H122     1.0000 0.85550  0.08510  0.06880  Biso   1.000  H
  H123     1.0000 0.91290  0.08680  0.12650  Biso   1.000  H
  C105     1.0000 0.85790  0.17640  0.18800  Biso   1.000  C
  H124     1.0000 0.89740  0.18190  0.17640  Biso   1.000  H
  H125     1.0000 0.83720  0.18690  0.12940  Biso   1.000  H
  H126     1.0000 0.84600  0.19920  0.24330  Biso   1.000  H
  S15      1.0000 0.47776  0.66197  0.00291  Biso   1.000  S
  C106     1.0000 0.43190  0.61400  0.94920  Biso   1.000  C
  C107     1.0000 0.41090  0.56780  0.99780  Biso   1.000  C
  C108     1.0000 0.37290  0.53510  0.94700  Biso   1.000  C
  C109     1.0000 0.35360  0.55100  0.85490  Biso   1.000  C
  H127     1.0000 0.32780  0.52810  0.82190  Biso   1.000  H
  C110     1.0000 0.37080  0.59910  0.81070  Biso   1.000  C
  C111     1.0000 0.41190  0.62970  0.85670  Biso   1.000  C
  H128     1.0000 0.42650  0.66150  0.82550  Biso   1.000  H
  S16      1.0000 0.43106  0.55290  0.11879  Biso   1.000  S
  C112     1.0000 0.36610  0.56820  0.17890  Biso   1.000  C
  H129     1.0000 0.36600  0.55070  0.24430  Biso   1.000  H
  H130     1.0000 0.33570  0.55170  0.14050  Biso   1.000  H
  C113     1.0000 0.35500  0.62950  0.19080  Biso   1.000  C
  H131     1.0000 0.31550  0.63510  0.20610  Biso   1.000  H
  H132     1.0000 0.36300  0.64840  0.12830  Biso   1.000  H
  N15      1.0000 0.38870  0.65430  0.26880  Biso   1.000  N
  N16      1.0000 0.41710  0.70180  0.25690  Biso   1.000  N
  C114     1.0000 0.43880  0.71290  0.34340  Biso   1.000  C
  H133     1.0000 0.46130  0.74400  0.35700  Biso   1.000  H
  C115     1.0000 0.42420  0.67300  0.41180  Biso   1.000  C
  H134     1.0000 0.43450  0.67110  0.47880  Biso   1.000  H
  C116     1.0000 0.39170  0.63720  0.36070  Biso   1.000  C
  H135     1.0000 0.37410  0.60540  0.38670  Biso   1.000  H
  C117     1.0000 0.34710  0.61570  0.71110  Biso   1.000  C
  C118     1.0000 0.28490  0.60640  0.71030  Biso   1.000  C
  H136     1.0000 0.26780  0.62880  0.76160  Biso   1.000  H
  H137     1.0000 0.27000  0.61710  0.64650  Biso   1.000  H
  H138     1.0000 0.27710  0.56740  0.72240  Biso   1.000  H
  C119     1.0000 0.37350  0.57830  0.63180  Biso   1.000  C
  H139     1.0000 0.36880  0.53960  0.65020  Biso   1.000  H
  H140     1.0000 0.35550  0.58510  0.56880  Biso   1.000  H
  H141     1.0000 0.41290  0.58680  0.62650  Biso   1.000  H
  C120     1.0000 0.35790  0.67640  0.68800  Biso   1.000  C
  H142     1.0000 0.39740  0.68190  0.67640  Biso   1.000  H
  H143     1.0000 0.33720  0.68690  0.62940  Biso   1.000  H
  H144     1.0000 0.34600  0.69920  0.74330  Biso   1.000  H
  S17      1.0000 0.33803  0.02224  0.25291  Biso   1.000  S
  C121     1.0000 0.38600  0.06810  0.19920  Biso   1.000  C
  C122     1.0000 0.43220  0.08910  0.24780  Biso   1.000  C
  C123     1.0000 0.46490  0.12710  0.19700  Biso   1.000  C
  C124     1.0000 0.44900  0.14640  0.10490  Biso   1.000  C
  H145     1.0000 0.47190  0.17220  0.07190  Biso   1.000  H
  C125     1.0000 0.40090  0.12920  0.06070  Biso   1.000  C
  C126     1.0000 0.37030  0.08810  0.10670  Biso   1.000  C
  H146     1.0000 0.33850  0.07350  0.07550  Biso   1.000  H
  S18      1.0000 0.44710  0.06894  0.36879  Biso   1.000  S
  C127     1.0000 0.43180  0.13390  0.42890  Biso   1.000  C
  H147     1.0000 0.44930  0.13400  0.49430  Biso   1.000  H
  H148     1.0000 0.44830  0.16430  0.39050  Biso   1.000  H
  C128     1.0000 0.37050  0.14500  0.44080  Biso   1.000  C
  H149     1.0000 0.36490  0.18450  0.45610  Biso   1.000  H
  H150     1.0000 0.35160  0.13700  0.37830  Biso   1.000  H
  N17      1.0000 0.34570  0.11130  0.51880  Biso   1.000  N
  N18      1.0000 0.29820  0.08290  0.50690  Biso   1.000  N
  C129     1.0000 0.28710  0.06120  0.59340  Biso   1.000  C
  H151     1.0000 0.25600  0.03870  0.60700  Biso   1.000  H
  C130     1.0000 0.32700  0.07580  0.66180  Biso   1.000  C
  H152     1.0000 0.32890  0.06550  0.72880  Biso   1.000  H
  C131     1.0000 0.36280  0.10830  0.61070  Biso   1.000  C
  H153     1.0000 0.39460  0.12590  0.63670  Biso   1.000  H
  C132     1.0000 0.38430  0.15290  0.96110  Biso   1.000  C
  C133     1.0000 0.39360  0.21510  0.96030  Biso   1.000  C
  H154     1.0000 0.37120  0.23220  0.01160  Biso   1.000  H
  H155     1.0000 0.38290  0.23000  0.89650  Biso   1.000  H
  H156     1.0000 0.43260  0.22290  0.97240  Biso   1.000  H
  C134     1.0000 0.42170  0.12650  0.88180  Biso   1.000  C
  H157     1.0000 0.46040  0.13120  0.90020  Biso   1.000  H
  H158     1.0000 0.41490  0.14450  0.81880  Biso   1.000  H
  H159     1.0000 0.41320  0.08710  0.87650  Biso   1.000  H
  C135     1.0000 0.32360  0.14210  0.93800  Biso   1.000  C
  H160     1.0000 0.31810  0.10260  0.92640  Biso   1.000  H
  H161     1.0000 0.31310  0.16280  0.87940  Biso   1.000  H
  H162     1.0000 0.30080  0.15400  0.99330  Biso   1.000  H
  S19      1.0000 0.83803  0.52224  0.75291  Biso   1.000  S
  C136     1.0000 0.88600  0.56810  0.69920  Biso   1.000  C
  C137     1.0000 0.93220  0.58910  0.74780  Biso   1.000  C
  C138     1.0000 0.96490  0.62710  0.69700  Biso   1.000  C
  C139     1.0000 0.94900  0.64640  0.60490  Biso   1.000  C
  H163     1.0000 0.97190  0.67220  0.57190  Biso   1.000  H
  C140     1.0000 0.90090  0.62920  0.56070  Biso   1.000  C
  C141     1.0000 0.87030  0.58810  0.60670  Biso   1.000  C
  H164     1.0000 0.83850  0.57350  0.57550  Biso   1.000  H
  S20      1.0000 0.94710  0.56894  0.86879  Biso   1.000  S
  C142     1.0000 0.93180  0.63390  0.92890  Biso   1.000  C
  H165     1.0000 0.94930  0.63400  0.99430  Biso   1.000  H
  H166     1.0000 0.94830  0.66430  0.89050  Biso   1.000  H
  C143     1.0000 0.87050  0.64500  0.94080  Biso   1.000  C
  H167     1.0000 0.86490  0.68450  0.95610  Biso   1.000  H
  H168     1.0000 0.85160  0.63700  0.87830  Biso   1.000  H
  N19      1.0000 0.84570  0.61130  0.01880  Biso   1.000  N
  N20      1.0000 0.79820  0.58290  0.00690  Biso   1.000  N
  C144     1.0000 0.78710  0.56120  0.09340  Biso   1.000  C
  H169     1.0000 0.75600  0.53870  0.10700  Biso   1.000  H
  C145     1.0000 0.82700  0.57580  0.16180  Biso   1.000  C
  H170     1.0000 0.82890  0.56550  0.22880  Biso   1.000  H
  C146     1.0000 0.86280  0.60830  0.11070  Biso   1.000  C
  H171     1.0000 0.89460  0.62590  0.13670  Biso   1.000  H
  C147     1.0000 0.88430  0.65290  0.46110  Biso   1.000  C
  C148     1.0000 0.89360  0.71510  0.46030  Biso   1.000  C
  H172     1.0000 0.87120  0.73220  0.51160  Biso   1.000  H
  H173     1.0000 0.88290  0.73000  0.39650  Biso   1.000  H
  H174     1.0000 0.93260  0.72290  0.47240  Biso   1.000  H
  C149     1.0000 0.92170  0.62650  0.38180  Biso   1.000  C
  H175     1.0000 0.96040  0.63120  0.40020  Biso   1.000  H
  H176     1.0000 0.91490  0.64450  0.31880  Biso   1.000  H
  H177     1.0000 0.91320  0.58710  0.37650  Biso   1.000  H
  C150     1.0000 0.82360  0.64210  0.43800  Biso   1.000  C
  H178     1.0000 0.81810  0.60260  0.42640  Biso   1.000  H
  H179     1.0000 0.81310  0.66280  0.37940  Biso   1.000  H
  H180     1.0000 0.80080  0.65400  0.49330  Biso   1.000  H
  S21      1.0000 0.66197  0.97776  0.25291  Biso   1.000  S
  C151     1.0000 0.61400  0.93190  0.19920  Biso   1.000  C
  C152     1.0000 0.56780  0.91090  0.24780  Biso   1.000  C
  C153     1.0000 0.53510  0.87290  0.19700  Biso   1.000  C
  C154     1.0000 0.55100  0.85360  0.10490  Biso   1.000  C
  H181     1.0000 0.52810  0.82780  0.07190  Biso   1.000  H
  C155     1.0000 0.59910  0.87080  0.06070  Biso   1.000  C
  C156     1.0000 0.62970  0.91190  0.10670  Biso   1.000  C
  H182     1.0000 0.66150  0.92650  0.07550  Biso   1.000  H
  S22      1.0000 0.55290  0.93106  0.36879  Biso   1.000  S
  C157     1.0000 0.56820  0.86610  0.42890  Biso   1.000  C
  H183     1.0000 0.55070  0.86600  0.49430  Biso   1.000  H
  H184     1.0000 0.55170  0.83570  0.39050  Biso   1.000  H
  C158     1.0000 0.62950  0.85500  0.44080  Biso   1.000  C
  H185     1.0000 0.63510  0.81550  0.45610  Biso   1.000  H
  H186     1.0000 0.64840  0.86300  0.37830  Biso   1.000  H
  N21      1.0000 0.65430  0.88870  0.51880  Biso   1.000  N
  N22      1.0000 0.70180  0.91710  0.50690  Biso   1.000  N
  C159     1.0000 0.71290  0.93880  0.59340  Biso   1.000  C
  H187     1.0000 0.74400  0.96130  0.60700  Biso   1.000  H
  C160     1.0000 0.67300  0.92420  0.66180  Biso   1.000  C
  H188     1.0000 0.67110  0.93450  0.72880  Biso   1.000  H
  C161     1.0000 0.63720  0.89170  0.61070  Biso   1.000  C
  H189     1.0000 0.60540  0.87410  0.63670  Biso   1.000  H
  C162     1.0000 0.61570  0.84710  0.96110  Biso   1.000  C
  C163     1.0000 0.60640  0.78490  0.96030  Biso   1.000  C
  H190     1.0000 0.62880  0.76780  0.01160  Biso   1.000  H
  H191     1.0000 0.61710  0.77000  0.89650  Biso   1.000  H
  H192     1.0000 0.56740  0.77710  0.97240  Biso   1.000  H
  C164     1.0000 0.57830  0.87350  0.88180  Biso   1.000  C
  H193     1.0000 0.53960  0.86880  0.90020  Biso   1.000  H
  H194     1.0000 0.58510  0.85550  0.81880  Biso   1.000  H
  H195     1.0000 0.58680  0.91290  0.87650  Biso   1.000  H
  C165     1.0000 0.67640  0.85790  0.93800  Biso   1.000  C
  H196     1.0000 0.68190  0.89740  0.92640  Biso   1.000  H
  H197     1.0000 0.68690  0.83720  0.87940  Biso   1.000  H
  H198     1.0000 0.69920  0.84600  0.99330  Biso   1.000  H
  S23      1.0000 0.16197  0.47776  0.75291  Biso   1.000  S
  C166     1.0000 0.11400  0.43190  0.69920  Biso   1.000  C
  C167     1.0000 0.06780  0.41090  0.74780  Biso   1.000  C
  C168     1.0000 0.03510  0.37290  0.69700  Biso   1.000  C
  C169     1.0000 0.05100  0.35360  0.60490  Biso   1.000  C
  H199     1.0000 0.02810  0.32780  0.57190  Biso   1.000  H
  C170     1.0000 0.09910  0.37080  0.56070  Biso   1.000  C
  C171     1.0000 0.12970  0.41190  0.60670  Biso   1.000  C
  H200     1.0000 0.16150  0.42650  0.57550  Biso   1.000  H
  S24      1.0000 0.05290  0.43106  0.86879  Biso   1.000  S
  C172     1.0000 0.06820  0.36610  0.92890  Biso   1.000  C
  H201     1.0000 0.05070  0.36600  0.99430  Biso   1.000  H
  H202     1.0000 0.05170  0.33570  0.89050  Biso   1.000  H
  C173     1.0000 0.12950  0.35500  0.94080  Biso   1.000  C
  H203     1.0000 0.13510  0.31550  0.95610  Biso   1.000  H
  H204     1.0000 0.14840  0.36300  0.87830  Biso   1.000  H
  N23      1.0000 0.15430  0.38870  0.01880  Biso   1.000  N
  N24      1.0000 0.20180  0.41710  0.00690  Biso   1.000  N
  C174     1.0000 0.21290  0.43880  0.09340  Biso   1.000  C
  H205     1.0000 0.24400  0.46130  0.10700  Biso   1.000  H
  C175     1.0000 0.17300  0.42420  0.16180  Biso   1.000  C
  H206     1.0000 0.17110  0.43450  0.22880  Biso   1.000  H
  C176     1.0000 0.13720  0.39170  0.11070  Biso   1.000  C
  H207     1.0000 0.10540  0.37410  0.13670  Biso   1.000  H
  C177     1.0000 0.11570  0.34710  0.46110  Biso   1.000  C
  C178     1.0000 0.10640  0.28490  0.46030  Biso   1.000  C
  H208     1.0000 0.12880  0.26780  0.51160  Biso   1.000  H
  H209     1.0000 0.11710  0.27000  0.39650  Biso   1.000  H
  H210     1.0000 0.06740  0.27710  0.47240  Biso   1.000  H
  C179     1.0000 0.07830  0.37350  0.38180  Biso   1.000  C
  H211     1.0000 0.03960  0.36880  0.40020  Biso   1.000  H
  H212     1.0000 0.08510  0.35550  0.31880  Biso   1.000  H
  H213     1.0000 0.08680  0.41290  0.37650  Biso   1.000  H
  C180     1.0000 0.17640  0.35790  0.43800  Biso   1.000  C
  H214     1.0000 0.18190  0.39740  0.42640  Biso   1.000  H
  H215     1.0000 0.18690  0.33720  0.37940  Biso   1.000  H
  H216     1.0000 0.19920  0.34600  0.49330  Biso   1.000  H
  S25      1.0000 0.47776  0.83803  0.24709  Biso   1.000  S
  C181     1.0000 0.43190  0.88600  0.30080  Biso   1.000  C
  C182     1.0000 0.41090  0.93220  0.25220  Biso   1.000  C
  C183     1.0000 0.37290  0.96490  0.30300  Biso   1.000  C
  C184     1.0000 0.35360  0.94900  0.39510  Biso   1.000  C
  H217     1.0000 0.32780  0.97190  0.42810  Biso   1.000  H
  C185     1.0000 0.37080  0.90090  0.43930  Biso   1.000  C
  C186     1.0000 0.41190  0.87030  0.39330  Biso   1.000  C
  H218     1.0000 0.42650  0.83850  0.42450  Biso   1.000  H
  S26      1.0000 0.43106  0.94710  0.13121  Biso   1.000  S
  C187     1.0000 0.36610  0.93180  0.07110  Biso   1.000  C
  H219     1.0000 0.36600  0.94930  0.00570  Biso   1.000  H
  H220     1.0000 0.33570  0.94830  0.10950  Biso   1.000  H
  C188     1.0000 0.35500  0.87050  0.05920  Biso   1.000  C
  H221     1.0000 0.31550  0.86490  0.04390  Biso   1.000  H
  H222     1.0000 0.36300  0.85160  0.12170  Biso   1.000  H
  N25      1.0000 0.38870  0.84570  0.98120  Biso   1.000  N
  N26      1.0000 0.41710  0.79820  0.99310  Biso   1.000  N
  C189     1.0000 0.43880  0.78710  0.90660  Biso   1.000  C
  H223     1.0000 0.46130  0.75600  0.89300  Biso   1.000  H
  C190     1.0000 0.42420  0.82700  0.83820  Biso   1.000  C
  H224     1.0000 0.43450  0.82890  0.77120  Biso   1.000  H
  C191     1.0000 0.39170  0.86280  0.88930  Biso   1.000  C
  H225     1.0000 0.37410  0.89460  0.86330  Biso   1.000  H
  C192     1.0000 0.34710  0.88430  0.53890  Biso   1.000  C
  C193     1.0000 0.28490  0.89360  0.53970  Biso   1.000  C
  H226     1.0000 0.26780  0.87120  0.48840  Biso   1.000  H
  H227     1.0000 0.27000  0.88290  0.60350  Biso   1.000  H
  H228     1.0000 0.27710  0.93260  0.52760  Biso   1.000  H
  C194     1.0000 0.37350  0.92170  0.61820  Biso   1.000  C
  H229     1.0000 0.36880  0.96040  0.59980  Biso   1.000  H
  H230     1.0000 0.35550  0.91490  0.68120  Biso   1.000  H
  H231     1.0000 0.41290  0.91320  0.62350  Biso   1.000  H
  C195     1.0000 0.35790  0.82360  0.56200  Biso   1.000  C
  H232     1.0000 0.39740  0.81810  0.57360  Biso   1.000  H
  H233     1.0000 0.33720  0.81310  0.62060  Biso   1.000  H
  H234     1.0000 0.34600  0.80080  0.50670  Biso   1.000  H
  S27      1.0000 0.97776  0.33803  0.74709  Biso   1.000  S
  C196     1.0000 0.93190  0.38600  0.80080  Biso   1.000  C
  C197     1.0000 0.91090  0.43220  0.75220  Biso   1.000  C
  C198     1.0000 0.87290  0.46490  0.80300  Biso   1.000  C
  C199     1.0000 0.85360  0.44900  0.89510  Biso   1.000  C
  H235     1.0000 0.82780  0.47190  0.92810  Biso   1.000  H
  C200     1.0000 0.87080  0.40090  0.93930  Biso   1.000  C
  C201     1.0000 0.91190  0.37030  0.89330  Biso   1.000  C
  H236     1.0000 0.92650  0.33850  0.92450  Biso   1.000  H
  S28      1.0000 0.93106  0.44710  0.63121  Biso   1.000  S
  C202     1.0000 0.86610  0.43180  0.57110  Biso   1.000  C
  H237     1.0000 0.86600  0.44930  0.50570  Biso   1.000  H
  H238     1.0000 0.83570  0.44830  0.60950  Biso   1.000  H
  C203     1.0000 0.85500  0.37050  0.55920  Biso   1.000  C
  H239     1.0000 0.81550  0.36490  0.54390  Biso   1.000  H
  H240     1.0000 0.86300  0.35160  0.62170  Biso   1.000  H
  N27      1.0000 0.88870  0.34570  0.48120  Biso   1.000  N
  N28      1.0000 0.91710  0.29820  0.49310  Biso   1.000  N
  C204     1.0000 0.93880  0.28710  0.40660  Biso   1.000  C
  H241     1.0000 0.96130  0.25600  0.39300  Biso   1.000  H
  C205     1.0000 0.92420  0.32700  0.33820  Biso   1.000  C
  H242     1.0000 0.93450  0.32890  0.27120  Biso   1.000  H
  C206     1.0000 0.89170  0.36280  0.38930  Biso   1.000  C
  H243     1.0000 0.87410  0.39460  0.36330  Biso   1.000  H
  C207     1.0000 0.84710  0.38430  0.03890  Biso   1.000  C
  C208     1.0000 0.78490  0.39360  0.03970  Biso   1.000  C
  H244     1.0000 0.76780  0.37120  0.98840  Biso   1.000  H
  H245     1.0000 0.77000  0.38290  0.10350  Biso   1.000  H
  H246     1.0000 0.77710  0.43260  0.02760  Biso   1.000  H
  C209     1.0000 0.87350  0.42170  0.11820  Biso   1.000  C
  H247     1.0000 0.86880  0.46040  0.09980  Biso   1.000  H
  H248     1.0000 0.85550  0.41490  0.18120  Biso   1.000  H
  H249     1.0000 0.91290  0.41320  0.12350  Biso   1.000  H
  C210     1.0000 0.85790  0.32360  0.06200  Biso   1.000  C
  H250     1.0000 0.89740  0.31810  0.07360  Biso   1.000  H
  H251     1.0000 0.83720  0.31310  0.12060  Biso   1.000  H
  H252     1.0000 0.84600  0.30080  0.00670  Biso   1.000  H
  S29      1.0000 0.52224  0.16197  0.24709  Biso   1.000  S
  C211     1.0000 0.56810  0.11400  0.30080  Biso   1.000  C
  C212     1.0000 0.58910  0.06780  0.25220  Biso   1.000  C
  C213     1.0000 0.62710  0.03510  0.30300  Biso   1.000  C
  C214     1.0000 0.64640  0.05100  0.39510  Biso   1.000  C
  H253     1.0000 0.67220  0.02810  0.42810  Biso   1.000  H
  C215     1.0000 0.62920  0.09910  0.43930  Biso   1.000  C
  C216     1.0000 0.58810  0.12970  0.39330  Biso   1.000  C
  H254     1.0000 0.57350  0.16150  0.42450  Biso   1.000  H
  S30      1.0000 0.56894  0.05290  0.13121  Biso   1.000  S
  C217     1.0000 0.63390  0.06820  0.07110  Biso   1.000  C
  H255     1.0000 0.63400  0.05070  0.00570  Biso   1.000  H
  H256     1.0000 0.66430  0.05170  0.10950  Biso   1.000  H
  C218     1.0000 0.64500  0.12950  0.05920  Biso   1.000  C
  H257     1.0000 0.68450  0.13510  0.04390  Biso   1.000  H
  H258     1.0000 0.63700  0.14840  0.12170  Biso   1.000  H
  N29      1.0000 0.61130  0.15430  0.98120  Biso   1.000  N
  N30      1.0000 0.58290  0.20180  0.99310  Biso   1.000  N
  C219     1.0000 0.56120  0.21290  0.90660  Biso   1.000  C
  H259     1.0000 0.53870  0.24400  0.89300  Biso   1.000  H
  C220     1.0000 0.57580  0.17300  0.83820  Biso   1.000  C
  H260     1.0000 0.56550  0.17110  0.77120  Biso   1.000  H
  C221     1.0000 0.60830  0.13720  0.88930  Biso   1.000  C
  H261     1.0000 0.62590  0.10540  0.86330  Biso   1.000  H
  C222     1.0000 0.65290  0.11570  0.53890  Biso   1.000  C
  C223     1.0000 0.71510  0.10640  0.53970  Biso   1.000  C
  H262     1.0000 0.73220  0.12880  0.48840  Biso   1.000  H
  H263     1.0000 0.73000  0.11710  0.60350  Biso   1.000  H
  H264     1.0000 0.72290  0.06740  0.52760  Biso   1.000  H
  C224     1.0000 0.62650  0.07830  0.61820  Biso   1.000  C
  H265     1.0000 0.63120  0.03960  0.59980  Biso   1.000  H
  H266     1.0000 0.64450  0.08510  0.68120  Biso   1.000  H
  H267     1.0000 0.58710  0.08680  0.62350  Biso   1.000  H
  C225     1.0000 0.64210  0.17640  0.56200  Biso   1.000  C
  H268     1.0000 0.60260  0.18190  0.57360  Biso   1.000  H
  H269     1.0000 0.66280  0.18690  0.62060  Biso   1.000  H
  H270     1.0000 0.65400  0.19920  0.50670  Biso   1.000  H
  S31      1.0000 0.02224  0.66197  0.74709  Biso   1.000  S
  C226     1.0000 0.06810  0.61400  0.80080  Biso   1.000  C
  C227     1.0000 0.08910  0.56780  0.75220  Biso   1.000  C
  C228     1.0000 0.12710  0.53510  0.80300  Biso   1.000  C
  C229     1.0000 0.14640  0.55100  0.89510  Biso   1.000  C
  H271     1.0000 0.17220  0.52810  0.92810  Biso   1.000  H
  C230     1.0000 0.12920  0.59910  0.93930  Biso   1.000  C
  C231     1.0000 0.08810  0.62970  0.89330  Biso   1.000  C
  H272     1.0000 0.07350  0.66150  0.92450  Biso   1.000  H
  S32      1.0000 0.06894  0.55290  0.63121  Biso   1.000  S
  C232     1.0000 0.13390  0.56820  0.57110  Biso   1.000  C
  H273     1.0000 0.13400  0.55070  0.50570  Biso   1.000  H
  H274     1.0000 0.16430  0.55170  0.60950  Biso   1.000  H
  C233     1.0000 0.14500  0.62950  0.55920  Biso   1.000  C
  H275     1.0000 0.18450  0.63510  0.54390  Biso   1.000  H
  H276     1.0000 0.13700  0.64840  0.62170  Biso   1.000  H
  N31      1.0000 0.11130  0.65430  0.48120  Biso   1.000  N
  N32      1.0000 0.08290  0.70180  0.49310  Biso   1.000  N
  C234     1.0000 0.06120  0.71290  0.40660  Biso   1.000  C
  H277     1.0000 0.03870  0.74400  0.39300  Biso   1.000  H
  C235     1.0000 0.07580  0.67300  0.33820  Biso   1.000  C
  H278     1.0000 0.06550  0.67110  0.27120  Biso   1.000  H
  C236     1.0000 0.10830  0.63720  0.38930  Biso   1.000  C
  H279     1.0000 0.12590  0.60540  0.36330  Biso   1.000  H
  C237     1.0000 0.15290  0.61570  0.03890  Biso   1.000  C
  C238     1.0000 0.21510  0.60640  0.03970  Biso   1.000  C
  H280     1.0000 0.23220  0.62880  0.98840  Biso   1.000  H
  H281     1.0000 0.23000  0.61710  0.10350  Biso   1.000  H
  H282     1.0000 0.22290  0.56740  0.02760  Biso   1.000  H
  C239     1.0000 0.12650  0.57830  0.11820  Biso   1.000  C
  H283     1.0000 0.13120  0.53960  0.09980  Biso   1.000  H
  H284     1.0000 0.14450  0.58510  0.18120  Biso   1.000  H
  H285     1.0000 0.08710  0.58680  0.12350  Biso   1.000  H
  C240     1.0000 0.14210  0.67640  0.06200  Biso   1.000  C
  H286     1.0000 0.10260  0.68190  0.07360  Biso   1.000  H
  H287     1.0000 0.16280  0.68690  0.12060  Biso   1.000  H
  H288     1.0000 0.15400  0.69920  0.00670  Biso   1.000  H
  Ag1      1.0000 0.25000  0.07766  0.37500  Biso   1.000  Ag
  Ag2      1.0000 0.75000  0.57766  0.87500  Biso   1.000  Ag
  Ag3      1.0000 0.75000  0.92234  0.37500  Biso   1.000  Ag
  Ag4      1.0000 0.25000  0.42234  0.87500  Biso   1.000  Ag
  Ag5      1.0000 0.07766  0.75000  0.62500  Biso   1.000  Ag
  Ag6      1.0000 0.92234  0.25000  0.62500  Biso   1.000  Ag
  Ag7      1.0000 0.42234  0.75000  0.12500  Biso   1.000  Ag
  Ag8      1.0000 0.57766  0.25000  0.12500  Biso   1.000  Ag
