data_image0
_cell_length_a       16.7153
_cell_length_b       8.4558
_cell_length_c       35.4943
_cell_angle_alpha    90
_cell_angle_beta     90
_cell_angle_gamma    90

_symmetry_space_group_name_H-M    "P 1"
_symmetry_int_tables_number       1

loop_
  _symmetry_equiv_pos_as_xyz
  'x, y, z'

loop_
  _atom_site_label
  _atom_site_occupancy
  _atom_site_fract_x
  _atom_site_fract_y
  _atom_site_fract_z
  _atom_site_thermal_displace_type
  _atom_site_B_iso_or_equiv
  _atom_site_type_symbol
  Zn1      1.0000 0.47803  0.61268  0.94979  Biso   1.000  Zn
  O1       1.0000 0.51691  0.39760  0.96473  Biso   1.000  O
  O2       1.0000 0.59506  0.31330  0.01118  Biso   1.000  O
  O3       1.0000 0.92988  0.23140  0.93130  Biso   1.000  O
  O4       1.0000 0.57822  0.53130  0.59456  Biso   1.000  O
  O5       1.0000 0.87501  0.18300  0.98703  Biso   1.000  O
  O6       1.0000 0.62617  0.77250  0.60239  Biso   1.000  O
  C1       1.0000 0.72626  0.28810  0.96352  Biso   1.000  C
  C2       1.0000 0.79134  0.28390  0.93921  Biso   1.000  C
  C3       1.0000 0.78100  0.32640  0.90157  Biso   1.000  C
  C4       1.0000 0.70611  0.37070  0.88782  Biso   1.000  C
  C5       1.0000 0.64159  0.37320  0.91243  Biso   1.000  C
  C6       1.0000 0.65145  0.33450  0.95036  Biso   1.000  C
  C7       1.0000 0.69555  0.41450  0.84745  Biso   1.000  C
  C8       1.0000 0.75412  0.49710  0.82788  Biso   1.000  C
  C9       1.0000 0.74445  0.53510  0.79003  Biso   1.000  C
  C10      1.0000 0.67584  0.48900  0.77046  Biso   1.000  C
  C11      1.0000 0.61651  0.40830  0.79039  Biso   1.000  C
  C12      1.0000 0.62594  0.37160  0.82815  Biso   1.000  C
  C13      1.0000 0.66476  0.52590  0.72989  Biso   1.000  C
  C14      1.0000 0.68990  0.66770  0.71413  Biso   1.000  C
  C15      1.0000 0.67610  0.70130  0.67634  Biso   1.000  C
  C16      1.0000 0.63667  0.59270  0.65344  Biso   1.000  C
  C17      1.0000 0.61323  0.44920  0.66852  Biso   1.000  C
  C18      1.0000 0.62724  0.41640  0.70638  Biso   1.000  C
  C19      1.0000 0.87049  0.23000  0.95431  Biso   1.000  C
  C20      1.0000 0.58320  0.35060  0.97718  Biso   1.000  C
  C21      1.0000 0.61372  0.63930  0.61383  Biso   1.000  C
  H1       1.0000 0.73300  0.26300  0.98890  Biso   1.000  H
  H2       1.0000 0.82580  0.31190  0.88560  Biso   1.000  H
  H3       1.0000 0.59110  0.40070  0.90480  Biso   1.000  H
  H4       1.0000 0.80420  0.53820  0.84040  Biso   1.000  H
  H5       1.0000 0.78800  0.58340  0.77650  Biso   1.000  H
  H6       1.0000 0.56840  0.37560  0.77890  Biso   1.000  H
  H7       1.0000 0.58450  0.32330  0.84300  Biso   1.000  H
  H8       1.0000 0.71500  0.74820  0.72880  Biso   1.000  H
  H9       1.0000 0.69030  0.80170  0.66680  Biso   1.000  H
  H10      1.0000 0.59050  0.37500  0.65480  Biso   1.000  H
  H11      1.0000 0.61190  0.31990  0.71690  Biso   1.000  H
  Zn2      1.0000 0.02197  0.88732  0.44979  Biso   1.000  Zn
  O7       1.0000 0.98309  0.10240  0.46473  Biso   1.000  O
  O8       1.0000 0.90494  0.18670  0.51118  Biso   1.000  O
  O9       1.0000 0.57012  0.26860  0.43130  Biso   1.000  O
  O10      1.0000 0.92178  0.96870  0.09456  Biso   1.000  O
  O11      1.0000 0.62499  0.31700  0.48703  Biso   1.000  O
  O12      1.0000 0.87383  0.72750  0.10239  Biso   1.000  O
  C22      1.0000 0.77374  0.21190  0.46352  Biso   1.000  C
  C23      1.0000 0.70866  0.21610  0.43921  Biso   1.000  C
  C24      1.0000 0.71900  0.17360  0.40157  Biso   1.000  C
  C25      1.0000 0.79389  0.12930  0.38782  Biso   1.000  C
  C26      1.0000 0.85841  0.12680  0.41243  Biso   1.000  C
  C27      1.0000 0.84855  0.16550  0.45036  Biso   1.000  C
  C28      1.0000 0.80445  0.08550  0.34745  Biso   1.000  C
  C29      1.0000 0.74588  0.00290  0.32788  Biso   1.000  C
  C30      1.0000 0.75555  0.96490  0.29003  Biso   1.000  C
  C31      1.0000 0.82416  0.01100  0.27046  Biso   1.000  C
  C32      1.0000 0.88349  0.09170  0.29039  Biso   1.000  C
  C33      1.0000 0.87406  0.12840  0.32815  Biso   1.000  C
  C34      1.0000 0.83524  0.97410  0.22989  Biso   1.000  C
  C35      1.0000 0.81010  0.83230  0.21413  Biso   1.000  C
  C36      1.0000 0.82390  0.79870  0.17634  Biso   1.000  C
  C37      1.0000 0.86333  0.90730  0.15344  Biso   1.000  C
  C38      1.0000 0.88677  0.05080  0.16852  Biso   1.000  C
  C39      1.0000 0.87276  0.08360  0.20638  Biso   1.000  C
  C40      1.0000 0.62951  0.27000  0.45431  Biso   1.000  C
  C41      1.0000 0.91680  0.14940  0.47718  Biso   1.000  C
  C42      1.0000 0.88628  0.86070  0.11383  Biso   1.000  C
  H12      1.0000 0.76700  0.23700  0.48890  Biso   1.000  H
  H13      1.0000 0.67420  0.18810  0.38560  Biso   1.000  H
  H14      1.0000 0.90890  0.09930  0.40480  Biso   1.000  H
  H15      1.0000 0.69580  0.96180  0.34040  Biso   1.000  H
  H16      1.0000 0.71200  0.91660  0.27650  Biso   1.000  H
  H17      1.0000 0.93160  0.12440  0.27890  Biso   1.000  H
  H18      1.0000 0.91550  0.17670  0.34300  Biso   1.000  H
  H19      1.0000 0.78500  0.75180  0.22880  Biso   1.000  H
  H20      1.0000 0.80970  0.69830  0.16680  Biso   1.000  H
  H21      1.0000 0.90950  0.12500  0.15480  Biso   1.000  H
  H22      1.0000 0.88810  0.18010  0.21690  Biso   1.000  H
  Zn3      1.0000 0.52197  0.61268  0.55021  Biso   1.000  Zn
  O13      1.0000 0.48309  0.39760  0.53527  Biso   1.000  O
  O14      1.0000 0.40494  0.31330  0.48882  Biso   1.000  O
  O15      1.0000 0.07012  0.23140  0.56870  Biso   1.000  O
  O16      1.0000 0.42178  0.53130  0.90544  Biso   1.000  O
  O17      1.0000 0.12499  0.18300  0.51297  Biso   1.000  O
  O18      1.0000 0.37383  0.77250  0.89761  Biso   1.000  O
  C43      1.0000 0.27374  0.28810  0.53648  Biso   1.000  C
  C44      1.0000 0.20866  0.28390  0.56079  Biso   1.000  C
  C45      1.0000 0.21900  0.32640  0.59843  Biso   1.000  C
  C46      1.0000 0.29389  0.37070  0.61218  Biso   1.000  C
  C47      1.0000 0.35841  0.37320  0.58757  Biso   1.000  C
  C48      1.0000 0.34855  0.33450  0.54964  Biso   1.000  C
  C49      1.0000 0.30445  0.41450  0.65255  Biso   1.000  C
  C50      1.0000 0.24588  0.49710  0.67212  Biso   1.000  C
  C51      1.0000 0.25555  0.53510  0.70997  Biso   1.000  C
  C52      1.0000 0.32416  0.48900  0.72954  Biso   1.000  C
  C53      1.0000 0.38349  0.40830  0.70961  Biso   1.000  C
  C54      1.0000 0.37406  0.37160  0.67185  Biso   1.000  C
  C55      1.0000 0.33524  0.52590  0.77011  Biso   1.000  C
  C56      1.0000 0.31010  0.66770  0.78587  Biso   1.000  C
  C57      1.0000 0.32390  0.70130  0.82366  Biso   1.000  C
  C58      1.0000 0.36333  0.59270  0.84656  Biso   1.000  C
  C59      1.0000 0.38677  0.44920  0.83148  Biso   1.000  C
  C60      1.0000 0.37276  0.41640  0.79362  Biso   1.000  C
  C61      1.0000 0.12951  0.23000  0.54569  Biso   1.000  C
  C62      1.0000 0.41680  0.35060  0.52282  Biso   1.000  C
  C63      1.0000 0.38628  0.63930  0.88617  Biso   1.000  C
  H23      1.0000 0.26700  0.26300  0.51110  Biso   1.000  H
  H24      1.0000 0.17420  0.31190  0.61440  Biso   1.000  H
  H25      1.0000 0.40890  0.40070  0.59520  Biso   1.000  H
  H26      1.0000 0.19580  0.53820  0.65960  Biso   1.000  H
  H27      1.0000 0.21200  0.58340  0.72350  Biso   1.000  H
  H28      1.0000 0.43160  0.37560  0.72110  Biso   1.000  H
  H29      1.0000 0.41550  0.32330  0.65700  Biso   1.000  H
  H30      1.0000 0.28500  0.74820  0.77120  Biso   1.000  H
  H31      1.0000 0.30970  0.80170  0.83320  Biso   1.000  H
  H32      1.0000 0.40950  0.37500  0.84520  Biso   1.000  H
  H33      1.0000 0.38810  0.31990  0.78310  Biso   1.000  H
  Zn4      1.0000 0.97803  0.88732  0.05022  Biso   1.000  Zn
  O19      1.0000 0.01691  0.10240  0.03527  Biso   1.000  O
  O20      1.0000 0.09506  0.18670  0.98882  Biso   1.000  O
  O21      1.0000 0.42988  0.26860  0.06870  Biso   1.000  O
  O22      1.0000 0.07822  0.96870  0.40544  Biso   1.000  O
  O23      1.0000 0.37501  0.31700  0.01297  Biso   1.000  O
  O24      1.0000 0.12617  0.72750  0.39761  Biso   1.000  O
  C64      1.0000 0.22626  0.21190  0.03648  Biso   1.000  C
  C65      1.0000 0.29134  0.21610  0.06079  Biso   1.000  C
  C66      1.0000 0.28100  0.17360  0.09843  Biso   1.000  C
  C67      1.0000 0.20611  0.12930  0.11218  Biso   1.000  C
  C68      1.0000 0.14159  0.12680  0.08757  Biso   1.000  C
  C69      1.0000 0.15145  0.16550  0.04964  Biso   1.000  C
  C70      1.0000 0.19555  0.08550  0.15255  Biso   1.000  C
  C71      1.0000 0.25412  0.00290  0.17212  Biso   1.000  C
  C72      1.0000 0.24445  0.96490  0.20997  Biso   1.000  C
  C73      1.0000 0.17584  0.01100  0.22954  Biso   1.000  C
  C74      1.0000 0.11651  0.09170  0.20961  Biso   1.000  C
  C75      1.0000 0.12594  0.12840  0.17185  Biso   1.000  C
  C76      1.0000 0.16476  0.97410  0.27011  Biso   1.000  C
  C77      1.0000 0.18990  0.83230  0.28587  Biso   1.000  C
  C78      1.0000 0.17610  0.79870  0.32366  Biso   1.000  C
  C79      1.0000 0.13667  0.90730  0.34656  Biso   1.000  C
  C80      1.0000 0.11323  0.05080  0.33148  Biso   1.000  C
  C81      1.0000 0.12724  0.08360  0.29362  Biso   1.000  C
  C82      1.0000 0.37049  0.27000  0.04569  Biso   1.000  C
  C83      1.0000 0.08320  0.14940  0.02282  Biso   1.000  C
  C84      1.0000 0.11372  0.86070  0.38617  Biso   1.000  C
  H34      1.0000 0.23300  0.23700  0.01110  Biso   1.000  H
  H35      1.0000 0.32580  0.18810  0.11440  Biso   1.000  H
  H36      1.0000 0.09110  0.09930  0.09520  Biso   1.000  H
  H37      1.0000 0.30420  0.96180  0.15960  Biso   1.000  H
  H38      1.0000 0.28800  0.91660  0.22350  Biso   1.000  H
  H39      1.0000 0.06840  0.12440  0.22110  Biso   1.000  H
  H40      1.0000 0.08450  0.17670  0.15700  Biso   1.000  H
  H41      1.0000 0.21500  0.75180  0.27120  Biso   1.000  H
  H42      1.0000 0.19030  0.69830  0.33320  Biso   1.000  H
  H43      1.0000 0.09050  0.12500  0.34520  Biso   1.000  H
  H44      1.0000 0.11190  0.18010  0.28310  Biso   1.000  H
  Zn5      1.0000 0.52197  0.38732  0.05022  Biso   1.000  Zn
  O25      1.0000 0.48309  0.60240  0.03527  Biso   1.000  O
  O26      1.0000 0.40494  0.68670  0.98882  Biso   1.000  O
  O27      1.0000 0.07012  0.76860  0.06870  Biso   1.000  O
  O28      1.0000 0.42178  0.46870  0.40544  Biso   1.000  O
  O29      1.0000 0.12499  0.81700  0.01297  Biso   1.000  O
  O30      1.0000 0.37383  0.22750  0.39761  Biso   1.000  O
  C85      1.0000 0.27374  0.71190  0.03648  Biso   1.000  C
  C86      1.0000 0.20866  0.71610  0.06079  Biso   1.000  C
  C87      1.0000 0.21900  0.67360  0.09843  Biso   1.000  C
  C88      1.0000 0.29389  0.62930  0.11218  Biso   1.000  C
  C89      1.0000 0.35841  0.62680  0.08757  Biso   1.000  C
  C90      1.0000 0.34855  0.66550  0.04964  Biso   1.000  C
  C91      1.0000 0.30445  0.58550  0.15255  Biso   1.000  C
  C92      1.0000 0.24588  0.50290  0.17212  Biso   1.000  C
  C93      1.0000 0.25555  0.46490  0.20997  Biso   1.000  C
  C94      1.0000 0.32416  0.51100  0.22954  Biso   1.000  C
  C95      1.0000 0.38349  0.59170  0.20961  Biso   1.000  C
  C96      1.0000 0.37406  0.62840  0.17185  Biso   1.000  C
  C97      1.0000 0.33524  0.47410  0.27011  Biso   1.000  C
  C98      1.0000 0.31010  0.33230  0.28587  Biso   1.000  C
  C99      1.0000 0.32390  0.29870  0.32366  Biso   1.000  C
  C100     1.0000 0.36333  0.40730  0.34656  Biso   1.000  C
  C101     1.0000 0.38677  0.55080  0.33148  Biso   1.000  C
  C102     1.0000 0.37276  0.58360  0.29362  Biso   1.000  C
  C103     1.0000 0.12951  0.77000  0.04569  Biso   1.000  C
  C104     1.0000 0.41680  0.64940  0.02282  Biso   1.000  C
  C105     1.0000 0.38628  0.36070  0.38617  Biso   1.000  C
  H45      1.0000 0.26700  0.73700  0.01110  Biso   1.000  H
  H46      1.0000 0.17420  0.68810  0.11440  Biso   1.000  H
  H47      1.0000 0.40890  0.59930  0.09520  Biso   1.000  H
  H48      1.0000 0.19580  0.46180  0.15960  Biso   1.000  H
  H49      1.0000 0.21200  0.41660  0.22350  Biso   1.000  H
  H50      1.0000 0.43160  0.62440  0.22110  Biso   1.000  H
  H51      1.0000 0.41550  0.67670  0.15700  Biso   1.000  H
  H52      1.0000 0.28500  0.25180  0.27120  Biso   1.000  H
  H53      1.0000 0.30970  0.19830  0.33320  Biso   1.000  H
  H54      1.0000 0.40950  0.62500  0.34520  Biso   1.000  H
  H55      1.0000 0.38810  0.68010  0.28310  Biso   1.000  H
  Zn6      1.0000 0.97803  0.11268  0.55021  Biso   1.000  Zn
  O31      1.0000 0.01691  0.89760  0.53527  Biso   1.000  O
  O32      1.0000 0.09506  0.81330  0.48882  Biso   1.000  O
  O33      1.0000 0.42988  0.73140  0.56870  Biso   1.000  O
  O34      1.0000 0.07822  0.03130  0.90544  Biso   1.000  O
  O35      1.0000 0.37501  0.68300  0.51297  Biso   1.000  O
  O36      1.0000 0.12617  0.27250  0.89761  Biso   1.000  O
  C106     1.0000 0.22626  0.78810  0.53648  Biso   1.000  C
  C107     1.0000 0.29134  0.78390  0.56079  Biso   1.000  C
  C108     1.0000 0.28100  0.82640  0.59843  Biso   1.000  C
  C109     1.0000 0.20611  0.87070  0.61218  Biso   1.000  C
  C110     1.0000 0.14159  0.87320  0.58757  Biso   1.000  C
  C111     1.0000 0.15145  0.83450  0.54964  Biso   1.000  C
  C112     1.0000 0.19555  0.91450  0.65255  Biso   1.000  C
  C113     1.0000 0.25412  0.99710  0.67212  Biso   1.000  C
  C114     1.0000 0.24445  0.03510  0.70997  Biso   1.000  C
  C115     1.0000 0.17584  0.98900  0.72954  Biso   1.000  C
  C116     1.0000 0.11651  0.90830  0.70961  Biso   1.000  C
  C117     1.0000 0.12594  0.87160  0.67185  Biso   1.000  C
  C118     1.0000 0.16476  0.02590  0.77011  Biso   1.000  C
  C119     1.0000 0.18990  0.16770  0.78587  Biso   1.000  C
  C120     1.0000 0.17610  0.20130  0.82366  Biso   1.000  C
  C121     1.0000 0.13667  0.09270  0.84656  Biso   1.000  C
  C122     1.0000 0.11323  0.94920  0.83148  Biso   1.000  C
  C123     1.0000 0.12724  0.91640  0.79362  Biso   1.000  C
  C124     1.0000 0.37049  0.73000  0.54569  Biso   1.000  C
  C125     1.0000 0.08320  0.85060  0.52282  Biso   1.000  C
  C126     1.0000 0.11372  0.13930  0.88617  Biso   1.000  C
  H56      1.0000 0.23300  0.76300  0.51110  Biso   1.000  H
  H57      1.0000 0.32580  0.81190  0.61440  Biso   1.000  H
  H58      1.0000 0.09110  0.90070  0.59520  Biso   1.000  H
  H59      1.0000 0.30420  0.03820  0.65960  Biso   1.000  H
  H60      1.0000 0.28800  0.08340  0.72350  Biso   1.000  H
  H61      1.0000 0.06840  0.87560  0.72110  Biso   1.000  H
  H62      1.0000 0.08450  0.82330  0.65700  Biso   1.000  H
  H63      1.0000 0.21500  0.24820  0.77120  Biso   1.000  H
  H64      1.0000 0.19030  0.30170  0.83320  Biso   1.000  H
  H65      1.0000 0.09050  0.87500  0.84520  Biso   1.000  H
  H66      1.0000 0.11190  0.81990  0.78310  Biso   1.000  H
  Zn7      1.0000 0.47803  0.38732  0.44979  Biso   1.000  Zn
  O37      1.0000 0.51691  0.60240  0.46473  Biso   1.000  O
  O38      1.0000 0.59506  0.68670  0.51118  Biso   1.000  O
  O39      1.0000 0.92988  0.76860  0.43130  Biso   1.000  O
  O40      1.0000 0.57822  0.46870  0.09456  Biso   1.000  O
  O41      1.0000 0.87501  0.81700  0.48703  Biso   1.000  O
  O42      1.0000 0.62617  0.22750  0.10239  Biso   1.000  O
  C127     1.0000 0.72626  0.71190  0.46352  Biso   1.000  C
  C128     1.0000 0.79134  0.71610  0.43921  Biso   1.000  C
  C129     1.0000 0.78100  0.67360  0.40157  Biso   1.000  C
  C130     1.0000 0.70611  0.62930  0.38782  Biso   1.000  C
  C131     1.0000 0.64159  0.62680  0.41243  Biso   1.000  C
  C132     1.0000 0.65145  0.66550  0.45036  Biso   1.000  C
  C133     1.0000 0.69555  0.58550  0.34745  Biso   1.000  C
  C134     1.0000 0.75412  0.50290  0.32788  Biso   1.000  C
  C135     1.0000 0.74445  0.46490  0.29003  Biso   1.000  C
  C136     1.0000 0.67584  0.51100  0.27046  Biso   1.000  C
  C137     1.0000 0.61651  0.59170  0.29039  Biso   1.000  C
  C138     1.0000 0.62594  0.62840  0.32815  Biso   1.000  C
  C139     1.0000 0.66476  0.47410  0.22989  Biso   1.000  C
  C140     1.0000 0.68990  0.33230  0.21413  Biso   1.000  C
  C141     1.0000 0.67610  0.29870  0.17634  Biso   1.000  C
  C142     1.0000 0.63667  0.40730  0.15344  Biso   1.000  C
  C143     1.0000 0.61323  0.55080  0.16852  Biso   1.000  C
  C144     1.0000 0.62724  0.58360  0.20638  Biso   1.000  C
  C145     1.0000 0.87049  0.77000  0.45431  Biso   1.000  C
  C146     1.0000 0.58320  0.64940  0.47718  Biso   1.000  C
  C147     1.0000 0.61372  0.36070  0.11383  Biso   1.000  C
  H67      1.0000 0.73300  0.73700  0.48890  Biso   1.000  H
  H68      1.0000 0.82580  0.68810  0.38560  Biso   1.000  H
  H69      1.0000 0.59110  0.59930  0.40480  Biso   1.000  H
  H70      1.0000 0.80420  0.46180  0.34040  Biso   1.000  H
  H71      1.0000 0.78800  0.41660  0.27650  Biso   1.000  H
  H72      1.0000 0.56840  0.62440  0.27890  Biso   1.000  H
  H73      1.0000 0.58450  0.67670  0.34300  Biso   1.000  H
  H74      1.0000 0.71500  0.25180  0.22880  Biso   1.000  H
  H75      1.0000 0.69030  0.19830  0.16680  Biso   1.000  H
  H76      1.0000 0.59050  0.62500  0.15480  Biso   1.000  H
  H77      1.0000 0.61190  0.68010  0.21690  Biso   1.000  H
  Zn8      1.0000 0.02197  0.11268  0.94979  Biso   1.000  Zn
  O43      1.0000 0.98309  0.89760  0.96473  Biso   1.000  O
  O44      1.0000 0.90494  0.81330  0.01118  Biso   1.000  O
  O45      1.0000 0.57012  0.73140  0.93130  Biso   1.000  O
  O46      1.0000 0.92178  0.03130  0.59456  Biso   1.000  O
  O47      1.0000 0.62499  0.68300  0.98703  Biso   1.000  O
  O48      1.0000 0.87383  0.27250  0.60239  Biso   1.000  O
  C148     1.0000 0.77374  0.78810  0.96352  Biso   1.000  C
  C149     1.0000 0.70866  0.78390  0.93921  Biso   1.000  C
  C150     1.0000 0.71900  0.82640  0.90157  Biso   1.000  C
  C151     1.0000 0.79389  0.87070  0.88782  Biso   1.000  C
  C152     1.0000 0.85841  0.87320  0.91243  Biso   1.000  C
  C153     1.0000 0.84855  0.83450  0.95036  Biso   1.000  C
  C154     1.0000 0.80445  0.91450  0.84745  Biso   1.000  C
  C155     1.0000 0.74588  0.99710  0.82788  Biso   1.000  C
  C156     1.0000 0.75555  0.03510  0.79003  Biso   1.000  C
  C157     1.0000 0.82416  0.98900  0.77046  Biso   1.000  C
  C158     1.0000 0.88349  0.90830  0.79039  Biso   1.000  C
  C159     1.0000 0.87406  0.87160  0.82815  Biso   1.000  C
  C160     1.0000 0.83524  0.02590  0.72989  Biso   1.000  C
  C161     1.0000 0.81010  0.16770  0.71413  Biso   1.000  C
  C162     1.0000 0.82390  0.20130  0.67634  Biso   1.000  C
  C163     1.0000 0.86333  0.09270  0.65344  Biso   1.000  C
  C164     1.0000 0.88677  0.94920  0.66852  Biso   1.000  C
  C165     1.0000 0.87276  0.91640  0.70638  Biso   1.000  C
  C166     1.0000 0.62951  0.73000  0.95431  Biso   1.000  C
  C167     1.0000 0.91680  0.85060  0.97718  Biso   1.000  C
  C168     1.0000 0.88628  0.13930  0.61383  Biso   1.000  C
  H78      1.0000 0.76700  0.76300  0.98890  Biso   1.000  H
  H79      1.0000 0.67420  0.81190  0.88560  Biso   1.000  H
  H80      1.0000 0.90890  0.90070  0.90480  Biso   1.000  H
  H81      1.0000 0.69580  0.03820  0.84040  Biso   1.000  H
  H82      1.0000 0.71200  0.08340  0.77650  Biso   1.000  H
  H83      1.0000 0.93160  0.87560  0.77890  Biso   1.000  H
  H84      1.0000 0.91550  0.82330  0.84300  Biso   1.000  H
  H85      1.0000 0.78500  0.24820  0.72880  Biso   1.000  H
  H86      1.0000 0.80970  0.30170  0.66680  Biso   1.000  H
  H87      1.0000 0.90950  0.87500  0.65480  Biso   1.000  H
  H88      1.0000 0.88810  0.81990  0.71690  Biso   1.000  H
