data_image0
_cell_length_a       8.7383
_cell_length_b       18.1604
_cell_length_c       6.7072
_cell_angle_alpha    90
_cell_angle_beta     90
_cell_angle_gamma    90

_symmetry_space_group_name_H-M    "P 1"
_symmetry_int_tables_number       1

loop_
  _symmetry_equiv_pos_as_xyz
  'x, y, z'

loop_
  _atom_site_label
  _atom_site_occupancy
  _atom_site_fract_x
  _atom_site_fract_y
  _atom_site_fract_z
  _atom_site_thermal_displace_type
  _atom_site_B_iso_or_equiv
  _atom_site_type_symbol
  Dy1      1.0000 0.74415  0.60554  0.40591  Biso   1.000  Dy
  O1       1.0000 0.72150  0.65410  0.73730  Biso   1.000  O
  O2       1.0000 0.85410  0.51034  0.22380  Biso   1.000  O
  O3       1.0000 0.65410  0.50168  0.59360  Biso   1.000  O
  O4       1.0000 0.10311  0.78412  0.40820  Biso   1.000  O
  C1       1.0000 0.98670  0.75330  0.34310  Biso   1.000  C
  H1       1.0000 0.92950  0.77790  0.24720  Biso   1.000  H
  C2       1.0000 0.52890  0.47807  0.64670  Biso   1.000  C
  H2       1.0000 0.44600  0.50170  0.58790  Biso   1.000  H
  C3       1.0000 0.98400  0.49590  0.16250  Biso   1.000  C
  H3       1.0000 0.05530  0.53380  0.17040  Biso   1.000  H
  C4       1.0000 0.73810  0.62219  0.90180  Biso   1.000  C
  H4       1.0000 0.73920  0.57100  0.89960  Biso   1.000  H
  O5       1.0000 0.03020  0.43759  0.09250  Biso   1.000  O
  O6       1.0000 0.49390  0.42954  0.76200  Biso   1.000  O
  O7       1.0000 0.94174  0.69171  0.39780  Biso   1.000  O
  O8       1.0000 0.75300  0.65180  0.06560  Biso   1.000  O
  Dy2      1.0000 0.25585  0.39446  0.90591  Biso   1.000  Dy
  O9       1.0000 0.27850  0.34590  0.23730  Biso   1.000  O
  O10      1.0000 0.14590  0.48966  0.72380  Biso   1.000  O
  O11      1.0000 0.34590  0.49832  0.09360  Biso   1.000  O
  O12      1.0000 0.89689  0.21588  0.90820  Biso   1.000  O
  C5       1.0000 0.01330  0.24670  0.84310  Biso   1.000  C
  H5       1.0000 0.07050  0.22210  0.74720  Biso   1.000  H
  C6       1.0000 0.47110  0.52193  0.14670  Biso   1.000  C
  H6       1.0000 0.55400  0.49830  0.08790  Biso   1.000  H
  C7       1.0000 0.01600  0.50410  0.66250  Biso   1.000  C
  H7       1.0000 0.94470  0.46620  0.67040  Biso   1.000  H
  C8       1.0000 0.26190  0.37781  0.40180  Biso   1.000  C
  H8       1.0000 0.26080  0.42900  0.39960  Biso   1.000  H
  O13      1.0000 0.96980  0.56241  0.59250  Biso   1.000  O
  O14      1.0000 0.50610  0.57046  0.26200  Biso   1.000  O
  O15      1.0000 0.05826  0.30829  0.89780  Biso   1.000  O
  O16      1.0000 0.24700  0.34820  0.56560  Biso   1.000  O
  Dy3      1.0000 0.24415  0.89446  0.40591  Biso   1.000  Dy
  O17      1.0000 0.22150  0.84590  0.73730  Biso   1.000  O
  O18      1.0000 0.35410  0.98966  0.22380  Biso   1.000  O
  O19      1.0000 0.15410  0.99832  0.59360  Biso   1.000  O
  O20      1.0000 0.60311  0.71588  0.40820  Biso   1.000  O
  C9       1.0000 0.48670  0.74670  0.34310  Biso   1.000  C
  H9       1.0000 0.42950  0.72210  0.24720  Biso   1.000  H
  C10      1.0000 0.02890  0.02193  0.64670  Biso   1.000  C
  H10      1.0000 0.94600  0.99830  0.58790  Biso   1.000  H
  C11      1.0000 0.48400  0.00410  0.16250  Biso   1.000  C
  H11      1.0000 0.55530  0.96620  0.17040  Biso   1.000  H
  C12      1.0000 0.23810  0.87781  0.90180  Biso   1.000  C
  H12      1.0000 0.23920  0.92900  0.89960  Biso   1.000  H
  O21      1.0000 0.53020  0.06241  0.09250  Biso   1.000  O
  O22      1.0000 0.99390  0.07046  0.76200  Biso   1.000  O
  O23      1.0000 0.44174  0.80829  0.39780  Biso   1.000  O
  O24      1.0000 0.25300  0.84820  0.06560  Biso   1.000  O
  Dy4      1.0000 0.75585  0.10554  0.90591  Biso   1.000  Dy
  O25      1.0000 0.77850  0.15410  0.23730  Biso   1.000  O
  O26      1.0000 0.64590  0.01034  0.72380  Biso   1.000  O
  O27      1.0000 0.84590  0.00168  0.09360  Biso   1.000  O
  O28      1.0000 0.39689  0.28412  0.90820  Biso   1.000  O
  C13      1.0000 0.51330  0.25330  0.84310  Biso   1.000  C
  H13      1.0000 0.57050  0.27790  0.74720  Biso   1.000  H
  C14      1.0000 0.97110  0.97807  0.14670  Biso   1.000  C
  H14      1.0000 0.05400  0.00170  0.08790  Biso   1.000  H
  C15      1.0000 0.51600  0.99590  0.66250  Biso   1.000  C
  H15      1.0000 0.44470  0.03380  0.67040  Biso   1.000  H
  C16      1.0000 0.76190  0.12219  0.40180  Biso   1.000  C
  H16      1.0000 0.76080  0.07100  0.39960  Biso   1.000  H
  O29      1.0000 0.46980  0.93759  0.59250  Biso   1.000  O
  O30      1.0000 0.00610  0.92954  0.26200  Biso   1.000  O
  O31      1.0000 0.55826  0.19171  0.89780  Biso   1.000  O
  O32      1.0000 0.74700  0.15180  0.56560  Biso   1.000  O
