data_image0
_cell_length_a       16.7186
_cell_length_b       16.7186
_cell_length_c       16.7186
_cell_angle_alpha    109.471
_cell_angle_beta     109.471
_cell_angle_gamma    109.471

_symmetry_space_group_name_H-M    P 1
_symmetry_int_tables_number       1

loop_
  _symmetry_equiv_pos_as_xyz
  'x, y, z'

loop_
  _atom_site_label
  _atom_site_occupancy
  _atom_site_fract_x
  _atom_site_fract_y
  _atom_site_fract_z
  _atom_site_thermal_displace_type
  _atom_site_B_iso_or_equiv
  _atom_site_type_symbol
  Be1      1.0000 0.62500  0.37500  0.25000  Biso   1.000  Be
  Be2      1.0000 0.87500  0.12500  0.75000  Biso   1.000  Be
  Be3      1.0000 0.25000  0.87500  0.62500  Biso   1.000  Be
  Be4      1.0000 0.75000  0.62500  0.87500  Biso   1.000  Be
  Be5      1.0000 0.37500  0.75000  0.12500  Biso   1.000  Be
  Be6      1.0000 0.12500  0.25000  0.37500  Biso   1.000  Be
  H1       1.0000 0.66220  0.51350  0.01710  Biso   1.000  H
  H2       1.0000 0.99640  0.64510  0.48290  Biso   1.000  H
  H3       1.0000 0.50360  0.98650  0.64870  Biso   1.000  H
  H4       1.0000 0.83780  0.85490  0.85130  Biso   1.000  H
  H5       1.0000 0.14870  0.50360  0.48650  Biso   1.000  H
  H6       1.0000 0.35130  0.83780  0.35490  Biso   1.000  H
  H7       1.0000 0.51710  0.66220  0.01350  Biso   1.000  H
  H8       1.0000 0.98290  0.99640  0.14510  Biso   1.000  H
  H9       1.0000 0.64510  0.98290  0.49640  Biso   1.000  H
  H10      1.0000 0.51350  0.51710  0.16220  Biso   1.000  H
  H11      1.0000 0.85490  0.35130  0.33780  Biso   1.000  H
  H12      1.0000 0.98650  0.14870  0.00360  Biso   1.000  H
  H13      1.0000 0.14510  0.49640  0.98290  Biso   1.000  H
  H14      1.0000 0.01350  0.16220  0.51710  Biso   1.000  H
  H15      1.0000 0.35490  0.33780  0.35130  Biso   1.000  H
  H16      1.0000 0.48650  0.00360  0.14870  Biso   1.000  H
  H17      1.0000 0.16220  0.01710  0.51350  Biso   1.000  H
  H18      1.0000 0.49640  0.48290  0.64510  Biso   1.000  H
  H19      1.0000 0.00360  0.64870  0.98650  Biso   1.000  H
  H20      1.0000 0.33780  0.85130  0.85490  Biso   1.000  H
  H21      1.0000 0.64870  0.48650  0.50360  Biso   1.000  H
  H22      1.0000 0.85130  0.35490  0.83780  Biso   1.000  H
  H23      1.0000 0.01710  0.01350  0.66220  Biso   1.000  H
  H24      1.0000 0.48290  0.14510  0.99640  Biso   1.000  H
  C1       1.0000 0.62319  0.53418  0.03629  Biso   1.000  C
  C2       1.0000 0.59299  0.50583  0.09542  Biso   1.000  C
  C3       1.0000 0.62700  0.44490  0.13170  Biso   1.000  C
  C4       1.0000 0.99789  0.58690  0.46371  Biso   1.000  C
  C5       1.0000 0.91041  0.49757  0.40458  Biso   1.000  C
  C6       1.0000 0.81320  0.49530  0.36830  Biso   1.000  C
  C7       1.0000 0.50211  0.96582  0.58901  Biso   1.000  C
  C8       1.0000 0.58959  0.99417  0.58716  Biso   1.000  C
  C9       1.0000 0.68680  0.05510  0.68210  Biso   1.000  C
  C10      1.0000 0.87681  0.91310  0.91099  Biso   1.000  C
  C11      1.0000 0.90701  0.00243  0.91284  Biso   1.000  C
  C12      1.0000 0.87300  0.00470  0.81790  Biso   1.000  C
  C13      1.0000 0.08901  0.50211  0.46582  Biso   1.000  C
  C14      1.0000 0.08716  0.58959  0.49417  Biso   1.000  C
  C15      1.0000 0.18210  0.68680  0.55510  Biso   1.000  C
  C16      1.0000 0.41099  0.87681  0.41310  Biso   1.000  C
  C17      1.0000 0.41284  0.90701  0.50243  Biso   1.000  C
  C18      1.0000 0.31790  0.87300  0.50470  Biso   1.000  C
  C19      1.0000 0.53629  0.62319  0.03418  Biso   1.000  C
  C20      1.0000 0.59542  0.59299  0.00583  Biso   1.000  C
  C21      1.0000 0.63170  0.62700  0.94490  Biso   1.000  C
  C22      1.0000 0.96371  0.99789  0.08690  Biso   1.000  C
  C23      1.0000 0.90458  0.91041  0.99757  Biso   1.000  C
  C24      1.0000 0.86830  0.81320  0.99530  Biso   1.000  C
  C25      1.0000 0.58690  0.96371  0.49789  Biso   1.000  C
  C26      1.0000 0.49757  0.90458  0.41041  Biso   1.000  C
  C27      1.0000 0.49530  0.86830  0.31320  Biso   1.000  C
  C28      1.0000 0.53418  0.53629  0.12319  Biso   1.000  C
  C29      1.0000 0.50583  0.59542  0.09299  Biso   1.000  C
  C30      1.0000 0.44490  0.63170  0.12700  Biso   1.000  C
  C31      1.0000 0.91310  0.41099  0.37681  Biso   1.000  C
  C32      1.0000 0.00243  0.41284  0.40701  Biso   1.000  C
  C33      1.0000 0.00470  0.31790  0.37300  Biso   1.000  C
  C34      1.0000 0.96582  0.08901  0.00211  Biso   1.000  C
  C35      1.0000 0.99417  0.08716  0.08959  Biso   1.000  C
  C36      1.0000 0.05510  0.18210  0.18680  Biso   1.000  C
  C37      1.0000 0.08690  0.49789  0.96371  Biso   1.000  C
  C38      1.0000 0.99757  0.41041  0.90458  Biso   1.000  C
  C39      1.0000 0.99530  0.31320  0.86830  Biso   1.000  C
  C40      1.0000 0.03418  0.12319  0.53629  Biso   1.000  C
  C41      1.0000 0.00583  0.09299  0.59542  Biso   1.000  C
  C42      1.0000 0.94490  0.12700  0.63170  Biso   1.000  C
  C43      1.0000 0.41310  0.37681  0.41099  Biso   1.000  C
  C44      1.0000 0.50243  0.40701  0.41284  Biso   1.000  C
  C45      1.0000 0.50470  0.37300  0.31790  Biso   1.000  C
  C46      1.0000 0.46582  0.00211  0.08901  Biso   1.000  C
  C47      1.0000 0.49417  0.08959  0.08716  Biso   1.000  C
  C48      1.0000 0.55510  0.18680  0.18210  Biso   1.000  C
  C49      1.0000 0.12319  0.03629  0.53418  Biso   1.000  C
  C50      1.0000 0.09299  0.09542  0.50583  Biso   1.000  C
  C51      1.0000 0.12700  0.13170  0.44490  Biso   1.000  C
  C52      1.0000 0.49789  0.46371  0.58690  Biso   1.000  C
  C53      1.0000 0.41041  0.40458  0.49757  Biso   1.000  C
  C54      1.0000 0.31320  0.36830  0.49530  Biso   1.000  C
  C55      1.0000 0.00211  0.58901  0.96582  Biso   1.000  C
  C56      1.0000 0.08959  0.58716  0.99417  Biso   1.000  C
  C57      1.0000 0.18680  0.68210  0.05510  Biso   1.000  C
  C58      1.0000 0.37681  0.91099  0.91310  Biso   1.000  C
  C59      1.0000 0.40701  0.91284  0.00243  Biso   1.000  C
  C60      1.0000 0.37300  0.81790  0.00470  Biso   1.000  C
  C61      1.0000 0.58901  0.46582  0.50211  Biso   1.000  C
  C62      1.0000 0.58716  0.49417  0.58959  Biso   1.000  C
  C63      1.0000 0.68210  0.55510  0.68680  Biso   1.000  C
  C64      1.0000 0.91099  0.41310  0.87681  Biso   1.000  C
  C65      1.0000 0.91284  0.50243  0.90701  Biso   1.000  C
  C66      1.0000 0.81790  0.50470  0.87300  Biso   1.000  C
  C67      1.0000 0.03629  0.03418  0.62319  Biso   1.000  C
  C68      1.0000 0.09542  0.00583  0.59299  Biso   1.000  C
  C69      1.0000 0.13170  0.94490  0.62700  Biso   1.000  C
  C70      1.0000 0.46371  0.08690  0.99789  Biso   1.000  C
  C71      1.0000 0.40458  0.99757  0.91041  Biso   1.000  C
  C72      1.0000 0.36830  0.99530  0.81320  Biso   1.000  C
  O1       1.0000 0.60125  0.43072  0.19045  Biso   1.000  O
  O2       1.0000 0.67120  0.41090  0.09810  Biso   1.000  O
  O3       1.0000 0.74027  0.41080  0.30955  Biso   1.000  O
  O4       1.0000 0.81280  0.57310  0.40190  Biso   1.000  O
  O5       1.0000 0.75973  0.06928  0.67053  Biso   1.000  O
  O6       1.0000 0.68720  0.08910  0.76030  Biso   1.000  O
  O7       1.0000 0.89875  0.08920  0.82947  Biso   1.000  O
  O8       1.0000 0.82880  0.92690  0.73970  Biso   1.000  O
  O9       1.0000 0.17053  0.75973  0.56928  Biso   1.000  O
  O10      1.0000 0.26030  0.68720  0.58910  Biso   1.000  O
  O11      1.0000 0.32947  0.89875  0.58920  Biso   1.000  O
  O12      1.0000 0.23970  0.82880  0.42690  Biso   1.000  O
  O13      1.0000 0.69045  0.60125  0.93072  Biso   1.000  O
  O14      1.0000 0.59810  0.67120  0.91090  Biso   1.000  O
  O15      1.0000 0.80955  0.74027  0.91080  Biso   1.000  O
  O16      1.0000 0.90190  0.81280  0.07310  Biso   1.000  O
  O17      1.0000 0.41080  0.80955  0.24027  Biso   1.000  O
  O18      1.0000 0.57310  0.90190  0.31280  Biso   1.000  O
  O19      1.0000 0.43072  0.69045  0.10125  Biso   1.000  O
  O20      1.0000 0.41090  0.59810  0.17120  Biso   1.000  O
  O21      1.0000 0.08920  0.32947  0.39875  Biso   1.000  O
  O22      1.0000 0.92690  0.23970  0.32880  Biso   1.000  O
  O23      1.0000 0.06928  0.17053  0.25973  Biso   1.000  O
  O24      1.0000 0.08910  0.26030  0.18720  Biso   1.000  O
  O25      1.0000 0.91080  0.24027  0.80955  Biso   1.000  O
  O26      1.0000 0.07310  0.31280  0.90190  Biso   1.000  O
  O27      1.0000 0.93072  0.10125  0.69045  Biso   1.000  O
  O28      1.0000 0.91090  0.17120  0.59810  Biso   1.000  O
  O29      1.0000 0.58920  0.39875  0.32947  Biso   1.000  O
  O30      1.0000 0.42690  0.32880  0.23970  Biso   1.000  O
  O31      1.0000 0.56928  0.25973  0.17053  Biso   1.000  O
  O32      1.0000 0.58910  0.18720  0.26030  Biso   1.000  O
  O33      1.0000 0.10125  0.19045  0.43072  Biso   1.000  O
  O34      1.0000 0.17120  0.09810  0.41090  Biso   1.000  O
  O35      1.0000 0.24027  0.30955  0.41080  Biso   1.000  O
  O36      1.0000 0.31280  0.40190  0.57310  Biso   1.000  O
  O37      1.0000 0.25973  0.67053  0.06928  Biso   1.000  O
  O38      1.0000 0.18720  0.76030  0.08910  Biso   1.000  O
  O39      1.0000 0.39875  0.82947  0.08920  Biso   1.000  O
  O40      1.0000 0.32880  0.73970  0.92690  Biso   1.000  O
  O41      1.0000 0.67053  0.56928  0.75973  Biso   1.000  O
  O42      1.0000 0.76030  0.58910  0.68720  Biso   1.000  O
  O43      1.0000 0.82947  0.58920  0.89875  Biso   1.000  O
  O44      1.0000 0.73970  0.42690  0.82880  Biso   1.000  O
  O45      1.0000 0.19045  0.93072  0.60125  Biso   1.000  O
  O46      1.0000 0.09810  0.91090  0.67120  Biso   1.000  O
  O47      1.0000 0.30955  0.91080  0.74027  Biso   1.000  O
  O48      1.0000 0.40190  0.07310  0.81280  Biso   1.000  O
