data_image0
_cell_length_a       19.807
_cell_length_b       27.714
_cell_length_c       27.847
_cell_angle_alpha    90
_cell_angle_beta     90
_cell_angle_gamma    90

_symmetry_space_group_name_H-M    P 1
_symmetry_int_tables_number       1

loop_
  _symmetry_equiv_pos_as_xyz
  'x, y, z'

loop_
  _atom_site_label
  _atom_site_occupancy
  _atom_site_fract_x
  _atom_site_fract_y
  _atom_site_fract_z
  _atom_site_thermal_displace_type
  _atom_site_B_iso_or_equiv
  _atom_site_type_symbol
  Zn1      1.0000 0.31144  0.94237  0.61801  Biso   1.000  Zn
  Zn2      1.0000 0.18856  0.55763  0.11801  Biso   1.000  Zn
  Zn3      1.0000 0.31144  0.05763  0.61801  Biso   1.000  Zn
  Zn4      1.0000 0.18856  0.44237  0.11801  Biso   1.000  Zn
  Zn5      1.0000 0.19959  0.00000  0.56206  Biso   1.000  Zn
  Zn6      1.0000 0.19876  0.00000  0.67577  Biso   1.000  Zn
  Zn7      1.0000 0.30041  0.50000  0.06206  Biso   1.000  Zn
  Zn8      1.0000 0.30124  0.50000  0.17577  Biso   1.000  Zn
  H1       1.0000 0.35810  0.85150  0.49900  Biso   1.000  H
  H2       1.0000 0.36370  0.79560  0.43650  Biso   1.000  H
  H3       1.0000 0.19470  0.84760  0.38310  Biso   1.000  H
  H4       1.0000 0.18830  0.90610  0.44370  Biso   1.000  H
  H5       1.0000 0.18990  0.73590  0.26830  Biso   1.000  H
  H6       1.0000 0.17730  0.67120  0.21540  Biso   1.000  H
  H7       1.0000 0.33730  0.60860  0.27220  Biso   1.000  H
  H8       1.0000 0.34760  0.67250  0.32610  Biso   1.000  H
  H9       1.0000 0.64200  0.07340  0.62180  Biso   1.000  H
  H10      1.0000 0.52460  0.07230  0.62210  Biso   1.000  H
  H11      1.0000 0.14190  0.64850  0.99900  Biso   1.000  H
  H12      1.0000 0.13630  0.70440  0.93650  Biso   1.000  H
  H13      1.0000 0.30530  0.65240  0.88310  Biso   1.000  H
  H14      1.0000 0.31170  0.59390  0.94370  Biso   1.000  H
  H15      1.0000 0.31010  0.76410  0.76830  Biso   1.000  H
  H16      1.0000 0.32270  0.82880  0.71540  Biso   1.000  H
  H17      1.0000 0.16270  0.89140  0.77220  Biso   1.000  H
  H18      1.0000 0.15240  0.82750  0.82610  Biso   1.000  H
  H19      1.0000 0.85800  0.42660  0.12180  Biso   1.000  H
  H20      1.0000 0.97540  0.42770  0.12210  Biso   1.000  H
  H21      1.0000 0.35810  0.14850  0.49900  Biso   1.000  H
  H22      1.0000 0.36370  0.20440  0.43650  Biso   1.000  H
  H23      1.0000 0.19470  0.15240  0.38310  Biso   1.000  H
  H24      1.0000 0.18830  0.09390  0.44370  Biso   1.000  H
  H25      1.0000 0.18990  0.26410  0.26830  Biso   1.000  H
  H26      1.0000 0.17730  0.32880  0.21540  Biso   1.000  H
  H27      1.0000 0.33730  0.39140  0.27220  Biso   1.000  H
  H28      1.0000 0.34760  0.32750  0.32610  Biso   1.000  H
  H29      1.0000 0.64200  0.92660  0.62180  Biso   1.000  H
  H30      1.0000 0.52460  0.92770  0.62210  Biso   1.000  H
  H31      1.0000 0.14190  0.35150  0.99900  Biso   1.000  H
  H32      1.0000 0.13630  0.29560  0.93650  Biso   1.000  H
  H33      1.0000 0.30530  0.34760  0.88310  Biso   1.000  H
  H34      1.0000 0.31170  0.40610  0.94370  Biso   1.000  H
  H35      1.0000 0.31010  0.23590  0.76830  Biso   1.000  H
  H36      1.0000 0.32270  0.17120  0.71540  Biso   1.000  H
  H37      1.0000 0.16270  0.10860  0.77220  Biso   1.000  H
  H38      1.0000 0.15240  0.17250  0.82610  Biso   1.000  H
  H39      1.0000 0.85800  0.57340  0.12180  Biso   1.000  H
  H40      1.0000 0.97540  0.57230  0.12210  Biso   1.000  H
  H41      1.0000 0.99160  0.00000  0.68350  Biso   1.000  H
  H42      1.0000 0.87360  0.00000  0.68760  Biso   1.000  H
  H43      1.0000 0.86840  0.00000  0.54340  Biso   1.000  H
  H44      1.0000 0.98500  0.00000  0.54140  Biso   1.000  H
  H45      1.0000 0.50840  0.50000  0.18350  Biso   1.000  H
  H46      1.0000 0.62640  0.50000  0.18760  Biso   1.000  H
  H47      1.0000 0.63160  0.50000  0.04340  Biso   1.000  H
  H48      1.0000 0.51500  0.50000  0.04140  Biso   1.000  H
  C1       1.0000 0.26600  0.91730  0.52060  Biso   1.000  C
  C2       1.0000 0.27090  0.88230  0.47980  Biso   1.000  C
  C3       1.0000 0.32300  0.85080  0.47580  Biso   1.000  C
  C4       1.0000 0.32630  0.81700  0.43820  Biso   1.000  C
  C5       1.0000 0.27630  0.81450  0.40360  Biso   1.000  C
  C6       1.0000 0.22870  0.84750  0.40720  Biso   1.000  C
  C7       1.0000 0.22350  0.88280  0.44390  Biso   1.000  C
  C8       1.0000 0.27640  0.77960  0.36900  Biso   1.000  C
  C9       1.0000 0.27540  0.74910  0.33880  Biso   1.000  C
  C10      1.0000 0.27000  0.71170  0.30200  Biso   1.000  C
  C11      1.0000 0.22150  0.71020  0.26950  Biso   1.000  C
  C12      1.0000 0.21460  0.67220  0.23680  Biso   1.000  C
  C13      1.0000 0.26020  0.63800  0.23600  Biso   1.000  C
  C14      1.0000 0.30780  0.63560  0.27020  Biso   1.000  C
  C15      1.0000 0.31280  0.67340  0.30260  Biso   1.000  C
  C16      1.0000 0.25420  0.59350  0.20420  Biso   1.000  C
  C17      1.0000 0.61830  0.04360  0.62180  Biso   1.000  C
  C18      1.0000 0.54870  0.04270  0.62280  Biso   1.000  C
  C19      1.0000 0.23400  0.58270  0.02060  Biso   1.000  C
  C20      1.0000 0.22910  0.61770  0.97980  Biso   1.000  C
  C21      1.0000 0.17700  0.64920  0.97580  Biso   1.000  C
  C22      1.0000 0.17370  0.68300  0.93820  Biso   1.000  C
  C23      1.0000 0.22370  0.68550  0.90360  Biso   1.000  C
  C24      1.0000 0.27130  0.65250  0.90720  Biso   1.000  C
  C25      1.0000 0.27650  0.61720  0.94390  Biso   1.000  C
  C26      1.0000 0.22360  0.72040  0.86900  Biso   1.000  C
  C27      1.0000 0.22460  0.75090  0.83880  Biso   1.000  C
  C28      1.0000 0.23000  0.78830  0.80200  Biso   1.000  C
  C29      1.0000 0.27850  0.78980  0.76950  Biso   1.000  C
  C30      1.0000 0.28540  0.82780  0.73680  Biso   1.000  C
  C31      1.0000 0.23980  0.86200  0.73600  Biso   1.000  C
  C32      1.0000 0.19220  0.86440  0.77020  Biso   1.000  C
  C33      1.0000 0.18720  0.82660  0.80260  Biso   1.000  C
  C34      1.0000 0.24580  0.90650  0.70420  Biso   1.000  C
  C35      1.0000 0.88170  0.45640  0.12180  Biso   1.000  C
  C36      1.0000 0.95130  0.45730  0.12280  Biso   1.000  C
  C37      1.0000 0.26600  0.08270  0.52060  Biso   1.000  C
  C38      1.0000 0.27090  0.11770  0.47980  Biso   1.000  C
  C39      1.0000 0.32300  0.14920  0.47580  Biso   1.000  C
  C40      1.0000 0.32630  0.18300  0.43820  Biso   1.000  C
  C41      1.0000 0.27630  0.18550  0.40360  Biso   1.000  C
  C42      1.0000 0.22870  0.15250  0.40720  Biso   1.000  C
  C43      1.0000 0.22350  0.11720  0.44390  Biso   1.000  C
  C44      1.0000 0.27640  0.22040  0.36900  Biso   1.000  C
  C45      1.0000 0.27540  0.25090  0.33880  Biso   1.000  C
  C46      1.0000 0.27000  0.28830  0.30200  Biso   1.000  C
  C47      1.0000 0.22150  0.28980  0.26950  Biso   1.000  C
  C48      1.0000 0.21460  0.32780  0.23680  Biso   1.000  C
  C49      1.0000 0.26020  0.36200  0.23600  Biso   1.000  C
  C50      1.0000 0.30780  0.36440  0.27020  Biso   1.000  C
  C51      1.0000 0.31280  0.32660  0.30260  Biso   1.000  C
  C52      1.0000 0.25420  0.40650  0.20420  Biso   1.000  C
  C53      1.0000 0.61830  0.95640  0.62180  Biso   1.000  C
  C54      1.0000 0.54870  0.95730  0.62280  Biso   1.000  C
  C55      1.0000 0.23400  0.41730  0.02060  Biso   1.000  C
  C56      1.0000 0.22910  0.38230  0.97980  Biso   1.000  C
  C57      1.0000 0.17700  0.35080  0.97580  Biso   1.000  C
  C58      1.0000 0.17370  0.31700  0.93820  Biso   1.000  C
  C59      1.0000 0.22370  0.31450  0.90360  Biso   1.000  C
  C60      1.0000 0.27130  0.34750  0.90720  Biso   1.000  C
  C61      1.0000 0.27650  0.38280  0.94390  Biso   1.000  C
  C62      1.0000 0.22360  0.27960  0.86900  Biso   1.000  C
  C63      1.0000 0.22460  0.24910  0.83880  Biso   1.000  C
  C64      1.0000 0.23000  0.21170  0.80200  Biso   1.000  C
  C65      1.0000 0.27850  0.21020  0.76950  Biso   1.000  C
  C66      1.0000 0.28540  0.17220  0.73680  Biso   1.000  C
  C67      1.0000 0.23980  0.13800  0.73600  Biso   1.000  C
  C68      1.0000 0.19220  0.13560  0.77020  Biso   1.000  C
  C69      1.0000 0.18720  0.17340  0.80260  Biso   1.000  C
  C70      1.0000 0.24580  0.09350  0.70420  Biso   1.000  C
  C71      1.0000 0.88170  0.54360  0.12180  Biso   1.000  C
  C72      1.0000 0.95130  0.54270  0.12280  Biso   1.000  C
  C73      1.0000 0.07550  0.00000  0.61150  Biso   1.000  C
  C74      1.0000 0.99760  0.00000  0.61120  Biso   1.000  C
  C75      1.0000 0.96570  0.00000  0.65480  Biso   1.000  C
  C76      1.0000 0.89550  0.00000  0.65730  Biso   1.000  C
  C77      1.0000 0.85720  0.00000  0.61490  Biso   1.000  C
  C78      1.0000 0.89260  0.00000  0.57280  Biso   1.000  C
  C79      1.0000 0.96240  0.00000  0.57150  Biso   1.000  C
  C80      1.0000 0.78490  0.00000  0.61560  Biso   1.000  C
  C81      1.0000 0.72530  0.00000  0.61840  Biso   1.000  C
  C82      1.0000 0.65300  0.00000  0.62080  Biso   1.000  C
  C83      1.0000 0.51300  0.00000  0.62480  Biso   1.000  C
  C84      1.0000 0.43540  0.00000  0.62360  Biso   1.000  C
  C85      1.0000 0.42450  0.50000  0.11150  Biso   1.000  C
  C86      1.0000 0.50240  0.50000  0.11120  Biso   1.000  C
  C87      1.0000 0.53430  0.50000  0.15480  Biso   1.000  C
  C88      1.0000 0.60450  0.50000  0.15730  Biso   1.000  C
  C89      1.0000 0.64280  0.50000  0.11490  Biso   1.000  C
  C90      1.0000 0.60740  0.50000  0.07280  Biso   1.000  C
  C91      1.0000 0.53760  0.50000  0.07150  Biso   1.000  C
  C92      1.0000 0.71510  0.50000  0.11560  Biso   1.000  C
  C93      1.0000 0.77470  0.50000  0.11840  Biso   1.000  C
  C94      1.0000 0.84700  0.50000  0.12080  Biso   1.000  C
  C95      1.0000 0.98700  0.50000  0.12480  Biso   1.000  C
  C96      1.0000 0.06460  0.50000  0.12360  Biso   1.000  C
  O1       1.0000 0.31011  0.91543  0.55187  Biso   1.000  O
  O2       1.0000 0.21760  0.94576  0.51900  Biso   1.000  O
  O3       1.0000 0.20520  0.59990  0.17050  Biso   1.000  O
  O4       1.0000 0.29660  0.56180  0.20410  Biso   1.000  O
  O5       1.0000 0.40759  0.04037  0.62312  Biso   1.000  O
  O6       1.0000 0.18989  0.58457  0.05187  Biso   1.000  O
  O7       1.0000 0.28240  0.55424  0.01900  Biso   1.000  O
  O8       1.0000 0.29480  0.90010  0.67050  Biso   1.000  O
  O9       1.0000 0.20340  0.93820  0.70410  Biso   1.000  O
  O10      1.0000 0.09241  0.45963  0.12312  Biso   1.000  O
  O11      1.0000 0.31011  0.08457  0.55187  Biso   1.000  O
  O12      1.0000 0.21760  0.05424  0.51900  Biso   1.000  O
  O13      1.0000 0.20520  0.40010  0.17050  Biso   1.000  O
  O14      1.0000 0.29660  0.43820  0.20410  Biso   1.000  O
  O15      1.0000 0.40759  0.95963  0.62312  Biso   1.000  O
  O16      1.0000 0.18989  0.41543  0.05187  Biso   1.000  O
  O17      1.0000 0.28240  0.44576  0.01900  Biso   1.000  O
  O18      1.0000 0.29480  0.09990  0.67050  Biso   1.000  O
  O19      1.0000 0.20340  0.06180  0.70410  Biso   1.000  O
  O20      1.0000 0.09241  0.54037  0.12312  Biso   1.000  O
  O21      1.0000 0.25593  0.00000  0.61830  Biso   1.000  O
  O22      1.0000 0.10410  0.00000  0.65226  Biso   1.000  O
  O23      1.0000 0.10220  0.00000  0.57093  Biso   1.000  O
  O24      1.0000 0.24407  0.50000  0.11830  Biso   1.000  O
  O25      1.0000 0.39590  0.50000  0.15226  Biso   1.000  O
  O26      1.0000 0.39780  0.50000  0.07093  Biso   1.000  O
  Zn9      1.0000 0.68856  0.94237  0.38199  Biso   1.000  Zn
  Zn10     1.0000 0.81144  0.55763  0.88199  Biso   1.000  Zn
  Zn11     1.0000 0.68856  0.05763  0.38199  Biso   1.000  Zn
  Zn12     1.0000 0.81144  0.44237  0.88199  Biso   1.000  Zn
  Zn13     1.0000 0.80041  0.00000  0.43794  Biso   1.000  Zn
  Zn14     1.0000 0.80124  0.00000  0.32423  Biso   1.000  Zn
  Zn15     1.0000 0.69959  0.50000  0.93794  Biso   1.000  Zn
  Zn16     1.0000 0.69876  0.50000  0.82423  Biso   1.000  Zn
  H49      1.0000 0.64190  0.85150  0.50100  Biso   1.000  H
  H50      1.0000 0.63630  0.79560  0.56350  Biso   1.000  H
  H51      1.0000 0.80530  0.84760  0.61690  Biso   1.000  H
  H52      1.0000 0.81170  0.90610  0.55630  Biso   1.000  H
  H53      1.0000 0.81010  0.73590  0.73170  Biso   1.000  H
  H54      1.0000 0.82270  0.67120  0.78460  Biso   1.000  H
  H55      1.0000 0.66270  0.60860  0.72780  Biso   1.000  H
  H56      1.0000 0.65240  0.67250  0.67390  Biso   1.000  H
  H57      1.0000 0.35800  0.07340  0.37820  Biso   1.000  H
  H58      1.0000 0.47540  0.07230  0.37790  Biso   1.000  H
  H59      1.0000 0.85810  0.64850  0.00100  Biso   1.000  H
  H60      1.0000 0.86370  0.70440  0.06350  Biso   1.000  H
  H61      1.0000 0.69470  0.65240  0.11690  Biso   1.000  H
  H62      1.0000 0.68830  0.59390  0.05630  Biso   1.000  H
  H63      1.0000 0.68990  0.76410  0.23170  Biso   1.000  H
  H64      1.0000 0.67730  0.82880  0.28460  Biso   1.000  H
  H65      1.0000 0.83730  0.89140  0.22780  Biso   1.000  H
  H66      1.0000 0.84760  0.82750  0.17390  Biso   1.000  H
  H67      1.0000 0.14200  0.42660  0.87820  Biso   1.000  H
  H68      1.0000 0.02460  0.42770  0.87790  Biso   1.000  H
  H69      1.0000 0.64190  0.14850  0.50100  Biso   1.000  H
  H70      1.0000 0.63630  0.20440  0.56350  Biso   1.000  H
  H71      1.0000 0.80530  0.15240  0.61690  Biso   1.000  H
  H72      1.0000 0.81170  0.09390  0.55630  Biso   1.000  H
  H73      1.0000 0.81010  0.26410  0.73170  Biso   1.000  H
  H74      1.0000 0.82270  0.32880  0.78460  Biso   1.000  H
  H75      1.0000 0.66270  0.39140  0.72780  Biso   1.000  H
  H76      1.0000 0.65240  0.32750  0.67390  Biso   1.000  H
  H77      1.0000 0.35800  0.92660  0.37820  Biso   1.000  H
  H78      1.0000 0.47540  0.92770  0.37790  Biso   1.000  H
  H79      1.0000 0.85810  0.35150  0.00100  Biso   1.000  H
  H80      1.0000 0.86370  0.29560  0.06350  Biso   1.000  H
  H81      1.0000 0.69470  0.34760  0.11690  Biso   1.000  H
  H82      1.0000 0.68830  0.40610  0.05630  Biso   1.000  H
  H83      1.0000 0.68990  0.23590  0.23170  Biso   1.000  H
  H84      1.0000 0.67730  0.17120  0.28460  Biso   1.000  H
  H85      1.0000 0.83730  0.10860  0.22780  Biso   1.000  H
  H86      1.0000 0.84760  0.17250  0.17390  Biso   1.000  H
  H87      1.0000 0.14200  0.57340  0.87820  Biso   1.000  H
  H88      1.0000 0.02460  0.57230  0.87790  Biso   1.000  H
  H89      1.0000 0.00840  0.00000  0.31650  Biso   1.000  H
  H90      1.0000 0.12640  0.00000  0.31240  Biso   1.000  H
  H91      1.0000 0.13160  0.00000  0.45660  Biso   1.000  H
  H92      1.0000 0.01500  0.00000  0.45860  Biso   1.000  H
  H93      1.0000 0.49160  0.50000  0.81650  Biso   1.000  H
  H94      1.0000 0.37360  0.50000  0.81240  Biso   1.000  H
  H95      1.0000 0.36840  0.50000  0.95660  Biso   1.000  H
  H96      1.0000 0.48500  0.50000  0.95860  Biso   1.000  H
  C97      1.0000 0.73400  0.91730  0.47940  Biso   1.000  C
  C98      1.0000 0.72910  0.88230  0.52020  Biso   1.000  C
  C99      1.0000 0.67700  0.85080  0.52420  Biso   1.000  C
  C100     1.0000 0.67370  0.81700  0.56180  Biso   1.000  C
  C101     1.0000 0.72370  0.81450  0.59640  Biso   1.000  C
  C102     1.0000 0.77130  0.84750  0.59280  Biso   1.000  C
  C103     1.0000 0.77650  0.88280  0.55610  Biso   1.000  C
  C104     1.0000 0.72360  0.77960  0.63100  Biso   1.000  C
  C105     1.0000 0.72460  0.74910  0.66120  Biso   1.000  C
  C106     1.0000 0.73000  0.71170  0.69800  Biso   1.000  C
  C107     1.0000 0.77850  0.71020  0.73050  Biso   1.000  C
  C108     1.0000 0.78540  0.67220  0.76320  Biso   1.000  C
  C109     1.0000 0.73980  0.63800  0.76400  Biso   1.000  C
  C110     1.0000 0.69220  0.63560  0.72980  Biso   1.000  C
  C111     1.0000 0.68720  0.67340  0.69740  Biso   1.000  C
  C112     1.0000 0.74580  0.59350  0.79580  Biso   1.000  C
  C113     1.0000 0.38170  0.04360  0.37820  Biso   1.000  C
  C114     1.0000 0.45130  0.04270  0.37720  Biso   1.000  C
  C115     1.0000 0.76600  0.58270  0.97940  Biso   1.000  C
  C116     1.0000 0.77090  0.61770  0.02020  Biso   1.000  C
  C117     1.0000 0.82300  0.64920  0.02420  Biso   1.000  C
  C118     1.0000 0.82630  0.68300  0.06180  Biso   1.000  C
  C119     1.0000 0.77630  0.68550  0.09640  Biso   1.000  C
  C120     1.0000 0.72870  0.65250  0.09280  Biso   1.000  C
  C121     1.0000 0.72350  0.61720  0.05610  Biso   1.000  C
  C122     1.0000 0.77640  0.72040  0.13100  Biso   1.000  C
  C123     1.0000 0.77540  0.75090  0.16120  Biso   1.000  C
  C124     1.0000 0.77000  0.78830  0.19800  Biso   1.000  C
  C125     1.0000 0.72150  0.78980  0.23050  Biso   1.000  C
  C126     1.0000 0.71460  0.82780  0.26320  Biso   1.000  C
  C127     1.0000 0.76020  0.86200  0.26400  Biso   1.000  C
  C128     1.0000 0.80780  0.86440  0.22980  Biso   1.000  C
  C129     1.0000 0.81280  0.82660  0.19740  Biso   1.000  C
  C130     1.0000 0.75420  0.90650  0.29580  Biso   1.000  C
  C131     1.0000 0.11830  0.45640  0.87820  Biso   1.000  C
  C132     1.0000 0.04870  0.45730  0.87720  Biso   1.000  C
  C133     1.0000 0.73400  0.08270  0.47940  Biso   1.000  C
  C134     1.0000 0.72910  0.11770  0.52020  Biso   1.000  C
  C135     1.0000 0.67700  0.14920  0.52420  Biso   1.000  C
  C136     1.0000 0.67370  0.18300  0.56180  Biso   1.000  C
  C137     1.0000 0.72370  0.18550  0.59640  Biso   1.000  C
  C138     1.0000 0.77130  0.15250  0.59280  Biso   1.000  C
  C139     1.0000 0.77650  0.11720  0.55610  Biso   1.000  C
  C140     1.0000 0.72360  0.22040  0.63100  Biso   1.000  C
  C141     1.0000 0.72460  0.25090  0.66120  Biso   1.000  C
  C142     1.0000 0.73000  0.28830  0.69800  Biso   1.000  C
  C143     1.0000 0.77850  0.28980  0.73050  Biso   1.000  C
  C144     1.0000 0.78540  0.32780  0.76320  Biso   1.000  C
  C145     1.0000 0.73980  0.36200  0.76400  Biso   1.000  C
  C146     1.0000 0.69220  0.36440  0.72980  Biso   1.000  C
  C147     1.0000 0.68720  0.32660  0.69740  Biso   1.000  C
  C148     1.0000 0.74580  0.40650  0.79580  Biso   1.000  C
  C149     1.0000 0.38170  0.95640  0.37820  Biso   1.000  C
  C150     1.0000 0.45130  0.95730  0.37720  Biso   1.000  C
  C151     1.0000 0.76600  0.41730  0.97940  Biso   1.000  C
  C152     1.0000 0.77090  0.38230  0.02020  Biso   1.000  C
  C153     1.0000 0.82300  0.35080  0.02420  Biso   1.000  C
  C154     1.0000 0.82630  0.31700  0.06180  Biso   1.000  C
  C155     1.0000 0.77630  0.31450  0.09640  Biso   1.000  C
  C156     1.0000 0.72870  0.34750  0.09280  Biso   1.000  C
  C157     1.0000 0.72350  0.38280  0.05610  Biso   1.000  C
  C158     1.0000 0.77640  0.27960  0.13100  Biso   1.000  C
  C159     1.0000 0.77540  0.24910  0.16120  Biso   1.000  C
  C160     1.0000 0.77000  0.21170  0.19800  Biso   1.000  C
  C161     1.0000 0.72150  0.21020  0.23050  Biso   1.000  C
  C162     1.0000 0.71460  0.17220  0.26320  Biso   1.000  C
  C163     1.0000 0.76020  0.13800  0.26400  Biso   1.000  C
  C164     1.0000 0.80780  0.13560  0.22980  Biso   1.000  C
  C165     1.0000 0.81280  0.17340  0.19740  Biso   1.000  C
  C166     1.0000 0.75420  0.09350  0.29580  Biso   1.000  C
  C167     1.0000 0.11830  0.54360  0.87820  Biso   1.000  C
  C168     1.0000 0.04870  0.54270  0.87720  Biso   1.000  C
  C169     1.0000 0.92450  0.00000  0.38850  Biso   1.000  C
  C170     1.0000 0.00240  0.00000  0.38880  Biso   1.000  C
  C171     1.0000 0.03430  0.00000  0.34520  Biso   1.000  C
  C172     1.0000 0.10450  0.00000  0.34270  Biso   1.000  C
  C173     1.0000 0.14280  0.00000  0.38510  Biso   1.000  C
  C174     1.0000 0.10740  0.00000  0.42720  Biso   1.000  C
  C175     1.0000 0.03760  0.00000  0.42850  Biso   1.000  C
  C176     1.0000 0.21510  0.00000  0.38440  Biso   1.000  C
  C177     1.0000 0.27470  0.00000  0.38160  Biso   1.000  C
  C178     1.0000 0.34700  0.00000  0.37920  Biso   1.000  C
  C179     1.0000 0.48700  0.00000  0.37520  Biso   1.000  C
  C180     1.0000 0.56460  0.00000  0.37640  Biso   1.000  C
  C181     1.0000 0.57550  0.50000  0.88850  Biso   1.000  C
  C182     1.0000 0.49760  0.50000  0.88880  Biso   1.000  C
  C183     1.0000 0.46570  0.50000  0.84520  Biso   1.000  C
  C184     1.0000 0.39550  0.50000  0.84270  Biso   1.000  C
  C185     1.0000 0.35720  0.50000  0.88510  Biso   1.000  C
  C186     1.0000 0.39260  0.50000  0.92720  Biso   1.000  C
  C187     1.0000 0.46240  0.50000  0.92850  Biso   1.000  C
  C188     1.0000 0.28490  0.50000  0.88440  Biso   1.000  C
  C189     1.0000 0.22530  0.50000  0.88160  Biso   1.000  C
  C190     1.0000 0.15300  0.50000  0.87920  Biso   1.000  C
  C191     1.0000 0.01300  0.50000  0.87520  Biso   1.000  C
  C192     1.0000 0.93540  0.50000  0.87640  Biso   1.000  C
  O27      1.0000 0.68989  0.91543  0.44813  Biso   1.000  O
  O28      1.0000 0.78240  0.94576  0.48100  Biso   1.000  O
  O29      1.0000 0.79480  0.59990  0.82950  Biso   1.000  O
  O30      1.0000 0.70340  0.56180  0.79590  Biso   1.000  O
  O31      1.0000 0.59241  0.04037  0.37688  Biso   1.000  O
  O32      1.0000 0.81011  0.58457  0.94813  Biso   1.000  O
  O33      1.0000 0.71760  0.55424  0.98100  Biso   1.000  O
  O34      1.0000 0.70520  0.90010  0.32950  Biso   1.000  O
  O35      1.0000 0.79660  0.93820  0.29590  Biso   1.000  O
  O36      1.0000 0.90759  0.45963  0.87688  Biso   1.000  O
  O37      1.0000 0.68989  0.08457  0.44813  Biso   1.000  O
  O38      1.0000 0.78240  0.05424  0.48100  Biso   1.000  O
  O39      1.0000 0.79480  0.40010  0.82950  Biso   1.000  O
  O40      1.0000 0.70340  0.43820  0.79590  Biso   1.000  O
  O41      1.0000 0.59241  0.95963  0.37688  Biso   1.000  O
  O42      1.0000 0.81011  0.41543  0.94813  Biso   1.000  O
  O43      1.0000 0.71760  0.44576  0.98100  Biso   1.000  O
  O44      1.0000 0.70520  0.09990  0.32950  Biso   1.000  O
  O45      1.0000 0.79660  0.06180  0.29590  Biso   1.000  O
  O46      1.0000 0.90759  0.54037  0.87688  Biso   1.000  O
  O47      1.0000 0.74407  0.00000  0.38170  Biso   1.000  O
  O48      1.0000 0.89590  0.00000  0.34774  Biso   1.000  O
  O49      1.0000 0.89780  0.00000  0.42907  Biso   1.000  O
  O50      1.0000 0.75593  0.50000  0.88170  Biso   1.000  O
  O51      1.0000 0.60410  0.50000  0.84774  Biso   1.000  O
  O52      1.0000 0.60220  0.50000  0.92907  Biso   1.000  O
