data_image0
_cell_length_a       15.288
_cell_length_b       15.288
_cell_length_c       15.663
_cell_angle_alpha    90
_cell_angle_beta     90
_cell_angle_gamma    120

_symmetry_space_group_name_H-M    P 1
_symmetry_int_tables_number       1

loop_
  _symmetry_equiv_pos_as_xyz
  'x, y, z'

loop_
  _atom_site_label
  _atom_site_occupancy
  _atom_site_fract_x
  _atom_site_fract_y
  _atom_site_fract_z
  _atom_site_thermal_displace_type
  _atom_site_B_iso_or_equiv
  _atom_site_type_symbol
  Eu1      1.0000 0.66667  0.33334  0.75000  Biso   1.000  Eu
  Eu2      1.0000 0.33333  0.66666  0.75000  Biso   1.000  Eu
  Eu3      1.0000 0.33333  0.66666  0.25000  Biso   1.000  Eu
  Eu4      1.0000 0.66667  0.33334  0.25000  Biso   1.000  Eu
  Mn1      1.0000 0.50000  0.50000  0.00000  Biso   1.000  Mn
  Mn2      1.0000 0.00000  0.50000  0.00000  Biso   1.000  Mn
  Mn3      1.0000 0.50000  0.00000  0.00000  Biso   1.000  Mn
  Mn4      1.0000 0.00000  0.50000  0.50000  Biso   1.000  Mn
  Mn5      1.0000 0.50000  0.50000  0.50000  Biso   1.000  Mn
  Mn6      1.0000 0.50000  0.00000  0.50000  Biso   1.000  Mn
  H1       1.0000 0.28860  0.05610  0.84290  Biso   1.000  H
  H2       1.0000 0.76750  0.71140  0.84290  Biso   1.000  H
  H3       1.0000 0.94390  0.23250  0.84290  Biso   1.000  H
  H4       1.0000 0.71140  0.94390  0.84290  Biso   1.000  H
  H5       1.0000 0.23250  0.28860  0.84290  Biso   1.000  H
  H6       1.0000 0.05610  0.76750  0.84290  Biso   1.000  H
  H7       1.0000 0.23250  0.94390  0.65710  Biso   1.000  H
  H8       1.0000 0.05610  0.28860  0.65710  Biso   1.000  H
  H9       1.0000 0.71140  0.76750  0.65710  Biso   1.000  H
  H10      1.0000 0.76750  0.05610  0.65710  Biso   1.000  H
  H11      1.0000 0.94390  0.71140  0.65710  Biso   1.000  H
  H12      1.0000 0.28860  0.23250  0.65710  Biso   1.000  H
  H13      1.0000 0.71140  0.94390  0.15710  Biso   1.000  H
  H14      1.0000 0.23250  0.28860  0.15710  Biso   1.000  H
  H15      1.0000 0.05610  0.76750  0.15710  Biso   1.000  H
  H16      1.0000 0.28860  0.05610  0.15710  Biso   1.000  H
  H17      1.0000 0.76750  0.71140  0.15710  Biso   1.000  H
  H18      1.0000 0.94390  0.23250  0.15710  Biso   1.000  H
  H19      1.0000 0.76750  0.05610  0.34290  Biso   1.000  H
  H20      1.0000 0.94390  0.71140  0.34290  Biso   1.000  H
  H21      1.0000 0.28860  0.23250  0.34290  Biso   1.000  H
  H22      1.0000 0.23250  0.94390  0.34290  Biso   1.000  H
  H23      1.0000 0.05610  0.28860  0.34290  Biso   1.000  H
  H24      1.0000 0.71140  0.76750  0.34290  Biso   1.000  H
  H25      1.0000 0.20100  0.10050  0.75000  Biso   1.000  H
  H26      1.0000 0.89950  0.79900  0.75000  Biso   1.000  H
  H27      1.0000 0.89950  0.10050  0.75000  Biso   1.000  H
  H28      1.0000 0.79900  0.89950  0.75000  Biso   1.000  H
  H29      1.0000 0.10050  0.20100  0.75000  Biso   1.000  H
  H30      1.0000 0.10050  0.89950  0.75000  Biso   1.000  H
  H31      1.0000 0.79900  0.89950  0.25000  Biso   1.000  H
  H32      1.0000 0.10050  0.20100  0.25000  Biso   1.000  H
  H33      1.0000 0.10050  0.89950  0.25000  Biso   1.000  H
  H34      1.0000 0.20100  0.10050  0.25000  Biso   1.000  H
  H35      1.0000 0.89950  0.79900  0.25000  Biso   1.000  H
  H36      1.0000 0.89950  0.10050  0.25000  Biso   1.000  H
  C1       1.0000 0.42610  0.16230  0.80330  Biso   1.000  C
  C2       1.0000 0.32290  0.10930  0.80490  Biso   1.000  C
  C3       1.0000 0.49050  0.35170  0.64000  Biso   1.000  C
  C4       1.0000 0.73620  0.57390  0.80330  Biso   1.000  C
  C5       1.0000 0.78640  0.67710  0.80490  Biso   1.000  C
  C6       1.0000 0.86120  0.50950  0.64000  Biso   1.000  C
  C7       1.0000 0.83770  0.26380  0.80330  Biso   1.000  C
  C8       1.0000 0.89070  0.21360  0.80490  Biso   1.000  C
  C9       1.0000 0.64830  0.13880  0.64000  Biso   1.000  C
  C10      1.0000 0.57390  0.83770  0.80330  Biso   1.000  C
  C11      1.0000 0.67710  0.89070  0.80490  Biso   1.000  C
  C12      1.0000 0.50950  0.64830  0.64000  Biso   1.000  C
  C13      1.0000 0.26380  0.42610  0.80330  Biso   1.000  C
  C14      1.0000 0.21360  0.32290  0.80490  Biso   1.000  C
  C15      1.0000 0.13880  0.49050  0.64000  Biso   1.000  C
  C16      1.0000 0.16230  0.73620  0.80330  Biso   1.000  C
  C17      1.0000 0.10930  0.78640  0.80490  Biso   1.000  C
  C18      1.0000 0.35170  0.86120  0.64000  Biso   1.000  C
  C19      1.0000 0.26380  0.83770  0.69670  Biso   1.000  C
  C20      1.0000 0.21360  0.89070  0.69510  Biso   1.000  C
  C21      1.0000 0.13880  0.64830  0.86000  Biso   1.000  C
  C22      1.0000 0.16230  0.42610  0.69670  Biso   1.000  C
  C23      1.0000 0.10930  0.32290  0.69510  Biso   1.000  C
  C24      1.0000 0.35170  0.49050  0.86000  Biso   1.000  C
  C25      1.0000 0.57390  0.73620  0.69670  Biso   1.000  C
  C26      1.0000 0.67710  0.78640  0.69510  Biso   1.000  C
  C27      1.0000 0.50950  0.86120  0.86000  Biso   1.000  C
  C28      1.0000 0.73620  0.16230  0.69670  Biso   1.000  C
  C29      1.0000 0.78640  0.10930  0.69510  Biso   1.000  C
  C30      1.0000 0.86120  0.35170  0.86000  Biso   1.000  C
  C31      1.0000 0.83770  0.57390  0.69670  Biso   1.000  C
  C32      1.0000 0.89070  0.67710  0.69510  Biso   1.000  C
  C33      1.0000 0.64830  0.50950  0.86000  Biso   1.000  C
  C34      1.0000 0.42610  0.26380  0.69670  Biso   1.000  C
  C35      1.0000 0.32290  0.21360  0.69510  Biso   1.000  C
  C36      1.0000 0.49050  0.13880  0.86000  Biso   1.000  C
  C37      1.0000 0.57390  0.83770  0.19670  Biso   1.000  C
  C38      1.0000 0.67710  0.89070  0.19510  Biso   1.000  C
  C39      1.0000 0.50950  0.64830  0.36000  Biso   1.000  C
  C40      1.0000 0.26380  0.42610  0.19670  Biso   1.000  C
  C41      1.0000 0.21360  0.32290  0.19510  Biso   1.000  C
  C42      1.0000 0.13880  0.49050  0.36000  Biso   1.000  C
  C43      1.0000 0.16230  0.73620  0.19670  Biso   1.000  C
  C44      1.0000 0.10930  0.78640  0.19510  Biso   1.000  C
  C45      1.0000 0.35170  0.86120  0.36000  Biso   1.000  C
  C46      1.0000 0.42610  0.16230  0.19670  Biso   1.000  C
  C47      1.0000 0.32290  0.10930  0.19510  Biso   1.000  C
  C48      1.0000 0.49050  0.35170  0.36000  Biso   1.000  C
  C49      1.0000 0.73620  0.57390  0.19670  Biso   1.000  C
  C50      1.0000 0.78640  0.67710  0.19510  Biso   1.000  C
  C51      1.0000 0.86120  0.50950  0.36000  Biso   1.000  C
  C52      1.0000 0.83770  0.26380  0.19670  Biso   1.000  C
  C53      1.0000 0.89070  0.21360  0.19510  Biso   1.000  C
  C54      1.0000 0.64830  0.13880  0.36000  Biso   1.000  C
  C55      1.0000 0.73620  0.16230  0.30330  Biso   1.000  C
  C56      1.0000 0.78640  0.10930  0.30490  Biso   1.000  C
  C57      1.0000 0.86120  0.35170  0.14000  Biso   1.000  C
  C58      1.0000 0.83770  0.57390  0.30330  Biso   1.000  C
  C59      1.0000 0.89070  0.67710  0.30490  Biso   1.000  C
  C60      1.0000 0.64830  0.50950  0.14000  Biso   1.000  C
  C61      1.0000 0.42610  0.26380  0.30330  Biso   1.000  C
  C62      1.0000 0.32290  0.21360  0.30490  Biso   1.000  C
  C63      1.0000 0.49050  0.13880  0.14000  Biso   1.000  C
  C64      1.0000 0.26380  0.83770  0.30330  Biso   1.000  C
  C65      1.0000 0.21360  0.89070  0.30490  Biso   1.000  C
  C66      1.0000 0.13880  0.64830  0.14000  Biso   1.000  C
  C67      1.0000 0.16230  0.42610  0.30330  Biso   1.000  C
  C68      1.0000 0.10930  0.32290  0.30490  Biso   1.000  C
  C69      1.0000 0.35170  0.49050  0.14000  Biso   1.000  C
  C70      1.0000 0.57390  0.73620  0.30330  Biso   1.000  C
  C71      1.0000 0.67710  0.78640  0.30490  Biso   1.000  C
  C72      1.0000 0.50950  0.86120  0.14000  Biso   1.000  C
  C73      1.0000 0.27120  0.13560  0.75000  Biso   1.000  C
  C74      1.0000 0.86440  0.72880  0.75000  Biso   1.000  C
  C75      1.0000 0.86440  0.13560  0.75000  Biso   1.000  C
  C76      1.0000 0.72880  0.86440  0.75000  Biso   1.000  C
  C77      1.0000 0.13560  0.27120  0.75000  Biso   1.000  C
  C78      1.0000 0.13560  0.86440  0.75000  Biso   1.000  C
  C79      1.0000 0.72880  0.86440  0.25000  Biso   1.000  C
  C80      1.0000 0.13560  0.27120  0.25000  Biso   1.000  C
  C81      1.0000 0.13560  0.86440  0.25000  Biso   1.000  C
  C82      1.0000 0.27120  0.13560  0.25000  Biso   1.000  C
  C83      1.0000 0.86440  0.72880  0.25000  Biso   1.000  C
  C84      1.0000 0.86440  0.13560  0.25000  Biso   1.000  C
  N1       1.0000 0.47756  0.23878  0.75000  Biso   1.000  N
  N2       1.0000 0.76122  0.52244  0.75000  Biso   1.000  N
  N3       1.0000 0.76122  0.23878  0.75000  Biso   1.000  N
  N4       1.0000 0.52244  0.76122  0.75000  Biso   1.000  N
  N5       1.0000 0.23878  0.47756  0.75000  Biso   1.000  N
  N6       1.0000 0.23878  0.76122  0.75000  Biso   1.000  N
  N7       1.0000 0.52244  0.76122  0.25000  Biso   1.000  N
  N8       1.0000 0.23878  0.47756  0.25000  Biso   1.000  N
  N9       1.0000 0.23878  0.76122  0.25000  Biso   1.000  N
  N10      1.0000 0.47756  0.23878  0.25000  Biso   1.000  N
  N11      1.0000 0.76122  0.52244  0.25000  Biso   1.000  N
  N12      1.0000 0.76122  0.23878  0.25000  Biso   1.000  N
  O1       1.0000 0.58540  0.38660  0.64365  Biso   1.000  O
  O2       1.0000 0.61570  0.55240  0.09380  Biso   1.000  O
  O3       1.0000 0.80120  0.41460  0.64365  Biso   1.000  O
  O4       1.0000 0.93670  0.38430  0.09380  Biso   1.000  O
  O5       1.0000 0.61340  0.19880  0.64365  Biso   1.000  O
  O6       1.0000 0.44760  0.06330  0.09380  Biso   1.000  O
  O7       1.0000 0.41460  0.61340  0.64365  Biso   1.000  O
  O8       1.0000 0.38430  0.44760  0.09380  Biso   1.000  O
  O9       1.0000 0.19880  0.58540  0.64365  Biso   1.000  O
  O10      1.0000 0.06330  0.61570  0.09380  Biso   1.000  O
  O11      1.0000 0.38660  0.80120  0.64365  Biso   1.000  O
  O12      1.0000 0.55240  0.93670  0.09380  Biso   1.000  O
  O13      1.0000 0.19880  0.61340  0.85635  Biso   1.000  O
  O14      1.0000 0.06330  0.44760  0.40620  Biso   1.000  O
  O15      1.0000 0.38660  0.58540  0.85635  Biso   1.000  O
  O16      1.0000 0.55240  0.61570  0.40620  Biso   1.000  O
  O17      1.0000 0.41460  0.80120  0.85635  Biso   1.000  O
  O18      1.0000 0.38430  0.93670  0.40620  Biso   1.000  O
  O19      1.0000 0.80120  0.38660  0.85635  Biso   1.000  O
  O20      1.0000 0.93670  0.55240  0.40620  Biso   1.000  O
  O21      1.0000 0.61340  0.41460  0.85635  Biso   1.000  O
  O22      1.0000 0.44760  0.38430  0.40620  Biso   1.000  O
  O23      1.0000 0.58540  0.19880  0.85635  Biso   1.000  O
  O24      1.0000 0.61570  0.06330  0.40620  Biso   1.000  O
  O25      1.0000 0.41460  0.61340  0.35635  Biso   1.000  O
  O26      1.0000 0.38430  0.44760  0.90620  Biso   1.000  O
  O27      1.0000 0.19880  0.58540  0.35635  Biso   1.000  O
  O28      1.0000 0.06330  0.61570  0.90620  Biso   1.000  O
  O29      1.0000 0.38660  0.80120  0.35635  Biso   1.000  O
  O30      1.0000 0.55240  0.93670  0.90620  Biso   1.000  O
  O31      1.0000 0.58540  0.38660  0.35635  Biso   1.000  O
  O32      1.0000 0.61570  0.55240  0.90620  Biso   1.000  O
  O33      1.0000 0.80120  0.41460  0.35635  Biso   1.000  O
  O34      1.0000 0.93670  0.38430  0.90620  Biso   1.000  O
  O35      1.0000 0.61340  0.19880  0.35635  Biso   1.000  O
  O36      1.0000 0.44760  0.06330  0.90620  Biso   1.000  O
  O37      1.0000 0.80120  0.38660  0.14365  Biso   1.000  O
  O38      1.0000 0.93670  0.55240  0.59380  Biso   1.000  O
  O39      1.0000 0.61340  0.41460  0.14365  Biso   1.000  O
  O40      1.0000 0.44760  0.38430  0.59380  Biso   1.000  O
  O41      1.0000 0.58540  0.19880  0.14365  Biso   1.000  O
  O42      1.0000 0.61570  0.06330  0.59380  Biso   1.000  O
  O43      1.0000 0.19880  0.61340  0.14365  Biso   1.000  O
  O44      1.0000 0.06330  0.44760  0.59380  Biso   1.000  O
  O45      1.0000 0.38660  0.58540  0.14365  Biso   1.000  O
  O46      1.0000 0.55240  0.61570  0.59380  Biso   1.000  O
  O47      1.0000 0.41460  0.80120  0.14365  Biso   1.000  O
  O48      1.0000 0.38430  0.93670  0.59380  Biso   1.000  O
  O49      1.0000 0.50870  0.65210  0.00000  Biso   1.000  O
  O50      1.0000 0.14340  0.49130  0.00000  Biso   1.000  O
  O51      1.0000 0.34790  0.85660  0.00000  Biso   1.000  O
  O52      1.0000 0.49130  0.34790  0.00000  Biso   1.000  O
  O53      1.0000 0.85660  0.50870  0.00000  Biso   1.000  O
  O54      1.0000 0.65210  0.14340  0.00000  Biso   1.000  O
  O55      1.0000 0.85660  0.34790  0.50000  Biso   1.000  O
  O56      1.0000 0.65210  0.50870  0.50000  Biso   1.000  O
  O57      1.0000 0.49130  0.14340  0.50000  Biso   1.000  O
  O58      1.0000 0.14340  0.65210  0.50000  Biso   1.000  O
  O59      1.0000 0.34790  0.49130  0.50000  Biso   1.000  O
  O60      1.0000 0.50870  0.85660  0.50000  Biso   1.000  O
