data_image0
_cell_length_a       16.6995
_cell_length_b       16.6995
_cell_length_c       26.7579
_cell_angle_alpha    90
_cell_angle_beta     90
_cell_angle_gamma    90

_symmetry_space_group_name_H-M    "P 1"
_symmetry_int_tables_number       1

loop_
  _symmetry_equiv_pos_as_xyz
  'x, y, z'

loop_
  _atom_site_label
  _atom_site_occupancy
  _atom_site_fract_x
  _atom_site_fract_y
  _atom_site_fract_z
  _atom_site_thermal_displace_type
  _atom_site_B_iso_or_equiv
  _atom_site_type_symbol
  C1       1.0000 0.50140  0.33670  0.79570  Biso   1.000  C
  C2       1.0000 0.50280  0.27370  0.75932  Biso   1.000  C
  C3       1.0000 0.43750  0.26430  0.72720  Biso   1.000  C
  H1       1.0000 0.39400  0.29890  0.72940  Biso   1.000  H
  C4       1.0000 0.43780  0.20300  0.69210  Biso   1.000  C
  H2       1.0000 0.39480  0.19830  0.67010  Biso   1.000  H
  C5       1.0000 0.50030  0.14890  0.68877  Biso   1.000  C
  C6       1.0000 0.56760  0.16120  0.72090  Biso   1.000  C
  H3       1.0000 0.61160  0.12730  0.71840  Biso   1.000  H
  C7       1.0000 0.56870  0.22180  0.75540  Biso   1.000  C
  H4       1.0000 0.61290  0.22860  0.77610  Biso   1.000  H
  C8       1.0000 0.49970  0.07650  0.65353  Biso   1.000  C
  C9       1.0000 0.57480  0.07610  0.62000  Biso   1.000  C
  H5       1.0000 0.57510  0.12360  0.59920  Biso   1.000  H
  H6       1.0000 0.62240  0.07700  0.64070  Biso   1.000  H
  H7       1.0000 0.54700  0.00020  0.70750  Biso   1.000  H
  C10      1.0000 0.42420  0.07500  0.62080  Biso   1.000  C
  H8       1.0000 0.42260  0.12250  0.60000  Biso   1.000  H
  H9       1.0000 0.37700  0.07490  0.64190  Biso   1.000  H
  C11      1.0000 0.57590  0.00140  0.58692  Biso   1.000  C
  H10      1.0000 0.50090  0.95310  0.53390  Biso   1.000  H
  C12      1.0000 0.85380  0.99270  0.46060  Biso   1.000  C
  C13      1.0000 0.78510  0.99450  0.49320  Biso   1.000  C
  C14      1.0000 0.71200  0.00590  0.47160  Biso   1.000  C
  H11      1.0000 0.70750  0.01230  0.43720  Biso   1.000  H
  C15      1.0000 0.64430  0.00790  0.50180  Biso   1.000  C
  H12      1.0000 0.59430  0.01550  0.48740  Biso   1.000  H
  C16      1.0000 0.65040  0.99860  0.55380  Biso   1.000  C
  C17      1.0000 0.72450  0.99000  0.57370  Biso   1.000  C
  H13      1.0000 0.72960  0.98620  0.60830  Biso   1.000  H
  C18      1.0000 0.79310  0.98660  0.54450  Biso   1.000  C
  H14      1.0000 0.84320  0.97920  0.55900  Biso   1.000  H
  N1       1.0000 0.50240  0.38810  0.82376  Biso   1.000  N
  N2       1.0000 0.90560  0.98950  0.43230  Biso   1.000  N
  C19      1.0000 0.00140  0.83670  0.29570  Biso   1.000  C
  C20      1.0000 0.00280  0.77370  0.25932  Biso   1.000  C
  C21      1.0000 0.93750  0.76430  0.22720  Biso   1.000  C
  H15      1.0000 0.89400  0.79890  0.22940  Biso   1.000  H
  C22      1.0000 0.93780  0.70300  0.19210  Biso   1.000  C
  H16      1.0000 0.89480  0.69830  0.17010  Biso   1.000  H
  C23      1.0000 0.00030  0.64890  0.18877  Biso   1.000  C
  C24      1.0000 0.06760  0.66120  0.22090  Biso   1.000  C
  H17      1.0000 0.11160  0.62730  0.21840  Biso   1.000  H
  C25      1.0000 0.06870  0.72180  0.25540  Biso   1.000  C
  H18      1.0000 0.11290  0.72860  0.27610  Biso   1.000  H
  C26      1.0000 0.99970  0.57650  0.15353  Biso   1.000  C
  C27      1.0000 0.07480  0.57610  0.12000  Biso   1.000  C
  H19      1.0000 0.07510  0.62360  0.09920  Biso   1.000  H
  H20      1.0000 0.12240  0.57700  0.14070  Biso   1.000  H
  H21      1.0000 0.04700  0.50020  0.20750  Biso   1.000  H
  C28      1.0000 0.92420  0.57500  0.12080  Biso   1.000  C
  H22      1.0000 0.92260  0.62250  0.10000  Biso   1.000  H
  H23      1.0000 0.87700  0.57490  0.14190  Biso   1.000  H
  C29      1.0000 0.07590  0.50140  0.08692  Biso   1.000  C
  H24      1.0000 0.00090  0.45310  0.03390  Biso   1.000  H
  C30      1.0000 0.35380  0.49270  0.96060  Biso   1.000  C
  C31      1.0000 0.28510  0.49450  0.99320  Biso   1.000  C
  C32      1.0000 0.21200  0.50590  0.97160  Biso   1.000  C
  H25      1.0000 0.20750  0.51230  0.93720  Biso   1.000  H
  C33      1.0000 0.14430  0.50790  0.00180  Biso   1.000  C
  H26      1.0000 0.09430  0.51550  0.98740  Biso   1.000  H
  C34      1.0000 0.15040  0.49860  0.05380  Biso   1.000  C
  C35      1.0000 0.22450  0.49000  0.07370  Biso   1.000  C
  H27      1.0000 0.22960  0.48620  0.10830  Biso   1.000  H
  C36      1.0000 0.29310  0.48660  0.04450  Biso   1.000  C
  H28      1.0000 0.34320  0.47920  0.05900  Biso   1.000  H
  N3       1.0000 0.00240  0.88810  0.32376  Biso   1.000  N
  N4       1.0000 0.40560  0.48950  0.93230  Biso   1.000  N
  C37      1.0000 0.49860  0.66330  0.79570  Biso   1.000  C
  C38      1.0000 0.49720  0.72630  0.75932  Biso   1.000  C
  C39      1.0000 0.56250  0.73570  0.72720  Biso   1.000  C
  H29      1.0000 0.60600  0.70110  0.72940  Biso   1.000  H
  C40      1.0000 0.56220  0.79700  0.69210  Biso   1.000  C
  H30      1.0000 0.60520  0.80170  0.67010  Biso   1.000  H
  C41      1.0000 0.49970  0.85110  0.68877  Biso   1.000  C
  C42      1.0000 0.43240  0.83880  0.72090  Biso   1.000  C
  H31      1.0000 0.38840  0.87270  0.71840  Biso   1.000  H
  C43      1.0000 0.43130  0.77820  0.75540  Biso   1.000  C
  H32      1.0000 0.38710  0.77140  0.77610  Biso   1.000  H
  C44      1.0000 0.50030  0.92350  0.65353  Biso   1.000  C
  C45      1.0000 0.42520  0.92390  0.62000  Biso   1.000  C
  H33      1.0000 0.42490  0.87640  0.59920  Biso   1.000  H
  H34      1.0000 0.37760  0.92300  0.64070  Biso   1.000  H
  H35      1.0000 0.45300  0.99980  0.70750  Biso   1.000  H
  C46      1.0000 0.57580  0.92500  0.62080  Biso   1.000  C
  H36      1.0000 0.57740  0.87750  0.60000  Biso   1.000  H
  H37      1.0000 0.62300  0.92510  0.64190  Biso   1.000  H
  C47      1.0000 0.42410  0.99860  0.58692  Biso   1.000  C
  H38      1.0000 0.49910  0.04690  0.53390  Biso   1.000  H
  C48      1.0000 0.14620  0.00730  0.46060  Biso   1.000  C
  C49      1.0000 0.21490  0.00550  0.49320  Biso   1.000  C
  C50      1.0000 0.28800  0.99410  0.47160  Biso   1.000  C
  H39      1.0000 0.29250  0.98770  0.43720  Biso   1.000  H
  C51      1.0000 0.35570  0.99210  0.50180  Biso   1.000  C
  H40      1.0000 0.40570  0.98450  0.48740  Biso   1.000  H
  C52      1.0000 0.34960  0.00140  0.55380  Biso   1.000  C
  C53      1.0000 0.27550  0.01000  0.57370  Biso   1.000  C
  H41      1.0000 0.27040  0.01380  0.60830  Biso   1.000  H
  C54      1.0000 0.20690  0.01340  0.54450  Biso   1.000  C
  H42      1.0000 0.15680  0.02080  0.55900  Biso   1.000  H
  N5       1.0000 0.49760  0.61190  0.82376  Biso   1.000  N
  N6       1.0000 0.09440  0.01050  0.43230  Biso   1.000  N
  C55      1.0000 0.99860  0.16330  0.29570  Biso   1.000  C
  C56      1.0000 0.99720  0.22630  0.25932  Biso   1.000  C
  C57      1.0000 0.06250  0.23570  0.22720  Biso   1.000  C
  H43      1.0000 0.10600  0.20110  0.22940  Biso   1.000  H
  C58      1.0000 0.06220  0.29700  0.19210  Biso   1.000  C
  H44      1.0000 0.10520  0.30170  0.17010  Biso   1.000  H
  C59      1.0000 0.99970  0.35110  0.18877  Biso   1.000  C
  C60      1.0000 0.93240  0.33880  0.22090  Biso   1.000  C
  H45      1.0000 0.88840  0.37270  0.21840  Biso   1.000  H
  C61      1.0000 0.93130  0.27820  0.25540  Biso   1.000  C
  H46      1.0000 0.88710  0.27140  0.27610  Biso   1.000  H
  C62      1.0000 0.00030  0.42350  0.15353  Biso   1.000  C
  C63      1.0000 0.92520  0.42390  0.12000  Biso   1.000  C
  H47      1.0000 0.92490  0.37640  0.09920  Biso   1.000  H
  H48      1.0000 0.87760  0.42300  0.14070  Biso   1.000  H
  H49      1.0000 0.95300  0.49980  0.20750  Biso   1.000  H
  C64      1.0000 0.07580  0.42500  0.12080  Biso   1.000  C
  H50      1.0000 0.07740  0.37750  0.10000  Biso   1.000  H
  H51      1.0000 0.12300  0.42510  0.14190  Biso   1.000  H
  C65      1.0000 0.92410  0.49860  0.08692  Biso   1.000  C
  H52      1.0000 0.99910  0.54690  0.03390  Biso   1.000  H
  C66      1.0000 0.64620  0.50730  0.96060  Biso   1.000  C
  C67      1.0000 0.71490  0.50550  0.99320  Biso   1.000  C
  C68      1.0000 0.78800  0.49410  0.97160  Biso   1.000  C
  H53      1.0000 0.79250  0.48770  0.93720  Biso   1.000  H
  C69      1.0000 0.85570  0.49210  0.00180  Biso   1.000  C
  H54      1.0000 0.90570  0.48450  0.98740  Biso   1.000  H
  C70      1.0000 0.84960  0.50140  0.05380  Biso   1.000  C
  C71      1.0000 0.77550  0.51000  0.07370  Biso   1.000  C
  H55      1.0000 0.77040  0.51380  0.10830  Biso   1.000  H
  C72      1.0000 0.70690  0.51340  0.04450  Biso   1.000  C
  H56      1.0000 0.65680  0.52080  0.05900  Biso   1.000  H
  N7       1.0000 0.99760  0.11190  0.32376  Biso   1.000  N
  N8       1.0000 0.59440  0.51050  0.93230  Biso   1.000  N
  C73      1.0000 0.50000  0.00000  0.68620  Biso   1.000  C
  C74      1.0000 0.50000  0.00000  0.55520  Biso   1.000  C
  C75      1.0000 0.00000  0.50000  0.18620  Biso   1.000  C
  C76      1.0000 0.00000  0.50000  0.05520  Biso   1.000  C
  Ag1      1.0000 0.50000  0.50000  0.87186  Biso   1.000  Ag
  Ag2      1.0000 0.00000  0.00000  0.37186  Biso   1.000  Ag
  C77      1.0000 0.33670  0.49860  0.20430  Biso   1.000  C
  C78      1.0000 0.27370  0.49720  0.24068  Biso   1.000  C
  C79      1.0000 0.26430  0.56250  0.27280  Biso   1.000  C
  H57      1.0000 0.29890  0.60600  0.27060  Biso   1.000  H
  C80      1.0000 0.20300  0.56220  0.30790  Biso   1.000  C
  H58      1.0000 0.19830  0.60520  0.32990  Biso   1.000  H
  C81      1.0000 0.14890  0.49970  0.31123  Biso   1.000  C
  C82      1.0000 0.16120  0.43240  0.27910  Biso   1.000  C
  H59      1.0000 0.12730  0.38840  0.28160  Biso   1.000  H
  C83      1.0000 0.22180  0.43130  0.24460  Biso   1.000  C
  H60      1.0000 0.22860  0.38710  0.22390  Biso   1.000  H
  C84      1.0000 0.07650  0.50030  0.34647  Biso   1.000  C
  C85      1.0000 0.07610  0.42520  0.38000  Biso   1.000  C
  H61      1.0000 0.12360  0.42490  0.40080  Biso   1.000  H
  H62      1.0000 0.07700  0.37760  0.35930  Biso   1.000  H
  H63      1.0000 0.00020  0.45300  0.29250  Biso   1.000  H
  C86      1.0000 0.07500  0.57580  0.37920  Biso   1.000  C
  H64      1.0000 0.12250  0.57740  0.40000  Biso   1.000  H
  H65      1.0000 0.07490  0.62300  0.35810  Biso   1.000  H
  C87      1.0000 0.00140  0.42410  0.41308  Biso   1.000  C
  H66      1.0000 0.95310  0.49910  0.46610  Biso   1.000  H
  C88      1.0000 0.99270  0.14620  0.53940  Biso   1.000  C
  C89      1.0000 0.99450  0.21490  0.50680  Biso   1.000  C
  C90      1.0000 0.00590  0.28800  0.52840  Biso   1.000  C
  H67      1.0000 0.01230  0.29250  0.56280  Biso   1.000  H
  C91      1.0000 0.00790  0.35570  0.49820  Biso   1.000  C
  H68      1.0000 0.01550  0.40570  0.51260  Biso   1.000  H
  C92      1.0000 0.99860  0.34960  0.44620  Biso   1.000  C
  C93      1.0000 0.99000  0.27550  0.42630  Biso   1.000  C
  H69      1.0000 0.98620  0.27040  0.39170  Biso   1.000  H
  C94      1.0000 0.98660  0.20690  0.45550  Biso   1.000  C
  H70      1.0000 0.97920  0.15680  0.44100  Biso   1.000  H
  N9       1.0000 0.38810  0.49760  0.17624  Biso   1.000  N
  N10      1.0000 0.98950  0.09440  0.56770  Biso   1.000  N
  C95      1.0000 0.83670  0.99860  0.70430  Biso   1.000  C
  C96      1.0000 0.77370  0.99720  0.74068  Biso   1.000  C
  C97      1.0000 0.76430  0.06250  0.77280  Biso   1.000  C
  H71      1.0000 0.79890  0.10600  0.77060  Biso   1.000  H
  C98      1.0000 0.70300  0.06220  0.80790  Biso   1.000  C
  H72      1.0000 0.69830  0.10520  0.82990  Biso   1.000  H
  C99      1.0000 0.64890  0.99970  0.81123  Biso   1.000  C
  C100     1.0000 0.66120  0.93240  0.77910  Biso   1.000  C
  H73      1.0000 0.62730  0.88840  0.78160  Biso   1.000  H
  C101     1.0000 0.72180  0.93130  0.74460  Biso   1.000  C
  H74      1.0000 0.72860  0.88710  0.72390  Biso   1.000  H
  C102     1.0000 0.57650  0.00030  0.84647  Biso   1.000  C
  C103     1.0000 0.57610  0.92520  0.88000  Biso   1.000  C
  H75      1.0000 0.62360  0.92490  0.90080  Biso   1.000  H
  H76      1.0000 0.57700  0.87760  0.85930  Biso   1.000  H
  H77      1.0000 0.50020  0.95300  0.79250  Biso   1.000  H
  C104     1.0000 0.57500  0.07580  0.87920  Biso   1.000  C
  H78      1.0000 0.62250  0.07740  0.90000  Biso   1.000  H
  H79      1.0000 0.57490  0.12300  0.85810  Biso   1.000  H
  C105     1.0000 0.50140  0.92410  0.91308  Biso   1.000  C
  H80      1.0000 0.45310  0.99910  0.96610  Biso   1.000  H
  C106     1.0000 0.49270  0.64620  0.03940  Biso   1.000  C
  C107     1.0000 0.49450  0.71490  0.00680  Biso   1.000  C
  C108     1.0000 0.50590  0.78800  0.02840  Biso   1.000  C
  H81      1.0000 0.51230  0.79250  0.06280  Biso   1.000  H
  C109     1.0000 0.50790  0.85570  0.99820  Biso   1.000  C
  H82      1.0000 0.51550  0.90570  0.01260  Biso   1.000  H
  C110     1.0000 0.49860  0.84960  0.94620  Biso   1.000  C
  C111     1.0000 0.49000  0.77550  0.92630  Biso   1.000  C
  H83      1.0000 0.48620  0.77040  0.89170  Biso   1.000  H
  C112     1.0000 0.48660  0.70690  0.95550  Biso   1.000  C
  H84      1.0000 0.47920  0.65680  0.94100  Biso   1.000  H
  N11      1.0000 0.88810  0.99760  0.67624  Biso   1.000  N
  N12      1.0000 0.48950  0.59440  0.06770  Biso   1.000  N
  C113     1.0000 0.66330  0.50140  0.20430  Biso   1.000  C
  C114     1.0000 0.72630  0.50280  0.24068  Biso   1.000  C
  C115     1.0000 0.73570  0.43750  0.27280  Biso   1.000  C
  H85      1.0000 0.70110  0.39400  0.27060  Biso   1.000  H
  C116     1.0000 0.79700  0.43780  0.30790  Biso   1.000  C
  H86      1.0000 0.80170  0.39480  0.32990  Biso   1.000  H
  C117     1.0000 0.85110  0.50030  0.31123  Biso   1.000  C
  C118     1.0000 0.83880  0.56760  0.27910  Biso   1.000  C
  H87      1.0000 0.87270  0.61160  0.28160  Biso   1.000  H
  C119     1.0000 0.77820  0.56870  0.24460  Biso   1.000  C
  H88      1.0000 0.77140  0.61290  0.22390  Biso   1.000  H
  C120     1.0000 0.92350  0.49970  0.34647  Biso   1.000  C
  C121     1.0000 0.92390  0.57480  0.38000  Biso   1.000  C
  H89      1.0000 0.87640  0.57510  0.40080  Biso   1.000  H
  H90      1.0000 0.92300  0.62240  0.35930  Biso   1.000  H
  H91      1.0000 0.99980  0.54700  0.29250  Biso   1.000  H
  C122     1.0000 0.92500  0.42420  0.37920  Biso   1.000  C
  H92      1.0000 0.87750  0.42260  0.40000  Biso   1.000  H
  H93      1.0000 0.92510  0.37700  0.35810  Biso   1.000  H
  C123     1.0000 0.99860  0.57590  0.41308  Biso   1.000  C
  H94      1.0000 0.04690  0.50090  0.46610  Biso   1.000  H
  C124     1.0000 0.00730  0.85380  0.53940  Biso   1.000  C
  C125     1.0000 0.00550  0.78510  0.50680  Biso   1.000  C
  C126     1.0000 0.99410  0.71200  0.52840  Biso   1.000  C
  H95      1.0000 0.98770  0.70750  0.56280  Biso   1.000  H
  C127     1.0000 0.99210  0.64430  0.49820  Biso   1.000  C
  H96      1.0000 0.98450  0.59430  0.51260  Biso   1.000  H
  C128     1.0000 0.00140  0.65040  0.44620  Biso   1.000  C
  C129     1.0000 0.01000  0.72450  0.42630  Biso   1.000  C
  H97      1.0000 0.01380  0.72960  0.39170  Biso   1.000  H
  C130     1.0000 0.01340  0.79310  0.45550  Biso   1.000  C
  H98      1.0000 0.02080  0.84320  0.44100  Biso   1.000  H
  N13      1.0000 0.61190  0.50240  0.17624  Biso   1.000  N
  N14      1.0000 0.01050  0.90560  0.56770  Biso   1.000  N
  C131     1.0000 0.16330  0.00140  0.70430  Biso   1.000  C
  C132     1.0000 0.22630  0.00280  0.74068  Biso   1.000  C
  C133     1.0000 0.23570  0.93750  0.77280  Biso   1.000  C
  H99      1.0000 0.20110  0.89400  0.77060  Biso   1.000  H
  C134     1.0000 0.29700  0.93780  0.80790  Biso   1.000  C
  H100     1.0000 0.30170  0.89480  0.82990  Biso   1.000  H
  C135     1.0000 0.35110  0.00030  0.81123  Biso   1.000  C
  C136     1.0000 0.33880  0.06760  0.77910  Biso   1.000  C
  H101     1.0000 0.37270  0.11160  0.78160  Biso   1.000  H
  C137     1.0000 0.27820  0.06870  0.74460  Biso   1.000  C
  H102     1.0000 0.27140  0.11290  0.72390  Biso   1.000  H
  C138     1.0000 0.42350  0.99970  0.84647  Biso   1.000  C
  C139     1.0000 0.42390  0.07480  0.88000  Biso   1.000  C
  H103     1.0000 0.37640  0.07510  0.90080  Biso   1.000  H
  H104     1.0000 0.42300  0.12240  0.85930  Biso   1.000  H
  H105     1.0000 0.49980  0.04700  0.79250  Biso   1.000  H
  C140     1.0000 0.42500  0.92420  0.87920  Biso   1.000  C
  H106     1.0000 0.37750  0.92260  0.90000  Biso   1.000  H
  H107     1.0000 0.42510  0.87700  0.85810  Biso   1.000  H
  C141     1.0000 0.49860  0.07590  0.91308  Biso   1.000  C
  H108     1.0000 0.54690  0.00090  0.96610  Biso   1.000  H
  C142     1.0000 0.50730  0.35380  0.03940  Biso   1.000  C
  C143     1.0000 0.50550  0.28510  0.00680  Biso   1.000  C
  C144     1.0000 0.49410  0.21200  0.02840  Biso   1.000  C
  H109     1.0000 0.48770  0.20750  0.06280  Biso   1.000  H
  C145     1.0000 0.49210  0.14430  0.99820  Biso   1.000  C
  H110     1.0000 0.48450  0.09430  0.01260  Biso   1.000  H
  C146     1.0000 0.50140  0.15040  0.94620  Biso   1.000  C
  C147     1.0000 0.51000  0.22450  0.92630  Biso   1.000  C
  H111     1.0000 0.51380  0.22960  0.89170  Biso   1.000  H
  C148     1.0000 0.51340  0.29310  0.95550  Biso   1.000  C
  H112     1.0000 0.52080  0.34320  0.94100  Biso   1.000  H
  N15      1.0000 0.11190  0.00240  0.67624  Biso   1.000  N
  N16      1.0000 0.51050  0.40560  0.06770  Biso   1.000  N
  C149     1.0000 0.00000  0.50000  0.31380  Biso   1.000  C
  C150     1.0000 0.00000  0.50000  0.44480  Biso   1.000  C
  C151     1.0000 0.50000  0.00000  0.81380  Biso   1.000  C
  C152     1.0000 0.50000  0.00000  0.94480  Biso   1.000  C
  Ag3      1.0000 0.50000  0.50000  0.12814  Biso   1.000  Ag
  Ag4      1.0000 0.00000  0.00000  0.62814  Biso   1.000  Ag
  C153     1.0000 0.99860  0.33670  0.95430  Biso   1.000  C
  C154     1.0000 0.99720  0.27370  0.99068  Biso   1.000  C
  C155     1.0000 0.06250  0.26430  0.02280  Biso   1.000  C
  H113     1.0000 0.10600  0.29890  0.02060  Biso   1.000  H
  C156     1.0000 0.06220  0.20300  0.05790  Biso   1.000  C
  H114     1.0000 0.10520  0.19830  0.07990  Biso   1.000  H
  C157     1.0000 0.99970  0.14890  0.06123  Biso   1.000  C
  C158     1.0000 0.93240  0.16120  0.02910  Biso   1.000  C
  H115     1.0000 0.88840  0.12730  0.03160  Biso   1.000  H
  C159     1.0000 0.93130  0.22180  0.99460  Biso   1.000  C
  H116     1.0000 0.88710  0.22860  0.97390  Biso   1.000  H
  C160     1.0000 0.00030  0.07650  0.09647  Biso   1.000  C
  C161     1.0000 0.92520  0.07610  0.13000  Biso   1.000  C
  H117     1.0000 0.92490  0.12360  0.15080  Biso   1.000  H
  H118     1.0000 0.87760  0.07700  0.10930  Biso   1.000  H
  H119     1.0000 0.95300  0.00020  0.04250  Biso   1.000  H
  C162     1.0000 0.07580  0.07500  0.12920  Biso   1.000  C
  H120     1.0000 0.07740  0.12250  0.15000  Biso   1.000  H
  H121     1.0000 0.12300  0.07490  0.10810  Biso   1.000  H
  C163     1.0000 0.92410  0.00140  0.16308  Biso   1.000  C
  H122     1.0000 0.99910  0.95310  0.21610  Biso   1.000  H
  C164     1.0000 0.64620  0.99270  0.28940  Biso   1.000  C
  C165     1.0000 0.71490  0.99450  0.25680  Biso   1.000  C
  C166     1.0000 0.78800  0.00590  0.27840  Biso   1.000  C
  H123     1.0000 0.79250  0.01230  0.31280  Biso   1.000  H
  C167     1.0000 0.85570  0.00790  0.24820  Biso   1.000  C
  H124     1.0000 0.90570  0.01550  0.26260  Biso   1.000  H
  C168     1.0000 0.84960  0.99860  0.19620  Biso   1.000  C
  C169     1.0000 0.77550  0.99000  0.17630  Biso   1.000  C
  H125     1.0000 0.77040  0.98620  0.14170  Biso   1.000  H
  C170     1.0000 0.70690  0.98660  0.20550  Biso   1.000  C
  H126     1.0000 0.65680  0.97920  0.19100  Biso   1.000  H
  N17      1.0000 0.99760  0.38810  0.92624  Biso   1.000  N
  N18      1.0000 0.59440  0.98950  0.31770  Biso   1.000  N
  C171     1.0000 0.49860  0.83670  0.45430  Biso   1.000  C
  C172     1.0000 0.49720  0.77370  0.49068  Biso   1.000  C
  C173     1.0000 0.56250  0.76430  0.52280  Biso   1.000  C
  H127     1.0000 0.60600  0.79890  0.52060  Biso   1.000  H
  C174     1.0000 0.56220  0.70300  0.55790  Biso   1.000  C
  H128     1.0000 0.60520  0.69830  0.57990  Biso   1.000  H
  C175     1.0000 0.49970  0.64890  0.56123  Biso   1.000  C
  C176     1.0000 0.43240  0.66120  0.52910  Biso   1.000  C
  H129     1.0000 0.38840  0.62730  0.53160  Biso   1.000  H
  C177     1.0000 0.43130  0.72180  0.49460  Biso   1.000  C
  H130     1.0000 0.38710  0.72860  0.47390  Biso   1.000  H
  C178     1.0000 0.50030  0.57650  0.59647  Biso   1.000  C
  C179     1.0000 0.42520  0.57610  0.63000  Biso   1.000  C
  H131     1.0000 0.42490  0.62360  0.65080  Biso   1.000  H
  H132     1.0000 0.37760  0.57700  0.60930  Biso   1.000  H
  H133     1.0000 0.45300  0.50020  0.54250  Biso   1.000  H
  C180     1.0000 0.57580  0.57500  0.62920  Biso   1.000  C
  H134     1.0000 0.57740  0.62250  0.65000  Biso   1.000  H
  H135     1.0000 0.62300  0.57490  0.60810  Biso   1.000  H
  C181     1.0000 0.42410  0.50140  0.66308  Biso   1.000  C
  H136     1.0000 0.49910  0.45310  0.71610  Biso   1.000  H
  C182     1.0000 0.14620  0.49270  0.78940  Biso   1.000  C
  C183     1.0000 0.21490  0.49450  0.75680  Biso   1.000  C
  C184     1.0000 0.28800  0.50590  0.77840  Biso   1.000  C
  H137     1.0000 0.29250  0.51230  0.81280  Biso   1.000  H
  C185     1.0000 0.35570  0.50790  0.74820  Biso   1.000  C
  H138     1.0000 0.40570  0.51550  0.76260  Biso   1.000  H
  C186     1.0000 0.34960  0.49860  0.69620  Biso   1.000  C
  C187     1.0000 0.27550  0.49000  0.67630  Biso   1.000  C
  H139     1.0000 0.27040  0.48620  0.64170  Biso   1.000  H
  C188     1.0000 0.20690  0.48660  0.70550  Biso   1.000  C
  H140     1.0000 0.15680  0.47920  0.69100  Biso   1.000  H
  N19      1.0000 0.49760  0.88810  0.42624  Biso   1.000  N
  N20      1.0000 0.09440  0.48950  0.81770  Biso   1.000  N
  C189     1.0000 0.00140  0.66330  0.95430  Biso   1.000  C
  C190     1.0000 0.00280  0.72630  0.99068  Biso   1.000  C
  C191     1.0000 0.93750  0.73570  0.02280  Biso   1.000  C
  H141     1.0000 0.89400  0.70110  0.02060  Biso   1.000  H
  C192     1.0000 0.93780  0.79700  0.05790  Biso   1.000  C
  H142     1.0000 0.89480  0.80170  0.07990  Biso   1.000  H
  C193     1.0000 0.00030  0.85110  0.06123  Biso   1.000  C
  C194     1.0000 0.06760  0.83880  0.02910  Biso   1.000  C
  H143     1.0000 0.11160  0.87270  0.03160  Biso   1.000  H
  C195     1.0000 0.06870  0.77820  0.99460  Biso   1.000  C
  H144     1.0000 0.11290  0.77140  0.97390  Biso   1.000  H
  C196     1.0000 0.99970  0.92350  0.09647  Biso   1.000  C
  C197     1.0000 0.07480  0.92390  0.13000  Biso   1.000  C
  H145     1.0000 0.07510  0.87640  0.15080  Biso   1.000  H
  H146     1.0000 0.12240  0.92300  0.10930  Biso   1.000  H
  H147     1.0000 0.04700  0.99980  0.04250  Biso   1.000  H
  C198     1.0000 0.92420  0.92500  0.12920  Biso   1.000  C
  H148     1.0000 0.92260  0.87750  0.15000  Biso   1.000  H
  H149     1.0000 0.87700  0.92510  0.10810  Biso   1.000  H
  C199     1.0000 0.07590  0.99860  0.16308  Biso   1.000  C
  H150     1.0000 0.00090  0.04690  0.21610  Biso   1.000  H
  C200     1.0000 0.35380  0.00730  0.28940  Biso   1.000  C
  C201     1.0000 0.28510  0.00550  0.25680  Biso   1.000  C
  C202     1.0000 0.21200  0.99410  0.27840  Biso   1.000  C
  H151     1.0000 0.20750  0.98770  0.31280  Biso   1.000  H
  C203     1.0000 0.14430  0.99210  0.24820  Biso   1.000  C
  H152     1.0000 0.09430  0.98450  0.26260  Biso   1.000  H
  C204     1.0000 0.15040  0.00140  0.19620  Biso   1.000  C
  C205     1.0000 0.22450  0.01000  0.17630  Biso   1.000  C
  H153     1.0000 0.22960  0.01380  0.14170  Biso   1.000  H
  C206     1.0000 0.29310  0.01340  0.20550  Biso   1.000  C
  H154     1.0000 0.34320  0.02080  0.19100  Biso   1.000  H
  N21      1.0000 0.00240  0.61190  0.92624  Biso   1.000  N
  N22      1.0000 0.40560  0.01050  0.31770  Biso   1.000  N
  C207     1.0000 0.50140  0.16330  0.45430  Biso   1.000  C
  C208     1.0000 0.50280  0.22630  0.49068  Biso   1.000  C
  C209     1.0000 0.43750  0.23570  0.52280  Biso   1.000  C
  H155     1.0000 0.39400  0.20110  0.52060  Biso   1.000  H
  C210     1.0000 0.43780  0.29700  0.55790  Biso   1.000  C
  H156     1.0000 0.39480  0.30170  0.57990  Biso   1.000  H
  C211     1.0000 0.50030  0.35110  0.56123  Biso   1.000  C
  C212     1.0000 0.56760  0.33880  0.52910  Biso   1.000  C
  H157     1.0000 0.61160  0.37270  0.53160  Biso   1.000  H
  C213     1.0000 0.56870  0.27820  0.49460  Biso   1.000  C
  H158     1.0000 0.61290  0.27140  0.47390  Biso   1.000  H
  C214     1.0000 0.49970  0.42350  0.59647  Biso   1.000  C
  C215     1.0000 0.57480  0.42390  0.63000  Biso   1.000  C
  H159     1.0000 0.57510  0.37640  0.65080  Biso   1.000  H
  H160     1.0000 0.62240  0.42300  0.60930  Biso   1.000  H
  H161     1.0000 0.54700  0.49980  0.54250  Biso   1.000  H
  C216     1.0000 0.42420  0.42500  0.62920  Biso   1.000  C
  H162     1.0000 0.42260  0.37750  0.65000  Biso   1.000  H
  H163     1.0000 0.37700  0.42510  0.60810  Biso   1.000  H
  C217     1.0000 0.57590  0.49860  0.66308  Biso   1.000  C
  H164     1.0000 0.50090  0.54690  0.71610  Biso   1.000  H
  C218     1.0000 0.85380  0.50730  0.78940  Biso   1.000  C
  C219     1.0000 0.78510  0.50550  0.75680  Biso   1.000  C
  C220     1.0000 0.71200  0.49410  0.77840  Biso   1.000  C
  H165     1.0000 0.70750  0.48770  0.81280  Biso   1.000  H
  C221     1.0000 0.64430  0.49210  0.74820  Biso   1.000  C
  H166     1.0000 0.59430  0.48450  0.76260  Biso   1.000  H
  C222     1.0000 0.65040  0.50140  0.69620  Biso   1.000  C
  C223     1.0000 0.72450  0.51000  0.67630  Biso   1.000  C
  H167     1.0000 0.72960  0.51380  0.64170  Biso   1.000  H
  C224     1.0000 0.79310  0.51340  0.70550  Biso   1.000  C
  H168     1.0000 0.84320  0.52080  0.69100  Biso   1.000  H
  N23      1.0000 0.50240  0.11190  0.42624  Biso   1.000  N
  N24      1.0000 0.90560  0.51050  0.81770  Biso   1.000  N
  C225     1.0000 0.00000  0.00000  0.06380  Biso   1.000  C
  C226     1.0000 0.00000  0.00000  0.19480  Biso   1.000  C
  C227     1.0000 0.50000  0.50000  0.56380  Biso   1.000  C
  C228     1.0000 0.50000  0.50000  0.69480  Biso   1.000  C
  Ag5      1.0000 0.00000  0.50000  0.87814  Biso   1.000  Ag
  Ag6      1.0000 0.50000  0.00000  0.37814  Biso   1.000  Ag
  C229     1.0000 0.16330  0.49860  0.54570  Biso   1.000  C
  C230     1.0000 0.22630  0.49720  0.50932  Biso   1.000  C
  C231     1.0000 0.23570  0.56250  0.47720  Biso   1.000  C
  H169     1.0000 0.20110  0.60600  0.47940  Biso   1.000  H
  C232     1.0000 0.29700  0.56220  0.44210  Biso   1.000  C
  H170     1.0000 0.30170  0.60520  0.42010  Biso   1.000  H
  C233     1.0000 0.35110  0.49970  0.43877  Biso   1.000  C
  C234     1.0000 0.33880  0.43240  0.47090  Biso   1.000  C
  H171     1.0000 0.37270  0.38840  0.46840  Biso   1.000  H
  C235     1.0000 0.27820  0.43130  0.50540  Biso   1.000  C
  H172     1.0000 0.27140  0.38710  0.52610  Biso   1.000  H
  C236     1.0000 0.42350  0.50030  0.40353  Biso   1.000  C
  C237     1.0000 0.42390  0.42520  0.37000  Biso   1.000  C
  H173     1.0000 0.37640  0.42490  0.34920  Biso   1.000  H
  H174     1.0000 0.42300  0.37760  0.39070  Biso   1.000  H
  H175     1.0000 0.49980  0.45300  0.45750  Biso   1.000  H
  C238     1.0000 0.42500  0.57580  0.37080  Biso   1.000  C
  H176     1.0000 0.37750  0.57740  0.35000  Biso   1.000  H
  H177     1.0000 0.42510  0.62300  0.39190  Biso   1.000  H
  C239     1.0000 0.49860  0.42410  0.33692  Biso   1.000  C
  H178     1.0000 0.54690  0.49910  0.28390  Biso   1.000  H
  C240     1.0000 0.50730  0.14620  0.21060  Biso   1.000  C
  C241     1.0000 0.50550  0.21490  0.24320  Biso   1.000  C
  C242     1.0000 0.49410  0.28800  0.22160  Biso   1.000  C
  H179     1.0000 0.48770  0.29250  0.18720  Biso   1.000  H
  C243     1.0000 0.49210  0.35570  0.25180  Biso   1.000  C
  H180     1.0000 0.48450  0.40570  0.23740  Biso   1.000  H
  C244     1.0000 0.50140  0.34960  0.30380  Biso   1.000  C
  C245     1.0000 0.51000  0.27550  0.32370  Biso   1.000  C
  H181     1.0000 0.51380  0.27040  0.35830  Biso   1.000  H
  C246     1.0000 0.51340  0.20690  0.29450  Biso   1.000  C
  H182     1.0000 0.52080  0.15680  0.30900  Biso   1.000  H
  N25      1.0000 0.11190  0.49760  0.57376  Biso   1.000  N
  N26      1.0000 0.51050  0.09440  0.18230  Biso   1.000  N
  C247     1.0000 0.66330  0.99860  0.04570  Biso   1.000  C
  C248     1.0000 0.72630  0.99720  0.00932  Biso   1.000  C
  C249     1.0000 0.73570  0.06250  0.97720  Biso   1.000  C
  H183     1.0000 0.70110  0.10600  0.97940  Biso   1.000  H
  C250     1.0000 0.79700  0.06220  0.94210  Biso   1.000  C
  H184     1.0000 0.80170  0.10520  0.92010  Biso   1.000  H
  C251     1.0000 0.85110  0.99970  0.93877  Biso   1.000  C
  C252     1.0000 0.83880  0.93240  0.97090  Biso   1.000  C
  H185     1.0000 0.87270  0.88840  0.96840  Biso   1.000  H
  C253     1.0000 0.77820  0.93130  0.00540  Biso   1.000  C
  H186     1.0000 0.77140  0.88710  0.02610  Biso   1.000  H
  C254     1.0000 0.92350  0.00030  0.90353  Biso   1.000  C
  C255     1.0000 0.92390  0.92520  0.87000  Biso   1.000  C
  H187     1.0000 0.87640  0.92490  0.84920  Biso   1.000  H
  H188     1.0000 0.92300  0.87760  0.89070  Biso   1.000  H
  H189     1.0000 0.99980  0.95300  0.95750  Biso   1.000  H
  C256     1.0000 0.92500  0.07580  0.87080  Biso   1.000  C
  H190     1.0000 0.87750  0.07740  0.85000  Biso   1.000  H
  H191     1.0000 0.92510  0.12300  0.89190  Biso   1.000  H
  C257     1.0000 0.99860  0.92410  0.83692  Biso   1.000  C
  H192     1.0000 0.04690  0.99910  0.78390  Biso   1.000  H
  C258     1.0000 0.00730  0.64620  0.71060  Biso   1.000  C
  C259     1.0000 0.00550  0.71490  0.74320  Biso   1.000  C
  C260     1.0000 0.99410  0.78800  0.72160  Biso   1.000  C
  H193     1.0000 0.98770  0.79250  0.68720  Biso   1.000  H
  C261     1.0000 0.99210  0.85570  0.75180  Biso   1.000  C
  H194     1.0000 0.98450  0.90570  0.73740  Biso   1.000  H
  C262     1.0000 0.00140  0.84960  0.80380  Biso   1.000  C
  C263     1.0000 0.01000  0.77550  0.82370  Biso   1.000  C
  H195     1.0000 0.01380  0.77040  0.85830  Biso   1.000  H
  C264     1.0000 0.01340  0.70690  0.79450  Biso   1.000  C
  H196     1.0000 0.02080  0.65680  0.80900  Biso   1.000  H
  N27      1.0000 0.61190  0.99760  0.07376  Biso   1.000  N
  N28      1.0000 0.01050  0.59440  0.68230  Biso   1.000  N
  C265     1.0000 0.83670  0.50140  0.54570  Biso   1.000  C
  C266     1.0000 0.77370  0.50280  0.50932  Biso   1.000  C
  C267     1.0000 0.76430  0.43750  0.47720  Biso   1.000  C
  H197     1.0000 0.79890  0.39400  0.47940  Biso   1.000  H
  C268     1.0000 0.70300  0.43780  0.44210  Biso   1.000  C
  H198     1.0000 0.69830  0.39480  0.42010  Biso   1.000  H
  C269     1.0000 0.64890  0.50030  0.43877  Biso   1.000  C
  C270     1.0000 0.66120  0.56760  0.47090  Biso   1.000  C
  H199     1.0000 0.62730  0.61160  0.46840  Biso   1.000  H
  C271     1.0000 0.72180  0.56870  0.50540  Biso   1.000  C
  H200     1.0000 0.72860  0.61290  0.52610  Biso   1.000  H
  C272     1.0000 0.57650  0.49970  0.40353  Biso   1.000  C
  C273     1.0000 0.57610  0.57480  0.37000  Biso   1.000  C
  H201     1.0000 0.62360  0.57510  0.34920  Biso   1.000  H
  H202     1.0000 0.57700  0.62240  0.39070  Biso   1.000  H
  H203     1.0000 0.50020  0.54700  0.45750  Biso   1.000  H
  C274     1.0000 0.57500  0.42420  0.37080  Biso   1.000  C
  H204     1.0000 0.62250  0.42260  0.35000  Biso   1.000  H
  H205     1.0000 0.57490  0.37700  0.39190  Biso   1.000  H
  C275     1.0000 0.50140  0.57590  0.33692  Biso   1.000  C
  H206     1.0000 0.45310  0.50090  0.28390  Biso   1.000  H
  C276     1.0000 0.49270  0.85380  0.21060  Biso   1.000  C
  C277     1.0000 0.49450  0.78510  0.24320  Biso   1.000  C
  C278     1.0000 0.50590  0.71200  0.22160  Biso   1.000  C
  H207     1.0000 0.51230  0.70750  0.18720  Biso   1.000  H
  C279     1.0000 0.50790  0.64430  0.25180  Biso   1.000  C
  H208     1.0000 0.51550  0.59430  0.23740  Biso   1.000  H
  C280     1.0000 0.49860  0.65040  0.30380  Biso   1.000  C
  C281     1.0000 0.49000  0.72450  0.32370  Biso   1.000  C
  H209     1.0000 0.48620  0.72960  0.35830  Biso   1.000  H
  C282     1.0000 0.48660  0.79310  0.29450  Biso   1.000  C
  H210     1.0000 0.47920  0.84320  0.30900  Biso   1.000  H
  N29      1.0000 0.88810  0.50240  0.57376  Biso   1.000  N
  N30      1.0000 0.48950  0.90560  0.18230  Biso   1.000  N
  C283     1.0000 0.33670  0.00140  0.04570  Biso   1.000  C
  C284     1.0000 0.27370  0.00280  0.00932  Biso   1.000  C
  C285     1.0000 0.26430  0.93750  0.97720  Biso   1.000  C
  H211     1.0000 0.29890  0.89400  0.97940  Biso   1.000  H
  C286     1.0000 0.20300  0.93780  0.94210  Biso   1.000  C
  H212     1.0000 0.19830  0.89480  0.92010  Biso   1.000  H
  C287     1.0000 0.14890  0.00030  0.93877  Biso   1.000  C
  C288     1.0000 0.16120  0.06760  0.97090  Biso   1.000  C
  H213     1.0000 0.12730  0.11160  0.96840  Biso   1.000  H
  C289     1.0000 0.22180  0.06870  0.00540  Biso   1.000  C
  H214     1.0000 0.22860  0.11290  0.02610  Biso   1.000  H
  C290     1.0000 0.07650  0.99970  0.90353  Biso   1.000  C
  C291     1.0000 0.07610  0.07480  0.87000  Biso   1.000  C
  H215     1.0000 0.12360  0.07510  0.84920  Biso   1.000  H
  H216     1.0000 0.07700  0.12240  0.89070  Biso   1.000  H
  H217     1.0000 0.00020  0.04700  0.95750  Biso   1.000  H
  C292     1.0000 0.07500  0.92420  0.87080  Biso   1.000  C
  H218     1.0000 0.12250  0.92260  0.85000  Biso   1.000  H
  H219     1.0000 0.07490  0.87700  0.89190  Biso   1.000  H
  C293     1.0000 0.00140  0.07590  0.83692  Biso   1.000  C
  H220     1.0000 0.95310  0.00090  0.78390  Biso   1.000  H
  C294     1.0000 0.99270  0.35380  0.71060  Biso   1.000  C
  C295     1.0000 0.99450  0.28510  0.74320  Biso   1.000  C
  C296     1.0000 0.00590  0.21200  0.72160  Biso   1.000  C
  H221     1.0000 0.01230  0.20750  0.68720  Biso   1.000  H
  C297     1.0000 0.00790  0.14430  0.75180  Biso   1.000  C
  H222     1.0000 0.01550  0.09430  0.73740  Biso   1.000  H
  C298     1.0000 0.99860  0.15040  0.80380  Biso   1.000  C
  C299     1.0000 0.99000  0.22450  0.82370  Biso   1.000  C
  H223     1.0000 0.98620  0.22960  0.85830  Biso   1.000  H
  C300     1.0000 0.98660  0.29310  0.79450  Biso   1.000  C
  H224     1.0000 0.97920  0.34320  0.80900  Biso   1.000  H
  N31      1.0000 0.38810  0.00240  0.07376  Biso   1.000  N
  N32      1.0000 0.98950  0.40560  0.68230  Biso   1.000  N
  C301     1.0000 0.50000  0.50000  0.43620  Biso   1.000  C
  C302     1.0000 0.50000  0.50000  0.30520  Biso   1.000  C
  C303     1.0000 0.00000  0.00000  0.93620  Biso   1.000  C
  C304     1.0000 0.00000  0.00000  0.80520  Biso   1.000  C
  Ag7      1.0000 0.00000  0.50000  0.62186  Biso   1.000  Ag
  Ag8      1.0000 0.50000  0.00000  0.12186  Biso   1.000  Ag
