data_image0
_cell_length_a       10.8818
_cell_length_b       12.9515
_cell_length_c       12.9515
_cell_angle_alpha    120
_cell_angle_beta     90
_cell_angle_gamma    90

_symmetry_space_group_name_H-M    P 1
_symmetry_int_tables_number       1

loop_
  _symmetry_equiv_pos_as_xyz
  'x, y, z'

loop_
  _atom_site_label
  _atom_site_occupancy
  _atom_site_fract_x
  _atom_site_fract_y
  _atom_site_fract_z
  _atom_site_thermal_displace_type
  _atom_site_B_iso_or_equiv
  _atom_site_type_symbol
  Cd1      1.0000 0.50000  0.66667  0.33334  Biso   1.000  Cd
  Cd2      1.0000 0.50000  0.33333  0.66666  Biso   1.000  Cd
  H1       1.0000 0.89730  0.56660  0.17890  Biso   1.000  H
  H2       1.0000 0.89730  0.61230  0.43340  Biso   1.000  H
  H3       1.0000 0.89730  0.82110  0.38770  Biso   1.000  H
  H4       1.0000 0.10270  0.61230  0.17890  Biso   1.000  H
  H5       1.0000 0.10270  0.82110  0.43340  Biso   1.000  H
  H6       1.0000 0.10270  0.56660  0.38770  Biso   1.000  H
  H7       1.0000 0.10270  0.43340  0.82110  Biso   1.000  H
  H8       1.0000 0.10270  0.38770  0.56660  Biso   1.000  H
  H9       1.0000 0.10270  0.17890  0.61230  Biso   1.000  H
  H10      1.0000 0.89730  0.38770  0.82110  Biso   1.000  H
  H11      1.0000 0.89730  0.17890  0.56660  Biso   1.000  H
  H12      1.0000 0.89730  0.43340  0.61230  Biso   1.000  H
  C1       1.0000 0.93850  0.53860  0.10490  Biso   1.000  C
  C2       1.0000 0.67800  0.48440  0.10610  Biso   1.000  C
  C3       1.0000 0.93850  0.56630  0.46140  Biso   1.000  C
  C4       1.0000 0.67800  0.62170  0.51560  Biso   1.000  C
  C5       1.0000 0.93850  0.89510  0.43370  Biso   1.000  C
  C6       1.0000 0.67800  0.89390  0.37830  Biso   1.000  C
  C7       1.0000 0.06150  0.56630  0.10490  Biso   1.000  C
  C8       1.0000 0.32200  0.62170  0.10610  Biso   1.000  C
  C9       1.0000 0.06150  0.89510  0.46140  Biso   1.000  C
  C10      1.0000 0.32200  0.89390  0.51560  Biso   1.000  C
  C11      1.0000 0.06150  0.53860  0.43370  Biso   1.000  C
  C12      1.0000 0.32200  0.48440  0.37830  Biso   1.000  C
  C13      1.0000 0.06150  0.46140  0.89510  Biso   1.000  C
  C14      1.0000 0.32200  0.51560  0.89390  Biso   1.000  C
  C15      1.0000 0.06150  0.43370  0.53860  Biso   1.000  C
  C16      1.0000 0.32200  0.37830  0.48440  Biso   1.000  C
  C17      1.0000 0.06150  0.10490  0.56630  Biso   1.000  C
  C18      1.0000 0.32200  0.10610  0.62170  Biso   1.000  C
  C19      1.0000 0.93850  0.43370  0.89510  Biso   1.000  C
  C20      1.0000 0.67800  0.37830  0.89390  Biso   1.000  C
  C21      1.0000 0.93850  0.10490  0.53860  Biso   1.000  C
  C22      1.0000 0.67800  0.10610  0.48440  Biso   1.000  C
  C23      1.0000 0.93850  0.46140  0.56630  Biso   1.000  C
  C24      1.0000 0.67800  0.51560  0.62170  Biso   1.000  C
  C25      1.0000 0.74360  0.44190  0.00000  Biso   1.000  C
  C26      1.0000 0.87420  0.47130  0.00000  Biso   1.000  C
  C27      1.0000 0.74360  0.55810  0.55810  Biso   1.000  C
  C28      1.0000 0.87420  0.52870  0.52870  Biso   1.000  C
  C29      1.0000 0.74360  0.00000  0.44190  Biso   1.000  C
  C30      1.0000 0.87420  0.00000  0.47130  Biso   1.000  C
  C31      1.0000 0.25640  0.55810  0.00000  Biso   1.000  C
  C32      1.0000 0.12580  0.52870  0.00000  Biso   1.000  C
  C33      1.0000 0.25640  0.00000  0.55810  Biso   1.000  C
  C34      1.0000 0.12580  0.00000  0.52870  Biso   1.000  C
  C35      1.0000 0.25640  0.44190  0.44190  Biso   1.000  C
  C36      1.0000 0.12580  0.47130  0.47130  Biso   1.000  C
  N1       1.0000 0.62420  0.51800  0.19200  Biso   1.000  N
  N2       1.0000 0.62420  0.67400  0.48200  Biso   1.000  N
  N3       1.0000 0.62420  0.80800  0.32600  Biso   1.000  N
  N4       1.0000 0.37580  0.67400  0.19200  Biso   1.000  N
  N5       1.0000 0.37580  0.80800  0.48200  Biso   1.000  N
  N6       1.0000 0.37580  0.51800  0.32600  Biso   1.000  N
  N7       1.0000 0.37580  0.48200  0.80800  Biso   1.000  N
  N8       1.0000 0.37580  0.32600  0.51800  Biso   1.000  N
  N9       1.0000 0.37580  0.19200  0.67400  Biso   1.000  N
  N10      1.0000 0.62420  0.32600  0.80800  Biso   1.000  N
  N11      1.0000 0.62420  0.19200  0.51800  Biso   1.000  N
  N12      1.0000 0.62420  0.48200  0.67400  Biso   1.000  N
