data_image0
_cell_length_a       10.8532
_cell_length_b       13.0158
_cell_length_c       13.0158
_cell_angle_alpha    120
_cell_angle_beta     90
_cell_angle_gamma    90

_symmetry_space_group_name_H-M    P 1
_symmetry_int_tables_number       1

loop_
  _symmetry_equiv_pos_as_xyz
  'x, y, z'

loop_
  _atom_site_label
  _atom_site_occupancy
  _atom_site_fract_x
  _atom_site_fract_y
  _atom_site_fract_z
  _atom_site_thermal_displace_type
  _atom_site_B_iso_or_equiv
  _atom_site_type_symbol
  Mn1      1.0000 0.00000  0.33333  0.66666  Biso   1.000  Mn
  Mn2      1.0000 0.00000  0.66667  0.33334  Biso   1.000  Mn
  H1       1.0000 0.60460  0.61000  0.18020  Biso   1.000  H
  H2       1.0000 0.60460  0.57020  0.39000  Biso   1.000  H
  H3       1.0000 0.60460  0.81980  0.42980  Biso   1.000  H
  H4       1.0000 0.39540  0.57020  0.18020  Biso   1.000  H
  H5       1.0000 0.39540  0.81980  0.39000  Biso   1.000  H
  H6       1.0000 0.39540  0.61000  0.42980  Biso   1.000  H
  H7       1.0000 0.39540  0.39000  0.81980  Biso   1.000  H
  H8       1.0000 0.39540  0.42980  0.61000  Biso   1.000  H
  H9       1.0000 0.39540  0.18020  0.57020  Biso   1.000  H
  H10      1.0000 0.60460  0.42980  0.81980  Biso   1.000  H
  H11      1.0000 0.60460  0.18020  0.61000  Biso   1.000  H
  H12      1.0000 0.60460  0.39000  0.57020  Biso   1.000  H
  C1       1.0000 0.82580  0.50350  0.89500  Biso   1.000  C
  C2       1.0000 0.56230  0.56500  0.10700  Biso   1.000  C
  C3       1.0000 0.82580  0.39150  0.49650  Biso   1.000  C
  C4       1.0000 0.56230  0.54200  0.43500  Biso   1.000  C
  C5       1.0000 0.82580  0.10500  0.60850  Biso   1.000  C
  C6       1.0000 0.56230  0.89300  0.45800  Biso   1.000  C
  C7       1.0000 0.17420  0.39150  0.89500  Biso   1.000  C
  C8       1.0000 0.43770  0.54200  0.10700  Biso   1.000  C
  C9       1.0000 0.17420  0.10500  0.49650  Biso   1.000  C
  C10      1.0000 0.43770  0.89300  0.43500  Biso   1.000  C
  C11      1.0000 0.17420  0.50350  0.60850  Biso   1.000  C
  C12      1.0000 0.43770  0.56500  0.45800  Biso   1.000  C
  C13      1.0000 0.17420  0.49650  0.10500  Biso   1.000  C
  C14      1.0000 0.43770  0.43500  0.89300  Biso   1.000  C
  C15      1.0000 0.17420  0.60850  0.50350  Biso   1.000  C
  C16      1.0000 0.43770  0.45800  0.56500  Biso   1.000  C
  C17      1.0000 0.17420  0.89500  0.39150  Biso   1.000  C
  C18      1.0000 0.43770  0.10700  0.54200  Biso   1.000  C
  C19      1.0000 0.82580  0.60850  0.10500  Biso   1.000  C
  C20      1.0000 0.56230  0.45800  0.89300  Biso   1.000  C
  C21      1.0000 0.82580  0.89500  0.50350  Biso   1.000  C
  C22      1.0000 0.56230  0.10700  0.56500  Biso   1.000  C
  C23      1.0000 0.82580  0.49650  0.39150  Biso   1.000  C
  C24      1.0000 0.56230  0.43500  0.54200  Biso   1.000  C
  C25      1.0000 0.76050  0.54600  0.00000  Biso   1.000  C
  C26      1.0000 0.62640  0.52230  0.00000  Biso   1.000  C
  C27      1.0000 0.76050  0.45400  0.45400  Biso   1.000  C
  C28      1.0000 0.62640  0.47770  0.47770  Biso   1.000  C
  C29      1.0000 0.76050  0.00000  0.54600  Biso   1.000  C
  C30      1.0000 0.62640  0.00000  0.52230  Biso   1.000  C
  C31      1.0000 0.23950  0.45400  0.00000  Biso   1.000  C
  C32      1.0000 0.37360  0.47770  0.00000  Biso   1.000  C
  C33      1.0000 0.23950  0.00000  0.45400  Biso   1.000  C
  C34      1.0000 0.37360  0.00000  0.47770  Biso   1.000  C
  C35      1.0000 0.23950  0.54600  0.54600  Biso   1.000  C
  C36      1.0000 0.37360  0.52230  0.52230  Biso   1.000  C
  N1       1.0000 0.88000  0.46760  0.80700  Biso   1.000  N
  N2       1.0000 0.88000  0.33940  0.53240  Biso   1.000  N
  N3       1.0000 0.88000  0.19300  0.66060  Biso   1.000  N
  N4       1.0000 0.12000  0.33940  0.80700  Biso   1.000  N
  N5       1.0000 0.12000  0.19300  0.53240  Biso   1.000  N
  N6       1.0000 0.12000  0.46760  0.66060  Biso   1.000  N
  N7       1.0000 0.12000  0.53240  0.19300  Biso   1.000  N
  N8       1.0000 0.12000  0.66060  0.46760  Biso   1.000  N
  N9       1.0000 0.12000  0.80700  0.33940  Biso   1.000  N
  N10      1.0000 0.88000  0.66060  0.19300  Biso   1.000  N
  N11      1.0000 0.88000  0.80700  0.46760  Biso   1.000  N
  N12      1.0000 0.88000  0.53240  0.33940  Biso   1.000  N
