data_image0
_cell_length_a       12.8814
_cell_length_b       12.8814
_cell_length_c       22.0591
_cell_angle_alpha    90
_cell_angle_beta     90
_cell_angle_gamma    120

_symmetry_space_group_name_H-M    P 1
_symmetry_int_tables_number       1

loop_
  _symmetry_equiv_pos_as_xyz
  'x, y, z'

loop_
  _atom_site_label
  _atom_site_occupancy
  _atom_site_fract_x
  _atom_site_fract_y
  _atom_site_fract_z
  _atom_site_thermal_displace_type
  _atom_site_B_iso_or_equiv
  _atom_site_type_symbol
  Mn1      1.0000 0.33333  0.66666  0.50000  Biso   1.000  Mn
  Mn2      1.0000 0.66667  0.33334  0.00000  Biso   1.000  Mn
  Mn3      1.0000 0.66667  0.33334  0.50000  Biso   1.000  Mn
  Mn4      1.0000 0.33333  0.66666  0.00000  Biso   1.000  Mn
  H1       1.0000 0.52470  0.18080  0.30280  Biso   1.000  H
  H2       1.0000 0.65610  0.47530  0.30280  Biso   1.000  H
  H3       1.0000 0.81920  0.34390  0.30280  Biso   1.000  H
  H4       1.0000 0.47530  0.81920  0.80280  Biso   1.000  H
  H5       1.0000 0.34390  0.52470  0.80280  Biso   1.000  H
  H6       1.0000 0.18080  0.65610  0.80280  Biso   1.000  H
  H7       1.0000 0.34390  0.81920  0.19720  Biso   1.000  H
  H8       1.0000 0.18080  0.52470  0.19720  Biso   1.000  H
  H9       1.0000 0.47530  0.65610  0.19720  Biso   1.000  H
  H10      1.0000 0.65610  0.18080  0.69720  Biso   1.000  H
  H11      1.0000 0.81920  0.47530  0.69720  Biso   1.000  H
  H12      1.0000 0.52470  0.34390  0.69720  Biso   1.000  H
  H13      1.0000 0.47530  0.81920  0.69720  Biso   1.000  H
  H14      1.0000 0.34390  0.52470  0.69720  Biso   1.000  H
  H15      1.0000 0.18080  0.65610  0.69720  Biso   1.000  H
  H16      1.0000 0.52470  0.18080  0.19720  Biso   1.000  H
  H17      1.0000 0.65610  0.47530  0.19720  Biso   1.000  H
  H18      1.0000 0.81920  0.34390  0.19720  Biso   1.000  H
  H19      1.0000 0.65610  0.18080  0.80280  Biso   1.000  H
  H20      1.0000 0.81920  0.47530  0.80280  Biso   1.000  H
  H21      1.0000 0.52470  0.34390  0.80280  Biso   1.000  H
  H22      1.0000 0.34390  0.81920  0.30280  Biso   1.000  H
  H23      1.0000 0.18080  0.52470  0.30280  Biso   1.000  H
  H24      1.0000 0.47530  0.65610  0.30280  Biso   1.000  H
  C1       1.0000 0.37480  0.89250  0.41417  Biso   1.000  C
  C2       1.0000 0.48700  0.10670  0.28165  Biso   1.000  C
  C3       1.0000 0.51770  0.62520  0.41417  Biso   1.000  C
  C4       1.0000 0.61970  0.51300  0.28165  Biso   1.000  C
  C5       1.0000 0.10750  0.48230  0.41417  Biso   1.000  C
  C6       1.0000 0.89330  0.38030  0.28165  Biso   1.000  C
  C7       1.0000 0.62520  0.10750  0.91417  Biso   1.000  C
  C8       1.0000 0.51300  0.89330  0.78165  Biso   1.000  C
  C9       1.0000 0.48230  0.37480  0.91417  Biso   1.000  C
  C10      1.0000 0.38030  0.48700  0.78165  Biso   1.000  C
  C11      1.0000 0.89250  0.51770  0.91417  Biso   1.000  C
  C12      1.0000 0.10670  0.61970  0.78165  Biso   1.000  C
  C13      1.0000 0.48230  0.10750  0.08583  Biso   1.000  C
  C14      1.0000 0.38030  0.89330  0.21835  Biso   1.000  C
  C15      1.0000 0.89250  0.37480  0.08583  Biso   1.000  C
  C16      1.0000 0.10670  0.48700  0.21835  Biso   1.000  C
  C17      1.0000 0.62520  0.51770  0.08583  Biso   1.000  C
  C18      1.0000 0.51300  0.61970  0.21835  Biso   1.000  C
  C19      1.0000 0.51770  0.89250  0.58583  Biso   1.000  C
  C20      1.0000 0.61970  0.10670  0.71835  Biso   1.000  C
  C21      1.0000 0.10750  0.62520  0.58583  Biso   1.000  C
  C22      1.0000 0.89330  0.51300  0.71835  Biso   1.000  C
  C23      1.0000 0.37480  0.48230  0.58583  Biso   1.000  C
  C24      1.0000 0.48700  0.38030  0.71835  Biso   1.000  C
  C25      1.0000 0.62520  0.10750  0.58583  Biso   1.000  C
  C26      1.0000 0.51300  0.89330  0.71835  Biso   1.000  C
  C27      1.0000 0.48230  0.37480  0.58583  Biso   1.000  C
  C28      1.0000 0.38030  0.48700  0.71835  Biso   1.000  C
  C29      1.0000 0.89250  0.51770  0.58583  Biso   1.000  C
  C30      1.0000 0.10670  0.61970  0.71835  Biso   1.000  C
  C31      1.0000 0.37480  0.89250  0.08583  Biso   1.000  C
  C32      1.0000 0.48700  0.10670  0.21835  Biso   1.000  C
  C33      1.0000 0.51770  0.62520  0.08583  Biso   1.000  C
  C34      1.0000 0.61970  0.51300  0.21835  Biso   1.000  C
  C35      1.0000 0.10750  0.48230  0.08583  Biso   1.000  C
  C36      1.0000 0.89330  0.38030  0.21835  Biso   1.000  C
  C37      1.0000 0.51770  0.89250  0.91417  Biso   1.000  C
  C38      1.0000 0.61970  0.10670  0.78165  Biso   1.000  C
  C39      1.0000 0.10750  0.62520  0.91417  Biso   1.000  C
  C40      1.0000 0.89330  0.51300  0.78165  Biso   1.000  C
  C41      1.0000 0.37480  0.48230  0.91417  Biso   1.000  C
  C42      1.0000 0.48700  0.38030  0.78165  Biso   1.000  C
  C43      1.0000 0.48230  0.10750  0.41417  Biso   1.000  C
  C44      1.0000 0.38030  0.89330  0.28165  Biso   1.000  C
  C45      1.0000 0.89250  0.37480  0.41417  Biso   1.000  C
  C46      1.0000 0.10670  0.48700  0.28165  Biso   1.000  C
  C47      1.0000 0.62520  0.51770  0.41417  Biso   1.000  C
  C48      1.0000 0.51300  0.61970  0.28165  Biso   1.000  C
  C49      1.0000 0.43260  0.00000  0.31412  Biso   1.000  C
  C50      1.0000 0.42890  0.00000  0.38070  Biso   1.000  C
  C51      1.0000 0.56740  0.56740  0.31412  Biso   1.000  C
  C52      1.0000 0.57110  0.57110  0.38070  Biso   1.000  C
  C53      1.0000 0.00000  0.43260  0.31412  Biso   1.000  C
  C54      1.0000 0.00000  0.42890  0.38070  Biso   1.000  C
  C55      1.0000 0.56740  0.00000  0.81412  Biso   1.000  C
  C56      1.0000 0.57110  0.00000  0.88070  Biso   1.000  C
  C57      1.0000 0.43260  0.43260  0.81412  Biso   1.000  C
  C58      1.0000 0.42890  0.42890  0.88070  Biso   1.000  C
  C59      1.0000 0.00000  0.56740  0.81412  Biso   1.000  C
  C60      1.0000 0.00000  0.57110  0.88070  Biso   1.000  C
  C61      1.0000 0.43260  0.00000  0.18588  Biso   1.000  C
  C62      1.0000 0.42890  0.00000  0.11930  Biso   1.000  C
  C63      1.0000 0.00000  0.43260  0.18588  Biso   1.000  C
  C64      1.0000 0.00000  0.42890  0.11930  Biso   1.000  C
  C65      1.0000 0.56740  0.56740  0.18588  Biso   1.000  C
  C66      1.0000 0.57110  0.57110  0.11930  Biso   1.000  C
  C67      1.0000 0.56740  0.00000  0.68588  Biso   1.000  C
  C68      1.0000 0.57110  0.00000  0.61930  Biso   1.000  C
  C69      1.0000 0.00000  0.56740  0.68588  Biso   1.000  C
  C70      1.0000 0.00000  0.57110  0.61930  Biso   1.000  C
  C71      1.0000 0.43260  0.43260  0.68588  Biso   1.000  C
  C72      1.0000 0.42890  0.42890  0.61930  Biso   1.000  C
  N1       1.0000 0.33400  0.80700  0.44176  Biso   1.000  N
  N2       1.0000 0.47300  0.66600  0.44176  Biso   1.000  N
  N3       1.0000 0.19300  0.52700  0.44176  Biso   1.000  N
  N4       1.0000 0.66600  0.19300  0.94176  Biso   1.000  N
  N5       1.0000 0.52700  0.33400  0.94176  Biso   1.000  N
  N6       1.0000 0.80700  0.47300  0.94176  Biso   1.000  N
  N7       1.0000 0.52700  0.19300  0.05824  Biso   1.000  N
  N8       1.0000 0.80700  0.33400  0.05824  Biso   1.000  N
  N9       1.0000 0.66600  0.47300  0.05824  Biso   1.000  N
  N10      1.0000 0.47300  0.80700  0.55824  Biso   1.000  N
  N11      1.0000 0.19300  0.66600  0.55824  Biso   1.000  N
  N12      1.0000 0.33400  0.52700  0.55824  Biso   1.000  N
  N13      1.0000 0.66600  0.19300  0.55824  Biso   1.000  N
  N14      1.0000 0.52700  0.33400  0.55824  Biso   1.000  N
  N15      1.0000 0.80700  0.47300  0.55824  Biso   1.000  N
  N16      1.0000 0.33400  0.80700  0.05824  Biso   1.000  N
  N17      1.0000 0.47300  0.66600  0.05824  Biso   1.000  N
  N18      1.0000 0.19300  0.52700  0.05824  Biso   1.000  N
  N19      1.0000 0.47300  0.80700  0.94176  Biso   1.000  N
  N20      1.0000 0.19300  0.66600  0.94176  Biso   1.000  N
  N21      1.0000 0.33400  0.52700  0.94176  Biso   1.000  N
  N22      1.0000 0.52700  0.19300  0.44176  Biso   1.000  N
  N23      1.0000 0.80700  0.33400  0.44176  Biso   1.000  N
  N24      1.0000 0.66600  0.47300  0.44176  Biso   1.000  N
