data_image0
_cell_length_a       15.591
_cell_length_b       15.241
_cell_length_c       12.126
_cell_angle_alpha    90
_cell_angle_beta     90
_cell_angle_gamma    90

_symmetry_space_group_name_H-M    "P 1"
_symmetry_int_tables_number       1

loop_
  _symmetry_equiv_pos_as_xyz
  'x, y, z'

loop_
  _atom_site_label
  _atom_site_occupancy
  _atom_site_fract_x
  _atom_site_fract_y
  _atom_site_fract_z
  _atom_site_thermal_displace_type
  _atom_site_B_iso_or_equiv
  _atom_site_type_symbol
  W1       1.0000 0.01524  0.01810  0.09842  Biso   1.000  W
  Cu1      1.0000 0.14660  0.98750  0.23700  Biso   1.000  Cu
  Cu2      1.0000 0.10940  0.15260  0.02520  Biso   1.000  Cu
  Cu3      1.0000 0.88200  0.07090  0.96700  Biso   1.000  Cu
  Cu4      1.0000 0.91140  0.88840  0.17200  Biso   1.000  Cu
  S1       1.0000 0.96980  0.15640  0.07890  Biso   1.000  S
  S2       1.0000 0.15290  0.01120  0.04920  Biso   1.000  S
  S3       1.0000 0.00210  0.97450  0.27370  Biso   1.000  S
  S4       1.0000 0.93700  0.93060  0.99130  Biso   1.000  S
  S5       1.0000 0.24390  0.41630  0.95890  Biso   1.000  S
  S6       1.0000 0.88420  0.10370  0.77910  Biso   1.000  S
  S7       1.0000 0.19470  0.10860  0.35140  Biso   1.000  S
  S8       1.0000 0.40000  0.83730  0.30630  Biso   1.000  S
  N1       1.0000 0.23480  0.90710  0.28400  Biso   1.000  N
  C1       1.0000 0.30290  0.87800  0.29300  Biso   1.000  C
  N2       1.0000 0.17870  0.25700  0.03300  Biso   1.000  N
  C2       1.0000 0.20850  0.32420  0.00600  Biso   1.000  C
  N3       1.0000 0.09400  0.25600  0.31900  Biso   1.000  N
  C3       1.0000 0.13600  0.19320  0.33200  Biso   1.000  C
  N4       1.0000 0.71130  0.08800  0.72100  Biso   1.000  N
  C4       1.0000 0.78140  0.09300  0.74900  Biso   1.000  C
  W2       1.0000 0.48476  0.98190  0.59842  Biso   1.000  W
  Cu5      1.0000 0.35340  0.01250  0.73700  Biso   1.000  Cu
  Cu6      1.0000 0.39060  0.84740  0.52520  Biso   1.000  Cu
  Cu7      1.0000 0.61800  0.92910  0.46700  Biso   1.000  Cu
  Cu8      1.0000 0.58860  0.11160  0.67200  Biso   1.000  Cu
  S9       1.0000 0.53020  0.84360  0.57890  Biso   1.000  S
  S10      1.0000 0.34710  0.98880  0.54920  Biso   1.000  S
  S11      1.0000 0.49790  0.02550  0.77370  Biso   1.000  S
  S12      1.0000 0.56300  0.06940  0.49130  Biso   1.000  S
  S13      1.0000 0.25610  0.58370  0.45890  Biso   1.000  S
  S14      1.0000 0.61580  0.89630  0.27910  Biso   1.000  S
  S15      1.0000 0.30530  0.89140  0.85140  Biso   1.000  S
  S16      1.0000 0.10000  0.16270  0.80630  Biso   1.000  S
  N5       1.0000 0.26520  0.09290  0.78400  Biso   1.000  N
  C5       1.0000 0.19710  0.12200  0.79300  Biso   1.000  C
  N6       1.0000 0.32130  0.74300  0.53300  Biso   1.000  N
  C6       1.0000 0.29150  0.67580  0.50600  Biso   1.000  C
  N7       1.0000 0.40600  0.74400  0.81900  Biso   1.000  N
  C7       1.0000 0.36400  0.80680  0.83200  Biso   1.000  C
  N8       1.0000 0.78870  0.91200  0.22100  Biso   1.000  N
  C8       1.0000 0.71860  0.90700  0.24900  Biso   1.000  C
  W3       1.0000 0.98476  0.51810  0.40158  Biso   1.000  W
  Cu9      1.0000 0.85340  0.48750  0.26300  Biso   1.000  Cu
  Cu10     1.0000 0.89060  0.65260  0.47480  Biso   1.000  Cu
  Cu11     1.0000 0.11800  0.57090  0.53300  Biso   1.000  Cu
  Cu12     1.0000 0.08860  0.38840  0.32800  Biso   1.000  Cu
  S17      1.0000 0.03020  0.65640  0.42110  Biso   1.000  S
  S18      1.0000 0.84710  0.51120  0.45080  Biso   1.000  S
  S19      1.0000 0.99790  0.47450  0.22630  Biso   1.000  S
  S20      1.0000 0.06300  0.43060  0.50870  Biso   1.000  S
  S21      1.0000 0.75610  0.91630  0.54110  Biso   1.000  S
  S22      1.0000 0.11580  0.60370  0.72090  Biso   1.000  S
  S23      1.0000 0.80530  0.60860  0.14860  Biso   1.000  S
  S24      1.0000 0.60000  0.33730  0.19370  Biso   1.000  S
  N9       1.0000 0.76520  0.40710  0.21600  Biso   1.000  N
  C9       1.0000 0.69710  0.37800  0.20700  Biso   1.000  C
  N10      1.0000 0.82130  0.75700  0.46700  Biso   1.000  N
  C10      1.0000 0.79150  0.82420  0.49400  Biso   1.000  C
  N11      1.0000 0.90600  0.75600  0.18100  Biso   1.000  N
  C11      1.0000 0.86400  0.69320  0.16800  Biso   1.000  C
  N12      1.0000 0.28870  0.58800  0.77900  Biso   1.000  N
  C12      1.0000 0.21860  0.59300  0.75100  Biso   1.000  C
  W4       1.0000 0.51524  0.48190  0.90158  Biso   1.000  W
  Cu13     1.0000 0.64660  0.51250  0.76300  Biso   1.000  Cu
  Cu14     1.0000 0.60940  0.34740  0.97480  Biso   1.000  Cu
  Cu15     1.0000 0.38200  0.42910  0.03300  Biso   1.000  Cu
  Cu16     1.0000 0.41140  0.61160  0.82800  Biso   1.000  Cu
  S25      1.0000 0.46980  0.34360  0.92110  Biso   1.000  S
  S26      1.0000 0.65290  0.48880  0.95080  Biso   1.000  S
  S27      1.0000 0.50210  0.52550  0.72630  Biso   1.000  S
  S28      1.0000 0.43700  0.56940  0.00870  Biso   1.000  S
  S29      1.0000 0.74390  0.08370  0.04110  Biso   1.000  S
  S30      1.0000 0.38420  0.39630  0.22090  Biso   1.000  S
  S31      1.0000 0.69470  0.39140  0.64860  Biso   1.000  S
  S32      1.0000 0.90000  0.66270  0.69370  Biso   1.000  S
  N13      1.0000 0.73480  0.59290  0.71600  Biso   1.000  N
  C13      1.0000 0.80290  0.62200  0.70700  Biso   1.000  C
  N14      1.0000 0.67870  0.24300  0.96700  Biso   1.000  N
  C14      1.0000 0.70850  0.17580  0.99400  Biso   1.000  C
  N15      1.0000 0.59400  0.24400  0.68100  Biso   1.000  N
  C15      1.0000 0.63600  0.30680  0.66800  Biso   1.000  C
  N16      1.0000 0.21130  0.41200  0.27900  Biso   1.000  N
  C16      1.0000 0.28140  0.40700  0.25100  Biso   1.000  C
