data_image0
_cell_length_a       7.3817
_cell_length_b       13.6319
_cell_length_c       13.6319
_cell_angle_alpha    120
_cell_angle_beta     90
_cell_angle_gamma    90

_symmetry_space_group_name_H-M    P 1
_symmetry_int_tables_number       1

loop_
  _symmetry_equiv_pos_as_xyz
  'x, y, z'

loop_
  _atom_site_label
  _atom_site_occupancy
  _atom_site_fract_x
  _atom_site_fract_y
  _atom_site_fract_z
  _atom_site_thermal_displace_type
  _atom_site_B_iso_or_equiv
  _atom_site_type_symbol
  Nd1      1.0000 0.33992  0.33333  0.66666  Biso   1.000  Nd
  Nd2      1.0000 0.66008  0.66667  0.33334  Biso   1.000  Nd
  Cu1      1.0000 0.00000  0.50000  0.50000  Biso   1.000  Cu
  Cu2      1.0000 0.00000  0.00000  0.50000  Biso   1.000  Cu
  Cu3      1.0000 0.00000  0.50000  0.00000  Biso   1.000  Cu
  H1       1.0000 0.86020  0.35430  0.32520  Biso   1.000  H
  H2       1.0000 0.95210  0.20440  0.34920  Biso   1.000  H
  H3       1.0000 0.76660  0.26950  0.45170  Biso   1.000  H
  H4       1.0000 0.64240  0.21440  0.28050  Biso   1.000  H
  H5       1.0000 0.53970  0.33030  0.33090  Biso   1.000  H
  H6       1.0000 0.49510  0.24620  0.37450  Biso   1.000  H
  H7       1.0000 0.99740  0.20970  0.20820  Biso   1.000  H
  H8       1.0000 0.09460  0.12830  0.24150  Biso   1.000  H
  H9       1.0000 0.19950  0.23180  0.24900  Biso   1.000  H
  H10      1.0000 0.86020  0.97090  0.64570  Biso   1.000  H
  H11      1.0000 0.95210  0.14480  0.79560  Biso   1.000  H
  H12      1.0000 0.76660  0.18220  0.73050  Biso   1.000  H
  H13      1.0000 0.64240  0.06610  0.78560  Biso   1.000  H
  H14      1.0000 0.53970  0.00060  0.66970  Biso   1.000  H
  H15      1.0000 0.49510  0.12830  0.75380  Biso   1.000  H
  H16      1.0000 0.99740  0.99850  0.79030  Biso   1.000  H
  H17      1.0000 0.09460  0.11320  0.87170  Biso   1.000  H
  H18      1.0000 0.19950  0.01720  0.76820  Biso   1.000  H
  H19      1.0000 0.86020  0.67480  0.02910  Biso   1.000  H
  H20      1.0000 0.95210  0.65080  0.85520  Biso   1.000  H
  H21      1.0000 0.76660  0.54830  0.81780  Biso   1.000  H
  H22      1.0000 0.64240  0.71950  0.93390  Biso   1.000  H
  H23      1.0000 0.53970  0.66910  0.99940  Biso   1.000  H
  H24      1.0000 0.49510  0.62550  0.87170  Biso   1.000  H
  H25      1.0000 0.99740  0.79180  0.00150  Biso   1.000  H
  H26      1.0000 0.09460  0.75850  0.88680  Biso   1.000  H
  H27      1.0000 0.19950  0.75100  0.98280  Biso   1.000  H
  H28      1.0000 0.13980  0.64570  0.67480  Biso   1.000  H
  H29      1.0000 0.04790  0.79560  0.65080  Biso   1.000  H
  H30      1.0000 0.23340  0.73050  0.54830  Biso   1.000  H
  H31      1.0000 0.35760  0.78560  0.71950  Biso   1.000  H
  H32      1.0000 0.46030  0.66970  0.66910  Biso   1.000  H
  H33      1.0000 0.50490  0.75380  0.62550  Biso   1.000  H
  H34      1.0000 0.00260  0.79030  0.79180  Biso   1.000  H
  H35      1.0000 0.90540  0.87170  0.75850  Biso   1.000  H
  H36      1.0000 0.80050  0.76820  0.75100  Biso   1.000  H
  H37      1.0000 0.13980  0.02910  0.35430  Biso   1.000  H
  H38      1.0000 0.04790  0.85520  0.20440  Biso   1.000  H
  H39      1.0000 0.23340  0.81780  0.26950  Biso   1.000  H
  H40      1.0000 0.35760  0.93390  0.21440  Biso   1.000  H
  H41      1.0000 0.46030  0.99940  0.33030  Biso   1.000  H
  H42      1.0000 0.50490  0.87170  0.24620  Biso   1.000  H
  H43      1.0000 0.00260  0.00150  0.20970  Biso   1.000  H
  H44      1.0000 0.90540  0.88680  0.12830  Biso   1.000  H
  H45      1.0000 0.80050  0.98280  0.23180  Biso   1.000  H
  H46      1.0000 0.13980  0.32520  0.97090  Biso   1.000  H
  H47      1.0000 0.04790  0.34920  0.14480  Biso   1.000  H
  H48      1.0000 0.23340  0.45170  0.18220  Biso   1.000  H
  H49      1.0000 0.35760  0.28050  0.06610  Biso   1.000  H
  H50      1.0000 0.46030  0.33090  0.00060  Biso   1.000  H
  H51      1.0000 0.50490  0.37450  0.12830  Biso   1.000  H
  H52      1.0000 0.00260  0.20820  0.99850  Biso   1.000  H
  H53      1.0000 0.90540  0.24150  0.11320  Biso   1.000  H
  H54      1.0000 0.80050  0.24900  0.01720  Biso   1.000  H
  C1       1.0000 0.13830  0.27570  0.45520  Biso   1.000  C
  C2       1.0000 0.03530  0.26170  0.35190  Biso   1.000  C
  C3       1.0000 0.73000  0.32940  0.43600  Biso   1.000  C
  C4       1.0000 0.68430  0.42850  0.55150  Biso   1.000  C
  C5       1.0000 0.58950  0.27530  0.34770  Biso   1.000  C
  C6       1.0000 0.08400  0.20540  0.25850  Biso   1.000  C
  C7       1.0000 0.13830  0.17950  0.72430  Biso   1.000  C
  C8       1.0000 0.03530  0.09020  0.73830  Biso   1.000  C
  C9       1.0000 0.73000  0.10660  0.67060  Biso   1.000  C
  C10      1.0000 0.68430  0.12300  0.57150  Biso   1.000  C
  C11      1.0000 0.58950  0.07240  0.72470  Biso   1.000  C
  C12      1.0000 0.08400  0.05310  0.79460  Biso   1.000  C
  C13      1.0000 0.13830  0.54480  0.82050  Biso   1.000  C
  C14      1.0000 0.03530  0.64810  0.90980  Biso   1.000  C
  C15      1.0000 0.73000  0.56400  0.89340  Biso   1.000  C
  C16      1.0000 0.68430  0.44850  0.87700  Biso   1.000  C
  C17      1.0000 0.58950  0.65230  0.92760  Biso   1.000  C
  C18      1.0000 0.08400  0.74150  0.94690  Biso   1.000  C
  C19      1.0000 0.86170  0.72430  0.54480  Biso   1.000  C
  C20      1.0000 0.96470  0.73830  0.64810  Biso   1.000  C
  C21      1.0000 0.27000  0.67060  0.56400  Biso   1.000  C
  C22      1.0000 0.31570  0.57150  0.44850  Biso   1.000  C
  C23      1.0000 0.41050  0.72470  0.65230  Biso   1.000  C
  C24      1.0000 0.91600  0.79460  0.74150  Biso   1.000  C
  C25      1.0000 0.86170  0.82050  0.27570  Biso   1.000  C
  C26      1.0000 0.96470  0.90980  0.26170  Biso   1.000  C
  C27      1.0000 0.27000  0.89340  0.32940  Biso   1.000  C
  C28      1.0000 0.31570  0.87700  0.42850  Biso   1.000  C
  C29      1.0000 0.41050  0.92760  0.27530  Biso   1.000  C
  C30      1.0000 0.91600  0.94690  0.20540  Biso   1.000  C
  C31      1.0000 0.86170  0.45520  0.17950  Biso   1.000  C
  C32      1.0000 0.96470  0.35190  0.09020  Biso   1.000  C
  C33      1.0000 0.27000  0.43600  0.10660  Biso   1.000  C
  C34      1.0000 0.31570  0.55150  0.12300  Biso   1.000  C
  C35      1.0000 0.41050  0.34770  0.07240  Biso   1.000  C
  C36      1.0000 0.91600  0.25850  0.05310  Biso   1.000  C
  N1       1.0000 0.89400  0.35026  0.38732  Biso   1.000  N
  N2       1.0000 0.89400  0.03706  0.64974  Biso   1.000  N
  N3       1.0000 0.89400  0.61268  0.96294  Biso   1.000  N
  N4       1.0000 0.10600  0.64974  0.61268  Biso   1.000  N
  N5       1.0000 0.10600  0.96294  0.35026  Biso   1.000  N
  N6       1.0000 0.10600  0.38732  0.03706  Biso   1.000  N
  O1       1.0000 0.24280  0.19966  0.44439  Biso   1.000  O
  O2       1.0000 0.12110  0.36586  0.54767  Biso   1.000  O
  O3       1.0000 0.78730  0.51428  0.59293  Biso   1.000  O
  O4       1.0000 0.54960  0.41960  0.60070  Biso   1.000  O
  O5       1.0000 0.24280  0.24473  0.80034  Biso   1.000  O
  O6       1.0000 0.12110  0.18181  0.63414  Biso   1.000  O
  O7       1.0000 0.78730  0.07865  0.48572  Biso   1.000  O
  O8       1.0000 0.54960  0.18110  0.58040  Biso   1.000  O
  O9       1.0000 0.24280  0.55561  0.75527  Biso   1.000  O
  O10      1.0000 0.12110  0.45233  0.81819  Biso   1.000  O
  O11      1.0000 0.78730  0.40707  0.92135  Biso   1.000  O
  O12      1.0000 0.54960  0.39930  0.81890  Biso   1.000  O
  O13      1.0000 0.75720  0.80034  0.55561  Biso   1.000  O
  O14      1.0000 0.87890  0.63414  0.45233  Biso   1.000  O
  O15      1.0000 0.21270  0.48572  0.40707  Biso   1.000  O
  O16      1.0000 0.45040  0.58040  0.39930  Biso   1.000  O
  O17      1.0000 0.75720  0.75527  0.19966  Biso   1.000  O
  O18      1.0000 0.87890  0.81819  0.36586  Biso   1.000  O
  O19      1.0000 0.21270  0.92135  0.51428  Biso   1.000  O
  O20      1.0000 0.45040  0.81890  0.41960  Biso   1.000  O
  O21      1.0000 0.75720  0.44439  0.24473  Biso   1.000  O
  O22      1.0000 0.87890  0.54767  0.18181  Biso   1.000  O
  O23      1.0000 0.21270  0.59293  0.07865  Biso   1.000  O
  O24      1.0000 0.45040  0.60070  0.18110  Biso   1.000  O
