data_image0
_cell_length_a       10.953
_cell_length_b       19.811
_cell_length_c       23.056
_cell_angle_alpha    90
_cell_angle_beta     90
_cell_angle_gamma    99.88

_symmetry_space_group_name_H-M    P 1
_symmetry_int_tables_number       1

loop_
  _symmetry_equiv_pos_as_xyz
  'x, y, z'

loop_
  _atom_site_label
  _atom_site_occupancy
  _atom_site_fract_x
  _atom_site_fract_y
  _atom_site_fract_z
  _atom_site_thermal_displace_type
  _atom_site_B_iso_or_equiv
  _atom_site_type_symbol
  Pr1      1.0000 0.96065  0.09981  0.64615  Biso   1.000  Pr
  Pr2      1.0000 0.14892  0.85230  0.85488  Biso   1.000  Pr
  Pr3      1.0000 0.53935  0.40019  0.14615  Biso   1.000  Pr
  Pr4      1.0000 0.35108  0.64770  0.35488  Biso   1.000  Pr
  Pr5      1.0000 0.03935  0.90019  0.35385  Biso   1.000  Pr
  Pr6      1.0000 0.85108  0.14770  0.14512  Biso   1.000  Pr
  Pr7      1.0000 0.46065  0.59981  0.85385  Biso   1.000  Pr
  Pr8      1.0000 0.64892  0.35230  0.64512  Biso   1.000  Pr
  Cu1      1.0000 0.91006  0.10005  0.82258  Biso   1.000  Cu
  Cu2      1.0000 0.19739  0.84747  0.67830  Biso   1.000  Cu
  Cu3      1.0000 0.58994  0.39995  0.32258  Biso   1.000  Cu
  Cu4      1.0000 0.30261  0.65253  0.17830  Biso   1.000  Cu
  Cu5      1.0000 0.08994  0.89995  0.17742  Biso   1.000  Cu
  Cu6      1.0000 0.80261  0.15253  0.32170  Biso   1.000  Cu
  Cu7      1.0000 0.41006  0.60005  0.67742  Biso   1.000  Cu
  Cu8      1.0000 0.69739  0.34747  0.82170  Biso   1.000  Cu
  H1       1.0000 0.72800  0.75600  0.79420  Biso   1.000  H
  H2       1.0000 0.62250  0.94170  0.69560  Biso   1.000  H
  H3       1.0000 0.58210  0.95900  0.41720  Biso   1.000  H
  H4       1.0000 0.39110  0.19160  0.70050  Biso   1.000  H
  H5       1.0000 0.48280  0.00720  0.80480  Biso   1.000  H
  H6       1.0000 0.77200  0.74400  0.29420  Biso   1.000  H
  H7       1.0000 0.87750  0.55830  0.19560  Biso   1.000  H
  H8       1.0000 0.91790  0.54100  0.91720  Biso   1.000  H
  H9       1.0000 0.10890  0.30840  0.20050  Biso   1.000  H
  H10      1.0000 0.01720  0.49280  0.30480  Biso   1.000  H
  H11      1.0000 0.27200  0.24400  0.20580  Biso   1.000  H
  H12      1.0000 0.37750  0.05830  0.30440  Biso   1.000  H
  H13      1.0000 0.41790  0.04100  0.58280  Biso   1.000  H
  H14      1.0000 0.60890  0.80840  0.29950  Biso   1.000  H
  H15      1.0000 0.51720  0.99280  0.19520  Biso   1.000  H
  H16      1.0000 0.22800  0.25600  0.70580  Biso   1.000  H
  H17      1.0000 0.12250  0.44170  0.80440  Biso   1.000  H
  H18      1.0000 0.08210  0.45900  0.08280  Biso   1.000  H
  H19      1.0000 0.89110  0.69160  0.79950  Biso   1.000  H
  H20      1.0000 0.98280  0.50720  0.69520  Biso   1.000  H
  C1       1.0000 0.74820  0.91350  0.75080  Biso   1.000  C
  C2       1.0000 0.78080  0.85690  0.78020  Biso   1.000  C
  C3       1.0000 0.70770  0.79310  0.77390  Biso   1.000  C
  C4       1.0000 0.60440  0.78330  0.73770  Biso   1.000  C
  C5       1.0000 0.57260  0.83970  0.70820  Biso   1.000  C
  C6       1.0000 0.64420  0.90430  0.71500  Biso   1.000  C
  C7       1.0000 0.81690  0.98510  0.76020  Biso   1.000  C
  C8       1.0000 0.90110  0.86240  0.81220  Biso   1.000  C
  C9       1.0000 0.53580  0.71220  0.72890  Biso   1.000  C
  C10      1.0000 0.45510  0.83420  0.67340  Biso   1.000  C
  C11      1.0000 0.62680  0.99850  0.49630  Biso   1.000  C
  C12      1.0000 0.57800  0.02360  0.54650  Biso   1.000  C
  C13      1.0000 0.54920  0.97540  0.45050  Biso   1.000  C
  C14      1.0000 0.76110  0.99180  0.49020  Biso   1.000  C
  C15      1.0000 0.65840  0.05290  0.59580  Biso   1.000  C
  C16      1.0000 0.53680  0.10850  0.79110  Biso   1.000  C
  C17      1.0000 0.50860  0.16410  0.75970  Biso   1.000  C
  C18      1.0000 0.40830  0.15470  0.72200  Biso   1.000  C
  C19      1.0000 0.33320  0.09110  0.71590  Biso   1.000  C
  C20      1.0000 0.36110  0.03470  0.74710  Biso   1.000  C
  C21      1.0000 0.46350  0.04440  0.78430  Biso   1.000  C
  C22      1.0000 0.65050  0.11180  0.82880  Biso   1.000  C
  C23      1.0000 0.57790  0.23580  0.76920  Biso   1.000  C
  C24      1.0000 0.21270  0.08580  0.68300  Biso   1.000  C
  C25      1.0000 0.29170  0.96360  0.73910  Biso   1.000  C
  C26      1.0000 0.75180  0.58650  0.25080  Biso   1.000  C
  C27      1.0000 0.71920  0.64310  0.28020  Biso   1.000  C
  C28      1.0000 0.79230  0.70690  0.27390  Biso   1.000  C
  C29      1.0000 0.89560  0.71670  0.23770  Biso   1.000  C
  C30      1.0000 0.92740  0.66030  0.20820  Biso   1.000  C
  C31      1.0000 0.85580  0.59570  0.21500  Biso   1.000  C
  C32      1.0000 0.68310  0.51490  0.26020  Biso   1.000  C
  C33      1.0000 0.59890  0.63760  0.31220  Biso   1.000  C
  C34      1.0000 0.96420  0.78780  0.22890  Biso   1.000  C
  C35      1.0000 0.04490  0.66580  0.17340  Biso   1.000  C
  C36      1.0000 0.87320  0.50150  0.99630  Biso   1.000  C
  C37      1.0000 0.92200  0.47640  0.04650  Biso   1.000  C
  C38      1.0000 0.95080  0.52460  0.95050  Biso   1.000  C
  C39      1.0000 0.73890  0.50820  0.99020  Biso   1.000  C
  C40      1.0000 0.84160  0.44710  0.09580  Biso   1.000  C
  C41      1.0000 0.96320  0.39150  0.29110  Biso   1.000  C
  C42      1.0000 0.99140  0.33590  0.25970  Biso   1.000  C
  C43      1.0000 0.09170  0.34530  0.22200  Biso   1.000  C
  C44      1.0000 0.16680  0.40890  0.21590  Biso   1.000  C
  C45      1.0000 0.13890  0.46530  0.24710  Biso   1.000  C
  C46      1.0000 0.03650  0.45560  0.28430  Biso   1.000  C
  C47      1.0000 0.84950  0.38820  0.32880  Biso   1.000  C
  C48      1.0000 0.92210  0.26420  0.26920  Biso   1.000  C
  C49      1.0000 0.28730  0.41420  0.18300  Biso   1.000  C
  C50      1.0000 0.20830  0.53640  0.23910  Biso   1.000  C
  C51      1.0000 0.25180  0.08650  0.24920  Biso   1.000  C
  C52      1.0000 0.21920  0.14310  0.21980  Biso   1.000  C
  C53      1.0000 0.29230  0.20690  0.22610  Biso   1.000  C
  C54      1.0000 0.39560  0.21670  0.26230  Biso   1.000  C
  C55      1.0000 0.42740  0.16030  0.29180  Biso   1.000  C
  C56      1.0000 0.35580  0.09570  0.28500  Biso   1.000  C
  C57      1.0000 0.18310  0.01490  0.23980  Biso   1.000  C
  C58      1.0000 0.09890  0.13760  0.18780  Biso   1.000  C
  C59      1.0000 0.46420  0.28780  0.27110  Biso   1.000  C
  C60      1.0000 0.54490  0.16580  0.32660  Biso   1.000  C
  C61      1.0000 0.37320  0.00150  0.50370  Biso   1.000  C
  C62      1.0000 0.42200  0.97640  0.45350  Biso   1.000  C
  C63      1.0000 0.45080  0.02460  0.54950  Biso   1.000  C
  C64      1.0000 0.23890  0.00820  0.50980  Biso   1.000  C
  C65      1.0000 0.34160  0.94710  0.40420  Biso   1.000  C
  C66      1.0000 0.46320  0.89150  0.20890  Biso   1.000  C
  C67      1.0000 0.49140  0.83590  0.24030  Biso   1.000  C
  C68      1.0000 0.59170  0.84530  0.27800  Biso   1.000  C
  C69      1.0000 0.66680  0.90890  0.28410  Biso   1.000  C
  C70      1.0000 0.63890  0.96530  0.25290  Biso   1.000  C
  C71      1.0000 0.53650  0.95560  0.21570  Biso   1.000  C
  C72      1.0000 0.34950  0.88820  0.17120  Biso   1.000  C
  C73      1.0000 0.42210  0.76420  0.23080  Biso   1.000  C
  C74      1.0000 0.78730  0.91420  0.31700  Biso   1.000  C
  C75      1.0000 0.70830  0.03640  0.26090  Biso   1.000  C
  C76      1.0000 0.24820  0.41350  0.74920  Biso   1.000  C
  C77      1.0000 0.28080  0.35690  0.71980  Biso   1.000  C
  C78      1.0000 0.20770  0.29310  0.72610  Biso   1.000  C
  C79      1.0000 0.10440  0.28330  0.76230  Biso   1.000  C
  C80      1.0000 0.07260  0.33970  0.79180  Biso   1.000  C
  C81      1.0000 0.14420  0.40430  0.78500  Biso   1.000  C
  C82      1.0000 0.31690  0.48510  0.73980  Biso   1.000  C
  C83      1.0000 0.40110  0.36240  0.68780  Biso   1.000  C
  C84      1.0000 0.03580  0.21220  0.77110  Biso   1.000  C
  C85      1.0000 0.95510  0.33420  0.82660  Biso   1.000  C
  C86      1.0000 0.12680  0.49850  0.00370  Biso   1.000  C
  C87      1.0000 0.07800  0.52360  0.95350  Biso   1.000  C
  C88      1.0000 0.04920  0.47540  0.04950  Biso   1.000  C
  C89      1.0000 0.26110  0.49180  0.00980  Biso   1.000  C
  C90      1.0000 0.15840  0.55290  0.90420  Biso   1.000  C
  C91      1.0000 0.03680  0.60850  0.70890  Biso   1.000  C
  C92      1.0000 0.00860  0.66410  0.74030  Biso   1.000  C
  C93      1.0000 0.90830  0.65470  0.77800  Biso   1.000  C
  C94      1.0000 0.83320  0.59110  0.78410  Biso   1.000  C
  C95      1.0000 0.86110  0.53470  0.75290  Biso   1.000  C
  C96      1.0000 0.96350  0.54440  0.71570  Biso   1.000  C
  C97      1.0000 0.15050  0.61180  0.67120  Biso   1.000  C
  C98      1.0000 0.07790  0.73580  0.73080  Biso   1.000  C
  C99      1.0000 0.71270  0.58580  0.81700  Biso   1.000  C
  C100     1.0000 0.79170  0.46360  0.76090  Biso   1.000  C
  O1       1.0000 0.85380  0.02087  0.71738  Biso   1.000  O
  O2       1.0000 0.82750  0.00496  0.81243  Biso   1.000  O
  O3       1.0000 0.99450  0.90131  0.79128  Biso   1.000  O
  O4       1.0000 0.90910  0.82610  0.85591  Biso   1.000  O
  O5       1.0000 0.52710  0.67187  0.77101  Biso   1.000  O
  O6       1.0000 0.49430  0.69592  0.67878  Biso   1.000  O
  O7       1.0000 0.35610  0.81994  0.70242  Biso   1.000  O
  O8       1.0000 0.46220  0.84820  0.62111  Biso   1.000  O
  O9       1.0000 0.83000  0.03770  0.46051  Biso   1.000  O
  O10      1.0000 0.79800  0.94110  0.51187  Biso   1.000  O
  O11      1.0000 0.77410  0.05900  0.59020  Biso   1.000  O
  O12      1.0000 0.60520  0.07040  0.63940  Biso   1.000  O
  O13      1.0000 0.75270  0.13188  0.80397  Biso   1.000  O
  O14      1.0000 0.63860  0.09160  0.87930  Biso   1.000  O
  O15      1.0000 0.61440  0.25179  0.82004  Biso   1.000  O
  O16      1.0000 0.59060  0.27667  0.72767  Biso   1.000  O
  O17      1.0000 0.20490  0.12140  0.63868  Biso   1.000  O
  O18      1.0000 0.11870  0.04757  0.70447  Biso   1.000  O
  O19      1.0000 0.26020  0.92823  0.78346  Biso   1.000  O
  O20      1.0000 0.27540  0.94280  0.68756  Biso   1.000  O
  O21      1.0000 0.97650  0.98122  0.60304  Biso   1.000  O
  O22      1.0000 0.01520  0.11120  0.53975  Biso   1.000  O
  O23      1.0000 0.98020  0.22190  0.60950  Biso   1.000  O
  O24      1.0000 0.78020  0.15320  0.68752  Biso   1.000  O
  O25      1.0000 0.33950  0.80320  0.82220  Biso   1.000  O
  O26      1.0000 0.12840  0.73150  0.89150  Biso   1.000  O
  O27      1.0000 0.08110  0.83800  0.96000  Biso   1.000  O
  O28      1.0000 0.33070  0.89790  0.91750  Biso   1.000  O
  O29      1.0000 0.10850  0.96300  0.89520  Biso   1.000  O
  O30      1.0000 0.07250  0.06636  0.81968  Biso   1.000  O
  O31      1.0000 0.89430  0.09070  0.91860  Biso   1.000  O
  O32      1.0000 0.23140  0.84840  0.58290  Biso   1.000  O
  O33      1.0000 0.02940  0.87833  0.67821  Biso   1.000  O
  O34      1.0000 0.64620  0.47913  0.21738  Biso   1.000  O
  O35      1.0000 0.67250  0.49504  0.31243  Biso   1.000  O
  O36      1.0000 0.50550  0.59869  0.29128  Biso   1.000  O
  O37      1.0000 0.59090  0.67390  0.35591  Biso   1.000  O
  O38      1.0000 0.97290  0.82813  0.27101  Biso   1.000  O
  O39      1.0000 0.00570  0.80408  0.17878  Biso   1.000  O
  O40      1.0000 0.14390  0.68006  0.20242  Biso   1.000  O
  O41      1.0000 0.03780  0.65180  0.12111  Biso   1.000  O
  O42      1.0000 0.67000  0.46230  0.96051  Biso   1.000  O
  O43      1.0000 0.70200  0.55890  0.01187  Biso   1.000  O
  O44      1.0000 0.72590  0.44100  0.09020  Biso   1.000  O
  O45      1.0000 0.89480  0.42960  0.13940  Biso   1.000  O
  O46      1.0000 0.74730  0.36812  0.30397  Biso   1.000  O
  O47      1.0000 0.86140  0.40840  0.37930  Biso   1.000  O
  O48      1.0000 0.88560  0.24821  0.32004  Biso   1.000  O
  O49      1.0000 0.90940  0.22333  0.22767  Biso   1.000  O
  O50      1.0000 0.29510  0.37860  0.13868  Biso   1.000  O
  O51      1.0000 0.38130  0.45243  0.20447  Biso   1.000  O
  O52      1.0000 0.23980  0.57177  0.28346  Biso   1.000  O
  O53      1.0000 0.22460  0.55720  0.18756  Biso   1.000  O
  O54      1.0000 0.52350  0.51878  0.10304  Biso   1.000  O
  O55      1.0000 0.48480  0.38880  0.03975  Biso   1.000  O
  O56      1.0000 0.51980  0.27810  0.10950  Biso   1.000  O
  O57      1.0000 0.71980  0.34680  0.18752  Biso   1.000  O
  O58      1.0000 0.16050  0.69680  0.32220  Biso   1.000  O
  O59      1.0000 0.37160  0.76850  0.39150  Biso   1.000  O
  O60      1.0000 0.41890  0.66200  0.46000  Biso   1.000  O
  O61      1.0000 0.16930  0.60210  0.41750  Biso   1.000  O
  O62      1.0000 0.39150  0.53700  0.39520  Biso   1.000  O
  O63      1.0000 0.42750  0.43364  0.31968  Biso   1.000  O
  O64      1.0000 0.60570  0.40930  0.41860  Biso   1.000  O
  O65      1.0000 0.26860  0.65160  0.08290  Biso   1.000  O
  O66      1.0000 0.47060  0.62167  0.17821  Biso   1.000  O
  O67      1.0000 0.14620  0.97913  0.28262  Biso   1.000  O
  O68      1.0000 0.17250  0.99504  0.18757  Biso   1.000  O
  O69      1.0000 0.00550  0.09869  0.20872  Biso   1.000  O
  O70      1.0000 0.09090  0.17390  0.14409  Biso   1.000  O
  O71      1.0000 0.47290  0.32813  0.22899  Biso   1.000  O
  O72      1.0000 0.50570  0.30408  0.32122  Biso   1.000  O
  O73      1.0000 0.64390  0.18006  0.29758  Biso   1.000  O
  O74      1.0000 0.53780  0.15180  0.37889  Biso   1.000  O
  O75      1.0000 0.17000  0.96230  0.53949  Biso   1.000  O
  O76      1.0000 0.20200  0.05890  0.48813  Biso   1.000  O
  O77      1.0000 0.22590  0.94100  0.40980  Biso   1.000  O
  O78      1.0000 0.39480  0.92960  0.36060  Biso   1.000  O
  O79      1.0000 0.24730  0.86812  0.19603  Biso   1.000  O
  O80      1.0000 0.36140  0.90840  0.12070  Biso   1.000  O
  O81      1.0000 0.38560  0.74821  0.17996  Biso   1.000  O
  O82      1.0000 0.40940  0.72333  0.27233  Biso   1.000  O
  O83      1.0000 0.79510  0.87860  0.36132  Biso   1.000  O
  O84      1.0000 0.88130  0.95243  0.29553  Biso   1.000  O
  O85      1.0000 0.73980  0.07177  0.21654  Biso   1.000  O
  O86      1.0000 0.72460  0.05720  0.31244  Biso   1.000  O
  O87      1.0000 0.02350  0.01878  0.39696  Biso   1.000  O
  O88      1.0000 0.98480  0.88880  0.46025  Biso   1.000  O
  O89      1.0000 0.01980  0.77810  0.39050  Biso   1.000  O
  O90      1.0000 0.21980  0.84680  0.31248  Biso   1.000  O
  O91      1.0000 0.66050  0.19680  0.17780  Biso   1.000  O
  O92      1.0000 0.87160  0.26850  0.10850  Biso   1.000  O
  O93      1.0000 0.91890  0.16200  0.04000  Biso   1.000  O
  O94      1.0000 0.66930  0.10210  0.08250  Biso   1.000  O
  O95      1.0000 0.89150  0.03700  0.10480  Biso   1.000  O
  O96      1.0000 0.92750  0.93364  0.18032  Biso   1.000  O
  O97      1.0000 0.10570  0.90930  0.08140  Biso   1.000  O
  O98      1.0000 0.76860  0.15160  0.41710  Biso   1.000  O
  O99      1.0000 0.97060  0.12167  0.32179  Biso   1.000  O
  O100     1.0000 0.35380  0.52087  0.78262  Biso   1.000  O
  O101     1.0000 0.32750  0.50496  0.68757  Biso   1.000  O
  O102     1.0000 0.49450  0.40131  0.70872  Biso   1.000  O
  O103     1.0000 0.40910  0.32610  0.64409  Biso   1.000  O
  O104     1.0000 0.02710  0.17187  0.72899  Biso   1.000  O
  O105     1.0000 0.99430  0.19592  0.82122  Biso   1.000  O
  O106     1.0000 0.85610  0.31994  0.79758  Biso   1.000  O
  O107     1.0000 0.96220  0.34820  0.87889  Biso   1.000  O
  O108     1.0000 0.33000  0.53770  0.03949  Biso   1.000  O
  O109     1.0000 0.29800  0.44110  0.98813  Biso   1.000  O
  O110     1.0000 0.27410  0.55900  0.90980  Biso   1.000  O
  O111     1.0000 0.10520  0.57040  0.86060  Biso   1.000  O
  O112     1.0000 0.25270  0.63188  0.69603  Biso   1.000  O
  O113     1.0000 0.13860  0.59160  0.62070  Biso   1.000  O
  O114     1.0000 0.11440  0.75179  0.67996  Biso   1.000  O
  O115     1.0000 0.09060  0.77667  0.77233  Biso   1.000  O
  O116     1.0000 0.70490  0.62140  0.86132  Biso   1.000  O
  O117     1.0000 0.61870  0.54757  0.79553  Biso   1.000  O
  O118     1.0000 0.76020  0.42823  0.71654  Biso   1.000  O
  O119     1.0000 0.77540  0.44280  0.81244  Biso   1.000  O
  O120     1.0000 0.47650  0.48122  0.89696  Biso   1.000  O
  O121     1.0000 0.51520  0.61120  0.96025  Biso   1.000  O
  O122     1.0000 0.48020  0.72190  0.89050  Biso   1.000  O
  O123     1.0000 0.28020  0.65320  0.81248  Biso   1.000  O
  O124     1.0000 0.83950  0.30320  0.67780  Biso   1.000  O
  O125     1.0000 0.62840  0.23150  0.60850  Biso   1.000  O
  O126     1.0000 0.58110  0.33800  0.54000  Biso   1.000  O
  O127     1.0000 0.83070  0.39790  0.58250  Biso   1.000  O
  O128     1.0000 0.60850  0.46300  0.60480  Biso   1.000  O
  O129     1.0000 0.57250  0.56636  0.68032  Biso   1.000  O
  O130     1.0000 0.39430  0.59070  0.58140  Biso   1.000  O
  O131     1.0000 0.73140  0.34840  0.91710  Biso   1.000  O
  O132     1.0000 0.52940  0.37833  0.82179  Biso   1.000  O
