data_image0
_cell_length_a       18.668
_cell_length_b       18.668
_cell_length_c       34.825
_cell_angle_alpha    90
_cell_angle_beta     90
_cell_angle_gamma    90

_symmetry_space_group_name_H-M    "P 1"
_symmetry_int_tables_number       1

loop_
  _symmetry_equiv_pos_as_xyz
  'x, y, z'

loop_
  _atom_site_label
  _atom_site_occupancy
  _atom_site_fract_x
  _atom_site_fract_y
  _atom_site_fract_z
  _atom_site_thermal_displace_type
  _atom_site_B_iso_or_equiv
  _atom_site_type_symbol
  C1       1.0000 0.02330  0.43190  0.03360  Biso   1.000  C
  C2       1.0000 0.04750  0.36370  0.03360  Biso   1.000  C
  H1       1.0000 0.01500  0.45530  0.05670  Biso   1.000  H
  C3       1.0000 0.06090  0.32490  0.07210  Biso   1.000  C
  O1       1.0000 0.10600  0.27400  0.07150  Biso   1.000  O
  N1       1.0000 0.00800  0.32900  0.09710  Biso   1.000  N
  H2       1.0000 0.97300  0.35700  0.09100  Biso   1.000  H
  C4       1.0000 0.01350  0.31330  0.14120  Biso   1.000  C
  C5       1.0000 0.95000  0.30750  0.16050  Biso   1.000  C
  C6       1.0000 0.94920  0.28280  0.19740  Biso   1.000  C
  C7       1.0000 0.01180  0.26390  0.21510  Biso   1.000  C
  C8       1.0000 0.07530  0.26980  0.19580  Biso   1.000  C
  C9       1.0000 0.07610  0.29450  0.15880  Biso   1.000  C
  H3       1.0000 0.90740  0.32030  0.14850  Biso   1.000  H
  H4       1.0000 0.01120  0.24710  0.24020  Biso   1.000  H
  H5       1.0000 0.11930  0.29840  0.14570  Biso   1.000  H
  C10      1.0000 0.88340  0.27670  0.21740  Biso   1.000  C
  O2       1.0000 0.82280  0.29500  0.20410  Biso   1.000  O
  O3       1.0000 0.87650  0.25200  0.25120  Biso   1.000  O
  C11      1.0000 0.14010  0.25020  0.21410  Biso   1.000  C
  O4       1.0000 0.20220  0.26700  0.20240  Biso   1.000  O
  O5       1.0000 0.14500  0.21300  0.24450  Biso   1.000  O
  Cu1      1.0000 0.73790  0.29680  0.22230  Biso   1.000  Cu
  C12      1.0000 0.66410  0.39570  0.18770  Biso   1.000  C
  C13      1.0000 0.66930  0.33480  0.16890  Biso   1.000  C
  H6       1.0000 0.65990  0.44520  0.20290  Biso   1.000  H
  H7       1.0000 0.67360  0.28520  0.15360  Biso   1.000  H
  C14      1.0000 0.97670  0.56810  0.03360  Biso   1.000  C
  C15      1.0000 0.95250  0.63630  0.03360  Biso   1.000  C
  H8       1.0000 0.98500  0.54470  0.05670  Biso   1.000  H
  C16      1.0000 0.93910  0.67510  0.07210  Biso   1.000  C
  O6       1.0000 0.89400  0.72600  0.07150  Biso   1.000  O
  N2       1.0000 0.99200  0.67100  0.09710  Biso   1.000  N
  H9       1.0000 0.02700  0.64300  0.09100  Biso   1.000  H
  C17      1.0000 0.98650  0.68670  0.14120  Biso   1.000  C
  C18      1.0000 0.05000  0.69250  0.16050  Biso   1.000  C
  C19      1.0000 0.05080  0.71720  0.19740  Biso   1.000  C
  C20      1.0000 0.98820  0.73610  0.21510  Biso   1.000  C
  C21      1.0000 0.92470  0.73020  0.19580  Biso   1.000  C
  C22      1.0000 0.92390  0.70550  0.15880  Biso   1.000  C
  H10      1.0000 0.09260  0.67970  0.14850  Biso   1.000  H
  H11      1.0000 0.98880  0.75290  0.24020  Biso   1.000  H
  H12      1.0000 0.88070  0.70160  0.14570  Biso   1.000  H
  C23      1.0000 0.11660  0.72330  0.21740  Biso   1.000  C
  O7       1.0000 0.17720  0.70500  0.20410  Biso   1.000  O
  O8       1.0000 0.12350  0.74800  0.25120  Biso   1.000  O
  C24      1.0000 0.85990  0.74980  0.21410  Biso   1.000  C
  O9       1.0000 0.79780  0.73300  0.20240  Biso   1.000  O
  O10      1.0000 0.85500  0.78700  0.24450  Biso   1.000  O
  Cu2      1.0000 0.26210  0.70320  0.22230  Biso   1.000  Cu
  C25      1.0000 0.33590  0.60430  0.18770  Biso   1.000  C
  C26      1.0000 0.33070  0.66520  0.16890  Biso   1.000  C
  H13      1.0000 0.34010  0.55480  0.20290  Biso   1.000  H
  H14      1.0000 0.32640  0.71480  0.15360  Biso   1.000  H
  C27      1.0000 0.56810  0.02330  0.03360  Biso   1.000  C
  C28      1.0000 0.63630  0.04750  0.03360  Biso   1.000  C
  H15      1.0000 0.54470  0.01500  0.05670  Biso   1.000  H
  C29      1.0000 0.67510  0.06090  0.07210  Biso   1.000  C
  O11      1.0000 0.72600  0.10600  0.07150  Biso   1.000  O
  N3       1.0000 0.67100  0.00800  0.09710  Biso   1.000  N
  H16      1.0000 0.64300  0.97300  0.09100  Biso   1.000  H
  C30      1.0000 0.68670  0.01350  0.14120  Biso   1.000  C
  C31      1.0000 0.69250  0.95000  0.16050  Biso   1.000  C
  C32      1.0000 0.71720  0.94920  0.19740  Biso   1.000  C
  C33      1.0000 0.73610  0.01180  0.21510  Biso   1.000  C
  C34      1.0000 0.73020  0.07530  0.19580  Biso   1.000  C
  C35      1.0000 0.70550  0.07610  0.15880  Biso   1.000  C
  H17      1.0000 0.67970  0.90740  0.14850  Biso   1.000  H
  H18      1.0000 0.75290  0.01120  0.24020  Biso   1.000  H
  H19      1.0000 0.70160  0.11930  0.14570  Biso   1.000  H
  C36      1.0000 0.72330  0.88340  0.21740  Biso   1.000  C
  O12      1.0000 0.70500  0.82280  0.20410  Biso   1.000  O
  O13      1.0000 0.74800  0.87650  0.25120  Biso   1.000  O
  C37      1.0000 0.74980  0.14010  0.21410  Biso   1.000  C
  O14      1.0000 0.73300  0.20220  0.20240  Biso   1.000  O
  O15      1.0000 0.78700  0.14500  0.24450  Biso   1.000  O
  Cu3      1.0000 0.70320  0.73790  0.22230  Biso   1.000  Cu
  C38      1.0000 0.60430  0.66410  0.18770  Biso   1.000  C
  C39      1.0000 0.66520  0.66930  0.16890  Biso   1.000  C
  H20      1.0000 0.55480  0.65990  0.20290  Biso   1.000  H
  H21      1.0000 0.71480  0.67360  0.15360  Biso   1.000  H
  C40      1.0000 0.43190  0.97670  0.03360  Biso   1.000  C
  C41      1.0000 0.36370  0.95250  0.03360  Biso   1.000  C
  H22      1.0000 0.45530  0.98500  0.05670  Biso   1.000  H
  C42      1.0000 0.32490  0.93910  0.07210  Biso   1.000  C
  O16      1.0000 0.27400  0.89400  0.07150  Biso   1.000  O
  N4       1.0000 0.32900  0.99200  0.09710  Biso   1.000  N
  H23      1.0000 0.35700  0.02700  0.09100  Biso   1.000  H
  C43      1.0000 0.31330  0.98650  0.14120  Biso   1.000  C
  C44      1.0000 0.30750  0.05000  0.16050  Biso   1.000  C
  C45      1.0000 0.28280  0.05080  0.19740  Biso   1.000  C
  C46      1.0000 0.26390  0.98820  0.21510  Biso   1.000  C
  C47      1.0000 0.26980  0.92470  0.19580  Biso   1.000  C
  C48      1.0000 0.29450  0.92390  0.15880  Biso   1.000  C
  H24      1.0000 0.32030  0.09260  0.14850  Biso   1.000  H
  H25      1.0000 0.24710  0.98880  0.24020  Biso   1.000  H
  H26      1.0000 0.29840  0.88070  0.14570  Biso   1.000  H
  C49      1.0000 0.27670  0.11660  0.21740  Biso   1.000  C
  O17      1.0000 0.29500  0.17720  0.20410  Biso   1.000  O
  O18      1.0000 0.25200  0.12350  0.25120  Biso   1.000  O
  C50      1.0000 0.25020  0.85990  0.21410  Biso   1.000  C
  O19      1.0000 0.26700  0.79780  0.20240  Biso   1.000  O
  O20      1.0000 0.21300  0.85500  0.24450  Biso   1.000  O
  Cu4      1.0000 0.29680  0.26210  0.22230  Biso   1.000  Cu
  C51      1.0000 0.39570  0.33590  0.18770  Biso   1.000  C
  C52      1.0000 0.33480  0.33070  0.16890  Biso   1.000  C
  H27      1.0000 0.44520  0.34010  0.20290  Biso   1.000  H
  H28      1.0000 0.28520  0.32640  0.15360  Biso   1.000  H
  C53      1.0000 0.47670  0.93190  0.46640  Biso   1.000  C
  C54      1.0000 0.45250  0.86370  0.46640  Biso   1.000  C
  H29      1.0000 0.48500  0.95530  0.44330  Biso   1.000  H
  C55      1.0000 0.43910  0.82490  0.42790  Biso   1.000  C
  O21      1.0000 0.39400  0.77400  0.42850  Biso   1.000  O
  N5       1.0000 0.49200  0.82900  0.40290  Biso   1.000  N
  H30      1.0000 0.52700  0.85700  0.40900  Biso   1.000  H
  C56      1.0000 0.48650  0.81330  0.35880  Biso   1.000  C
  C57      1.0000 0.55000  0.80750  0.33950  Biso   1.000  C
  C58      1.0000 0.55080  0.78280  0.30260  Biso   1.000  C
  C59      1.0000 0.48820  0.76390  0.28490  Biso   1.000  C
  C60      1.0000 0.42470  0.76980  0.30420  Biso   1.000  C
  C61      1.0000 0.42390  0.79450  0.34120  Biso   1.000  C
  H31      1.0000 0.59260  0.82030  0.35150  Biso   1.000  H
  H32      1.0000 0.48880  0.74710  0.25980  Biso   1.000  H
  H33      1.0000 0.38070  0.79840  0.35430  Biso   1.000  H
  C62      1.0000 0.61660  0.77670  0.28260  Biso   1.000  C
  O22      1.0000 0.67720  0.79500  0.29590  Biso   1.000  O
  O23      1.0000 0.62350  0.75200  0.24880  Biso   1.000  O
  C63      1.0000 0.35990  0.75020  0.28590  Biso   1.000  C
  O24      1.0000 0.29780  0.76700  0.29760  Biso   1.000  O
  O25      1.0000 0.35500  0.71300  0.25550  Biso   1.000  O
  Cu5      1.0000 0.76210  0.79680  0.27770  Biso   1.000  Cu
  C64      1.0000 0.83590  0.89570  0.31230  Biso   1.000  C
  C65      1.0000 0.83070  0.83480  0.33110  Biso   1.000  C
  H34      1.0000 0.84010  0.94520  0.29710  Biso   1.000  H
  H35      1.0000 0.82640  0.78520  0.34640  Biso   1.000  H
  C66      1.0000 0.52330  0.06810  0.46640  Biso   1.000  C
  C67      1.0000 0.54750  0.13630  0.46640  Biso   1.000  C
  H36      1.0000 0.51500  0.04470  0.44330  Biso   1.000  H
  C68      1.0000 0.56090  0.17510  0.42790  Biso   1.000  C
  O26      1.0000 0.60600  0.22600  0.42850  Biso   1.000  O
  N6       1.0000 0.50800  0.17100  0.40290  Biso   1.000  N
  H37      1.0000 0.47300  0.14300  0.40900  Biso   1.000  H
  C69      1.0000 0.51350  0.18670  0.35880  Biso   1.000  C
  C70      1.0000 0.45000  0.19250  0.33950  Biso   1.000  C
  C71      1.0000 0.44920  0.21720  0.30260  Biso   1.000  C
  C72      1.0000 0.51180  0.23610  0.28490  Biso   1.000  C
  C73      1.0000 0.57530  0.23020  0.30420  Biso   1.000  C
  C74      1.0000 0.57610  0.20550  0.34120  Biso   1.000  C
  H38      1.0000 0.40740  0.17970  0.35150  Biso   1.000  H
  H39      1.0000 0.51120  0.25290  0.25980  Biso   1.000  H
  H40      1.0000 0.61930  0.20160  0.35430  Biso   1.000  H
  C75      1.0000 0.38340  0.22330  0.28260  Biso   1.000  C
  O27      1.0000 0.32280  0.20500  0.29590  Biso   1.000  O
  O28      1.0000 0.37650  0.24800  0.24880  Biso   1.000  O
  C76      1.0000 0.64010  0.24980  0.28590  Biso   1.000  C
  O29      1.0000 0.70220  0.23300  0.29760  Biso   1.000  O
  O30      1.0000 0.64500  0.28700  0.25550  Biso   1.000  O
  Cu6      1.0000 0.23790  0.20320  0.27770  Biso   1.000  Cu
  C77      1.0000 0.16410  0.10430  0.31230  Biso   1.000  C
  C78      1.0000 0.16930  0.16520  0.33110  Biso   1.000  C
  H41      1.0000 0.15990  0.05480  0.29710  Biso   1.000  H
  H42      1.0000 0.17360  0.21480  0.34640  Biso   1.000  H
  C79      1.0000 0.93190  0.52330  0.46640  Biso   1.000  C
  C80      1.0000 0.86370  0.54750  0.46640  Biso   1.000  C
  H43      1.0000 0.95530  0.51500  0.44330  Biso   1.000  H
  C81      1.0000 0.82490  0.56090  0.42790  Biso   1.000  C
  O31      1.0000 0.77400  0.60600  0.42850  Biso   1.000  O
  N7       1.0000 0.82900  0.50800  0.40290  Biso   1.000  N
  H44      1.0000 0.85700  0.47300  0.40900  Biso   1.000  H
  C82      1.0000 0.81330  0.51350  0.35880  Biso   1.000  C
  C83      1.0000 0.80750  0.45000  0.33950  Biso   1.000  C
  C84      1.0000 0.78280  0.44920  0.30260  Biso   1.000  C
  C85      1.0000 0.76390  0.51180  0.28490  Biso   1.000  C
  C86      1.0000 0.76980  0.57530  0.30420  Biso   1.000  C
  C87      1.0000 0.79450  0.57610  0.34120  Biso   1.000  C
  H45      1.0000 0.82030  0.40740  0.35150  Biso   1.000  H
  H46      1.0000 0.74710  0.51120  0.25980  Biso   1.000  H
  H47      1.0000 0.79840  0.61930  0.35430  Biso   1.000  H
  C88      1.0000 0.77670  0.38340  0.28260  Biso   1.000  C
  O32      1.0000 0.79500  0.32280  0.29590  Biso   1.000  O
  O33      1.0000 0.75200  0.37650  0.24880  Biso   1.000  O
  C89      1.0000 0.75020  0.64010  0.28590  Biso   1.000  C
  O34      1.0000 0.76700  0.70220  0.29760  Biso   1.000  O
  O35      1.0000 0.71300  0.64500  0.25550  Biso   1.000  O
  Cu7      1.0000 0.79680  0.23790  0.27770  Biso   1.000  Cu
  C90      1.0000 0.89570  0.16410  0.31230  Biso   1.000  C
  C91      1.0000 0.83480  0.16930  0.33110  Biso   1.000  C
  H48      1.0000 0.94520  0.15990  0.29710  Biso   1.000  H
  H49      1.0000 0.78520  0.17360  0.34640  Biso   1.000  H
  C92      1.0000 0.06810  0.47670  0.46640  Biso   1.000  C
  C93      1.0000 0.13630  0.45250  0.46640  Biso   1.000  C
  H50      1.0000 0.04470  0.48500  0.44330  Biso   1.000  H
  C94      1.0000 0.17510  0.43910  0.42790  Biso   1.000  C
  O36      1.0000 0.22600  0.39400  0.42850  Biso   1.000  O
  N8       1.0000 0.17100  0.49200  0.40290  Biso   1.000  N
  H51      1.0000 0.14300  0.52700  0.40900  Biso   1.000  H
  C95      1.0000 0.18670  0.48650  0.35880  Biso   1.000  C
  C96      1.0000 0.19250  0.55000  0.33950  Biso   1.000  C
  C97      1.0000 0.21720  0.55080  0.30260  Biso   1.000  C
  C98      1.0000 0.23610  0.48820  0.28490  Biso   1.000  C
  C99      1.0000 0.23020  0.42470  0.30420  Biso   1.000  C
  C100     1.0000 0.20550  0.42390  0.34120  Biso   1.000  C
  H52      1.0000 0.17970  0.59260  0.35150  Biso   1.000  H
  H53      1.0000 0.25290  0.48880  0.25980  Biso   1.000  H
  H54      1.0000 0.20160  0.38070  0.35430  Biso   1.000  H
  C101     1.0000 0.22330  0.61660  0.28260  Biso   1.000  C
  O37      1.0000 0.20500  0.67720  0.29590  Biso   1.000  O
  O38      1.0000 0.24800  0.62350  0.24880  Biso   1.000  O
  C102     1.0000 0.24980  0.35990  0.28590  Biso   1.000  C
  O39      1.0000 0.23300  0.29780  0.29760  Biso   1.000  O
  O40      1.0000 0.28700  0.35500  0.25550  Biso   1.000  O
  Cu8      1.0000 0.20320  0.76210  0.27770  Biso   1.000  Cu
  C103     1.0000 0.10430  0.83590  0.31230  Biso   1.000  C
  C104     1.0000 0.16520  0.83070  0.33110  Biso   1.000  C
  H55      1.0000 0.05480  0.84010  0.29710  Biso   1.000  H
  H56      1.0000 0.21480  0.82640  0.34640  Biso   1.000  H
  C105     1.0000 0.97670  0.56810  0.96640  Biso   1.000  C
  C106     1.0000 0.95250  0.63630  0.96640  Biso   1.000  C
  H57      1.0000 0.98500  0.54470  0.94330  Biso   1.000  H
  C107     1.0000 0.93910  0.67510  0.92790  Biso   1.000  C
  O41      1.0000 0.89400  0.72600  0.92850  Biso   1.000  O
  N9       1.0000 0.99200  0.67100  0.90290  Biso   1.000  N
  H58      1.0000 0.02700  0.64300  0.90900  Biso   1.000  H
  C108     1.0000 0.98650  0.68670  0.85880  Biso   1.000  C
  C109     1.0000 0.05000  0.69250  0.83950  Biso   1.000  C
  C110     1.0000 0.05080  0.71720  0.80260  Biso   1.000  C
  C111     1.0000 0.98820  0.73610  0.78490  Biso   1.000  C
  C112     1.0000 0.92470  0.73020  0.80420  Biso   1.000  C
  C113     1.0000 0.92390  0.70550  0.84120  Biso   1.000  C
  H59      1.0000 0.09260  0.67970  0.85150  Biso   1.000  H
  H60      1.0000 0.98880  0.75290  0.75980  Biso   1.000  H
  H61      1.0000 0.88070  0.70160  0.85430  Biso   1.000  H
  C114     1.0000 0.11660  0.72330  0.78260  Biso   1.000  C
  O42      1.0000 0.17720  0.70500  0.79590  Biso   1.000  O
  O43      1.0000 0.12350  0.74800  0.74880  Biso   1.000  O
  C115     1.0000 0.85990  0.74980  0.78590  Biso   1.000  C
  O44      1.0000 0.79780  0.73300  0.79760  Biso   1.000  O
  O45      1.0000 0.85500  0.78700  0.75550  Biso   1.000  O
  Cu9      1.0000 0.26210  0.70320  0.77770  Biso   1.000  Cu
  C116     1.0000 0.33590  0.60430  0.81230  Biso   1.000  C
  C117     1.0000 0.33070  0.66520  0.83110  Biso   1.000  C
  H62      1.0000 0.34010  0.55480  0.79710  Biso   1.000  H
  H63      1.0000 0.32640  0.71480  0.84640  Biso   1.000  H
  C118     1.0000 0.02330  0.43190  0.96640  Biso   1.000  C
  C119     1.0000 0.04750  0.36370  0.96640  Biso   1.000  C
  H64      1.0000 0.01500  0.45530  0.94330  Biso   1.000  H
  C120     1.0000 0.06090  0.32490  0.92790  Biso   1.000  C
  O46      1.0000 0.10600  0.27400  0.92850  Biso   1.000  O
  N10      1.0000 0.00800  0.32900  0.90290  Biso   1.000  N
  H65      1.0000 0.97300  0.35700  0.90900  Biso   1.000  H
  C121     1.0000 0.01350  0.31330  0.85880  Biso   1.000  C
  C122     1.0000 0.95000  0.30750  0.83950  Biso   1.000  C
  C123     1.0000 0.94920  0.28280  0.80260  Biso   1.000  C
  C124     1.0000 0.01180  0.26390  0.78490  Biso   1.000  C
  C125     1.0000 0.07530  0.26980  0.80420  Biso   1.000  C
  C126     1.0000 0.07610  0.29450  0.84120  Biso   1.000  C
  H66      1.0000 0.90740  0.32030  0.85150  Biso   1.000  H
  H67      1.0000 0.01120  0.24710  0.75980  Biso   1.000  H
  H68      1.0000 0.11930  0.29840  0.85430  Biso   1.000  H
  C127     1.0000 0.88340  0.27670  0.78260  Biso   1.000  C
  O47      1.0000 0.82280  0.29500  0.79590  Biso   1.000  O
  O48      1.0000 0.87650  0.25200  0.74880  Biso   1.000  O
  C128     1.0000 0.14010  0.25020  0.78590  Biso   1.000  C
  O49      1.0000 0.20220  0.26700  0.79760  Biso   1.000  O
  O50      1.0000 0.14500  0.21300  0.75550  Biso   1.000  O
  Cu10     1.0000 0.73790  0.29680  0.77770  Biso   1.000  Cu
  C129     1.0000 0.66410  0.39570  0.81230  Biso   1.000  C
  C130     1.0000 0.66930  0.33480  0.83110  Biso   1.000  C
  H69      1.0000 0.65990  0.44520  0.79710  Biso   1.000  H
  H70      1.0000 0.67360  0.28520  0.84640  Biso   1.000  H
  C131     1.0000 0.43190  0.97670  0.96640  Biso   1.000  C
  C132     1.0000 0.36370  0.95250  0.96640  Biso   1.000  C
  H71      1.0000 0.45530  0.98500  0.94330  Biso   1.000  H
  C133     1.0000 0.32490  0.93910  0.92790  Biso   1.000  C
  O51      1.0000 0.27400  0.89400  0.92850  Biso   1.000  O
  N11      1.0000 0.32900  0.99200  0.90290  Biso   1.000  N
  H72      1.0000 0.35700  0.02700  0.90900  Biso   1.000  H
  C134     1.0000 0.31330  0.98650  0.85880  Biso   1.000  C
  C135     1.0000 0.30750  0.05000  0.83950  Biso   1.000  C
  C136     1.0000 0.28280  0.05080  0.80260  Biso   1.000  C
  C137     1.0000 0.26390  0.98820  0.78490  Biso   1.000  C
  C138     1.0000 0.26980  0.92470  0.80420  Biso   1.000  C
  C139     1.0000 0.29450  0.92390  0.84120  Biso   1.000  C
  H73      1.0000 0.32030  0.09260  0.85150  Biso   1.000  H
  H74      1.0000 0.24710  0.98880  0.75980  Biso   1.000  H
  H75      1.0000 0.29840  0.88070  0.85430  Biso   1.000  H
  C140     1.0000 0.27670  0.11660  0.78260  Biso   1.000  C
  O52      1.0000 0.29500  0.17720  0.79590  Biso   1.000  O
  O53      1.0000 0.25200  0.12350  0.74880  Biso   1.000  O
  C141     1.0000 0.25020  0.85990  0.78590  Biso   1.000  C
  O54      1.0000 0.26700  0.79780  0.79760  Biso   1.000  O
  O55      1.0000 0.21300  0.85500  0.75550  Biso   1.000  O
  Cu11     1.0000 0.29680  0.26210  0.77770  Biso   1.000  Cu
  C142     1.0000 0.39570  0.33590  0.81230  Biso   1.000  C
  C143     1.0000 0.33480  0.33070  0.83110  Biso   1.000  C
  H76      1.0000 0.44520  0.34010  0.79710  Biso   1.000  H
  H77      1.0000 0.28520  0.32640  0.84640  Biso   1.000  H
  C144     1.0000 0.56810  0.02330  0.96640  Biso   1.000  C
  C145     1.0000 0.63630  0.04750  0.96640  Biso   1.000  C
  H78      1.0000 0.54470  0.01500  0.94330  Biso   1.000  H
  C146     1.0000 0.67510  0.06090  0.92790  Biso   1.000  C
  O56      1.0000 0.72600  0.10600  0.92850  Biso   1.000  O
  N12      1.0000 0.67100  0.00800  0.90290  Biso   1.000  N
  H79      1.0000 0.64300  0.97300  0.90900  Biso   1.000  H
  C147     1.0000 0.68670  0.01350  0.85880  Biso   1.000  C
  C148     1.0000 0.69250  0.95000  0.83950  Biso   1.000  C
  C149     1.0000 0.71720  0.94920  0.80260  Biso   1.000  C
  C150     1.0000 0.73610  0.01180  0.78490  Biso   1.000  C
  C151     1.0000 0.73020  0.07530  0.80420  Biso   1.000  C
  C152     1.0000 0.70550  0.07610  0.84120  Biso   1.000  C
  H80      1.0000 0.67970  0.90740  0.85150  Biso   1.000  H
  H81      1.0000 0.75290  0.01120  0.75980  Biso   1.000  H
  H82      1.0000 0.70160  0.11930  0.85430  Biso   1.000  H
  C153     1.0000 0.72330  0.88340  0.78260  Biso   1.000  C
  O57      1.0000 0.70500  0.82280  0.79590  Biso   1.000  O
  O58      1.0000 0.74800  0.87650  0.74880  Biso   1.000  O
  C154     1.0000 0.74980  0.14010  0.78590  Biso   1.000  C
  O59      1.0000 0.73300  0.20220  0.79760  Biso   1.000  O
  O60      1.0000 0.78700  0.14500  0.75550  Biso   1.000  O
  Cu12     1.0000 0.70320  0.73790  0.77770  Biso   1.000  Cu
  C155     1.0000 0.60430  0.66410  0.81230  Biso   1.000  C
  C156     1.0000 0.66520  0.66930  0.83110  Biso   1.000  C
  H83      1.0000 0.55480  0.65990  0.79710  Biso   1.000  H
  H84      1.0000 0.71480  0.67360  0.84640  Biso   1.000  H
  C157     1.0000 0.52330  0.06810  0.53360  Biso   1.000  C
  C158     1.0000 0.54750  0.13630  0.53360  Biso   1.000  C
  H85      1.0000 0.51500  0.04470  0.55670  Biso   1.000  H
  C159     1.0000 0.56090  0.17510  0.57210  Biso   1.000  C
  O61      1.0000 0.60600  0.22600  0.57150  Biso   1.000  O
  N13      1.0000 0.50800  0.17100  0.59710  Biso   1.000  N
  H86      1.0000 0.47300  0.14300  0.59100  Biso   1.000  H
  C160     1.0000 0.51350  0.18670  0.64120  Biso   1.000  C
  C161     1.0000 0.45000  0.19250  0.66050  Biso   1.000  C
  C162     1.0000 0.44920  0.21720  0.69740  Biso   1.000  C
  C163     1.0000 0.51180  0.23610  0.71510  Biso   1.000  C
  C164     1.0000 0.57530  0.23020  0.69580  Biso   1.000  C
  C165     1.0000 0.57610  0.20550  0.65880  Biso   1.000  C
  H87      1.0000 0.40740  0.17970  0.64850  Biso   1.000  H
  H88      1.0000 0.51120  0.25290  0.74020  Biso   1.000  H
  H89      1.0000 0.61930  0.20160  0.64570  Biso   1.000  H
  C166     1.0000 0.38340  0.22330  0.71740  Biso   1.000  C
  O62      1.0000 0.32280  0.20500  0.70410  Biso   1.000  O
  O63      1.0000 0.37650  0.24800  0.75120  Biso   1.000  O
  C167     1.0000 0.64010  0.24980  0.71410  Biso   1.000  C
  O64      1.0000 0.70220  0.23300  0.70240  Biso   1.000  O
  O65      1.0000 0.64500  0.28700  0.74450  Biso   1.000  O
  Cu13     1.0000 0.23790  0.20320  0.72230  Biso   1.000  Cu
  C168     1.0000 0.16410  0.10430  0.68770  Biso   1.000  C
  C169     1.0000 0.16930  0.16520  0.66890  Biso   1.000  C
  H90      1.0000 0.15990  0.05480  0.70290  Biso   1.000  H
  H91      1.0000 0.17360  0.21480  0.65360  Biso   1.000  H
  C170     1.0000 0.47670  0.93190  0.53360  Biso   1.000  C
  C171     1.0000 0.45250  0.86370  0.53360  Biso   1.000  C
  H92      1.0000 0.48500  0.95530  0.55670  Biso   1.000  H
  C172     1.0000 0.43910  0.82490  0.57210  Biso   1.000  C
  O66      1.0000 0.39400  0.77400  0.57150  Biso   1.000  O
  N14      1.0000 0.49200  0.82900  0.59710  Biso   1.000  N
  H93      1.0000 0.52700  0.85700  0.59100  Biso   1.000  H
  C173     1.0000 0.48650  0.81330  0.64120  Biso   1.000  C
  C174     1.0000 0.55000  0.80750  0.66050  Biso   1.000  C
  C175     1.0000 0.55080  0.78280  0.69740  Biso   1.000  C
  C176     1.0000 0.48820  0.76390  0.71510  Biso   1.000  C
  C177     1.0000 0.42470  0.76980  0.69580  Biso   1.000  C
  C178     1.0000 0.42390  0.79450  0.65880  Biso   1.000  C
  H94      1.0000 0.59260  0.82030  0.64850  Biso   1.000  H
  H95      1.0000 0.48880  0.74710  0.74020  Biso   1.000  H
  H96      1.0000 0.38070  0.79840  0.64570  Biso   1.000  H
  C179     1.0000 0.61660  0.77670  0.71740  Biso   1.000  C
  O67      1.0000 0.67720  0.79500  0.70410  Biso   1.000  O
  O68      1.0000 0.62350  0.75200  0.75120  Biso   1.000  O
  C180     1.0000 0.35990  0.75020  0.71410  Biso   1.000  C
  O69      1.0000 0.29780  0.76700  0.70240  Biso   1.000  O
  O70      1.0000 0.35500  0.71300  0.74450  Biso   1.000  O
  Cu14     1.0000 0.76210  0.79680  0.72230  Biso   1.000  Cu
  C181     1.0000 0.83590  0.89570  0.68770  Biso   1.000  C
  C182     1.0000 0.83070  0.83480  0.66890  Biso   1.000  C
  H97      1.0000 0.84010  0.94520  0.70290  Biso   1.000  H
  H98      1.0000 0.82640  0.78520  0.65360  Biso   1.000  H
  C183     1.0000 0.06810  0.47670  0.53360  Biso   1.000  C
  C184     1.0000 0.13630  0.45250  0.53360  Biso   1.000  C
  H99      1.0000 0.04470  0.48500  0.55670  Biso   1.000  H
  C185     1.0000 0.17510  0.43910  0.57210  Biso   1.000  C
  O71      1.0000 0.22600  0.39400  0.57150  Biso   1.000  O
  N15      1.0000 0.17100  0.49200  0.59710  Biso   1.000  N
  H100     1.0000 0.14300  0.52700  0.59100  Biso   1.000  H
  C186     1.0000 0.18670  0.48650  0.64120  Biso   1.000  C
  C187     1.0000 0.19250  0.55000  0.66050  Biso   1.000  C
  C188     1.0000 0.21720  0.55080  0.69740  Biso   1.000  C
  C189     1.0000 0.23610  0.48820  0.71510  Biso   1.000  C
  C190     1.0000 0.23020  0.42470  0.69580  Biso   1.000  C
  C191     1.0000 0.20550  0.42390  0.65880  Biso   1.000  C
  H101     1.0000 0.17970  0.59260  0.64850  Biso   1.000  H
  H102     1.0000 0.25290  0.48880  0.74020  Biso   1.000  H
  H103     1.0000 0.20160  0.38070  0.64570  Biso   1.000  H
  C192     1.0000 0.22330  0.61660  0.71740  Biso   1.000  C
  O72      1.0000 0.20500  0.67720  0.70410  Biso   1.000  O
  O73      1.0000 0.24800  0.62350  0.75120  Biso   1.000  O
  C193     1.0000 0.24980  0.35990  0.71410  Biso   1.000  C
  O74      1.0000 0.23300  0.29780  0.70240  Biso   1.000  O
  O75      1.0000 0.28700  0.35500  0.74450  Biso   1.000  O
  Cu15     1.0000 0.20320  0.76210  0.72230  Biso   1.000  Cu
  C194     1.0000 0.10430  0.83590  0.68770  Biso   1.000  C
  C195     1.0000 0.16520  0.83070  0.66890  Biso   1.000  C
  H104     1.0000 0.05480  0.84010  0.70290  Biso   1.000  H
  H105     1.0000 0.21480  0.82640  0.65360  Biso   1.000  H
  C196     1.0000 0.93190  0.52330  0.53360  Biso   1.000  C
  C197     1.0000 0.86370  0.54750  0.53360  Biso   1.000  C
  H106     1.0000 0.95530  0.51500  0.55670  Biso   1.000  H
  C198     1.0000 0.82490  0.56090  0.57210  Biso   1.000  C
  O76      1.0000 0.77400  0.60600  0.57150  Biso   1.000  O
  N16      1.0000 0.82900  0.50800  0.59710  Biso   1.000  N
  H107     1.0000 0.85700  0.47300  0.59100  Biso   1.000  H
  C199     1.0000 0.81330  0.51350  0.64120  Biso   1.000  C
  C200     1.0000 0.80750  0.45000  0.66050  Biso   1.000  C
  C201     1.0000 0.78280  0.44920  0.69740  Biso   1.000  C
  C202     1.0000 0.76390  0.51180  0.71510  Biso   1.000  C
  C203     1.0000 0.76980  0.57530  0.69580  Biso   1.000  C
  C204     1.0000 0.79450  0.57610  0.65880  Biso   1.000  C
  H108     1.0000 0.82030  0.40740  0.64850  Biso   1.000  H
  H109     1.0000 0.74710  0.51120  0.74020  Biso   1.000  H
  H110     1.0000 0.79840  0.61930  0.64570  Biso   1.000  H
  C205     1.0000 0.77670  0.38340  0.71740  Biso   1.000  C
  O77      1.0000 0.79500  0.32280  0.70410  Biso   1.000  O
  O78      1.0000 0.75200  0.37650  0.75120  Biso   1.000  O
  C206     1.0000 0.75020  0.64010  0.71410  Biso   1.000  C
  O79      1.0000 0.76700  0.70220  0.70240  Biso   1.000  O
  O80      1.0000 0.71300  0.64500  0.74450  Biso   1.000  O
  Cu16     1.0000 0.79680  0.23790  0.72230  Biso   1.000  Cu
  C207     1.0000 0.89570  0.16410  0.68770  Biso   1.000  C
  C208     1.0000 0.83480  0.16930  0.66890  Biso   1.000  C
  H111     1.0000 0.94520  0.15990  0.70290  Biso   1.000  H
  H112     1.0000 0.78520  0.17360  0.65360  Biso   1.000  H
  C209     1.0000 0.01120  0.46590  0.00000  Biso   1.000  C
  C210     1.0000 0.05950  0.32960  0.00000  Biso   1.000  C
  H113     1.0000 0.07600  0.28260  0.00000  Biso   1.000  H
  C211     1.0000 0.98880  0.53410  0.00000  Biso   1.000  C
  C212     1.0000 0.94050  0.67040  0.00000  Biso   1.000  C
  H114     1.0000 0.92400  0.71740  0.00000  Biso   1.000  H
  C213     1.0000 0.53410  0.01120  0.00000  Biso   1.000  C
  C214     1.0000 0.67040  0.05950  0.00000  Biso   1.000  C
  H115     1.0000 0.71740  0.07600  0.00000  Biso   1.000  H
  C215     1.0000 0.46590  0.98880  0.00000  Biso   1.000  C
  C216     1.0000 0.32960  0.94050  0.00000  Biso   1.000  C
  H116     1.0000 0.28260  0.92400  0.00000  Biso   1.000  H
  C217     1.0000 0.48880  0.96590  0.50000  Biso   1.000  C
  C218     1.0000 0.44050  0.82960  0.50000  Biso   1.000  C
  H117     1.0000 0.42400  0.78260  0.50000  Biso   1.000  H
  C219     1.0000 0.51120  0.03410  0.50000  Biso   1.000  C
  C220     1.0000 0.55950  0.17040  0.50000  Biso   1.000  C
  H118     1.0000 0.57600  0.21740  0.50000  Biso   1.000  H
  C221     1.0000 0.96590  0.51120  0.50000  Biso   1.000  C
  C222     1.0000 0.82960  0.55950  0.50000  Biso   1.000  C
  H119     1.0000 0.78260  0.57600  0.50000  Biso   1.000  H
  C223     1.0000 0.03410  0.48880  0.50000  Biso   1.000  C
  C224     1.0000 0.17040  0.44050  0.50000  Biso   1.000  C
  H120     1.0000 0.21740  0.42400  0.50000  Biso   1.000  H
