data_image0
_cell_length_a       18.7471
_cell_length_b       18.7471
_cell_length_c       34.8339
_cell_angle_alpha    90
_cell_angle_beta     90
_cell_angle_gamma    90

_symmetry_space_group_name_H-M    "P 1"
_symmetry_int_tables_number       1

loop_
  _symmetry_equiv_pos_as_xyz
  'x, y, z'

loop_
  _atom_site_label
  _atom_site_occupancy
  _atom_site_fract_x
  _atom_site_fract_y
  _atom_site_fract_z
  _atom_site_thermal_displace_type
  _atom_site_B_iso_or_equiv
  _atom_site_type_symbol
  C1       1.0000 0.02300  0.43130  0.03400  Biso   1.000  C
  C2       1.0000 0.05080  0.36370  0.03400  Biso   1.000  C
  H1       1.0000 0.01360  0.45430  0.05720  Biso   1.000  H
  C3       1.0000 0.05620  0.31510  0.07000  Biso   1.000  C
  O1       1.0000 0.11100  0.27900  0.07580  Biso   1.000  O
  N1       1.0000 0.00900  0.33100  0.09680  Biso   1.000  N
  H2       1.0000 0.98200  0.36700  0.09220  Biso   1.000  H
  C4       1.0000 0.01390  0.30380  0.14020  Biso   1.000  C
  C5       1.0000 0.94850  0.29880  0.16080  Biso   1.000  C
  C6       1.0000 0.94890  0.27870  0.20030  Biso   1.000  C
  C7       1.0000 0.01470  0.26370  0.21910  Biso   1.000  C
  C8       1.0000 0.08010  0.26870  0.19840  Biso   1.000  C
  C9       1.0000 0.07970  0.28880  0.15900  Biso   1.000  C
  H3       1.0000 0.90560  0.30860  0.14860  Biso   1.000  H
  H4       1.0000 0.01490  0.25050  0.24480  Biso   1.000  H
  H5       1.0000 0.12240  0.29220  0.14550  Biso   1.000  H
  C10      1.0000 0.88510  0.27370  0.22040  Biso   1.000  C
  O2       1.0000 0.82810  0.29500  0.20580  Biso   1.000  O
  O3       1.0000 0.88360  0.24770  0.25340  Biso   1.000  O
  C11      1.0000 0.14430  0.25410  0.21680  Biso   1.000  C
  O4       1.0000 0.20230  0.26930  0.20120  Biso   1.000  O
  O5       1.0000 0.14500  0.22550  0.24920  Biso   1.000  O
  Cu1      1.0000 0.79480  0.24190  0.27400  Biso   1.000  Cu
  C12      1.0000 0.87800  0.19470  0.31780  Biso   1.000  C
  O6       1.0000 0.91130  0.15400  0.30030  Biso   1.000  O
  O7       1.0000 0.84470  0.23540  0.33540  Biso   1.000  O
  C13      1.0000 0.97700  0.56870  0.03400  Biso   1.000  C
  C14      1.0000 0.94920  0.63630  0.03400  Biso   1.000  C
  H6       1.0000 0.98640  0.54570  0.05720  Biso   1.000  H
  C15      1.0000 0.94380  0.68490  0.07000  Biso   1.000  C
  O8       1.0000 0.88900  0.72100  0.07580  Biso   1.000  O
  N2       1.0000 0.99100  0.66900  0.09680  Biso   1.000  N
  H7       1.0000 0.01800  0.63300  0.09220  Biso   1.000  H
  C16      1.0000 0.98610  0.69620  0.14020  Biso   1.000  C
  C17      1.0000 0.05150  0.70120  0.16080  Biso   1.000  C
  C18      1.0000 0.05110  0.72130  0.20030  Biso   1.000  C
  C19      1.0000 0.98530  0.73630  0.21910  Biso   1.000  C
  C20      1.0000 0.91990  0.73130  0.19840  Biso   1.000  C
  C21      1.0000 0.92030  0.71120  0.15900  Biso   1.000  C
  H8       1.0000 0.09440  0.69140  0.14860  Biso   1.000  H
  H9       1.0000 0.98510  0.74950  0.24480  Biso   1.000  H
  H10      1.0000 0.87760  0.70780  0.14550  Biso   1.000  H
  C22      1.0000 0.11490  0.72630  0.22040  Biso   1.000  C
  O9       1.0000 0.17190  0.70500  0.20580  Biso   1.000  O
  O10      1.0000 0.11640  0.75230  0.25340  Biso   1.000  O
  C23      1.0000 0.85570  0.74590  0.21680  Biso   1.000  C
  O11      1.0000 0.79770  0.73070  0.20120  Biso   1.000  O
  O12      1.0000 0.85500  0.77450  0.24920  Biso   1.000  O
  Cu2      1.0000 0.20520  0.75810  0.27400  Biso   1.000  Cu
  C24      1.0000 0.12200  0.80530  0.31780  Biso   1.000  C
  O13      1.0000 0.08870  0.84600  0.30030  Biso   1.000  O
  O14      1.0000 0.15530  0.76460  0.33540  Biso   1.000  O
  C25      1.0000 0.56870  0.02300  0.03400  Biso   1.000  C
  C26      1.0000 0.63630  0.05080  0.03400  Biso   1.000  C
  H11      1.0000 0.54570  0.01360  0.05720  Biso   1.000  H
  C27      1.0000 0.68490  0.05620  0.07000  Biso   1.000  C
  O15      1.0000 0.72100  0.11100  0.07580  Biso   1.000  O
  N3       1.0000 0.66900  0.00900  0.09680  Biso   1.000  N
  H12      1.0000 0.63300  0.98200  0.09220  Biso   1.000  H
  C28      1.0000 0.69620  0.01390  0.14020  Biso   1.000  C
  C29      1.0000 0.70120  0.94850  0.16080  Biso   1.000  C
  C30      1.0000 0.72130  0.94890  0.20030  Biso   1.000  C
  C31      1.0000 0.73630  0.01470  0.21910  Biso   1.000  C
  C32      1.0000 0.73130  0.08010  0.19840  Biso   1.000  C
  C33      1.0000 0.71120  0.07970  0.15900  Biso   1.000  C
  H13      1.0000 0.69140  0.90560  0.14860  Biso   1.000  H
  H14      1.0000 0.74950  0.01490  0.24480  Biso   1.000  H
  H15      1.0000 0.70780  0.12240  0.14550  Biso   1.000  H
  C34      1.0000 0.72630  0.88510  0.22040  Biso   1.000  C
  O16      1.0000 0.70500  0.82810  0.20580  Biso   1.000  O
  O17      1.0000 0.75230  0.88360  0.25340  Biso   1.000  O
  C35      1.0000 0.74590  0.14430  0.21680  Biso   1.000  C
  O18      1.0000 0.73070  0.20230  0.20120  Biso   1.000  O
  O19      1.0000 0.77450  0.14500  0.24920  Biso   1.000  O
  Cu3      1.0000 0.75810  0.79480  0.27400  Biso   1.000  Cu
  C36      1.0000 0.80530  0.87800  0.31780  Biso   1.000  C
  O20      1.0000 0.84600  0.91130  0.30030  Biso   1.000  O
  O21      1.0000 0.76460  0.84470  0.33540  Biso   1.000  O
  C37      1.0000 0.43130  0.97700  0.03400  Biso   1.000  C
  C38      1.0000 0.36370  0.94920  0.03400  Biso   1.000  C
  H16      1.0000 0.45430  0.98640  0.05720  Biso   1.000  H
  C39      1.0000 0.31510  0.94380  0.07000  Biso   1.000  C
  O22      1.0000 0.27900  0.88900  0.07580  Biso   1.000  O
  N4       1.0000 0.33100  0.99100  0.09680  Biso   1.000  N
  H17      1.0000 0.36700  0.01800  0.09220  Biso   1.000  H
  C40      1.0000 0.30380  0.98610  0.14020  Biso   1.000  C
  C41      1.0000 0.29880  0.05150  0.16080  Biso   1.000  C
  C42      1.0000 0.27870  0.05110  0.20030  Biso   1.000  C
  C43      1.0000 0.26370  0.98530  0.21910  Biso   1.000  C
  C44      1.0000 0.26870  0.91990  0.19840  Biso   1.000  C
  C45      1.0000 0.28880  0.92030  0.15900  Biso   1.000  C
  H18      1.0000 0.30860  0.09440  0.14860  Biso   1.000  H
  H19      1.0000 0.25050  0.98510  0.24480  Biso   1.000  H
  H20      1.0000 0.29220  0.87760  0.14550  Biso   1.000  H
  C46      1.0000 0.27370  0.11490  0.22040  Biso   1.000  C
  O23      1.0000 0.29500  0.17190  0.20580  Biso   1.000  O
  O24      1.0000 0.24770  0.11640  0.25340  Biso   1.000  O
  C47      1.0000 0.25410  0.85570  0.21680  Biso   1.000  C
  O25      1.0000 0.26930  0.79770  0.20120  Biso   1.000  O
  O26      1.0000 0.22550  0.85500  0.24920  Biso   1.000  O
  Cu4      1.0000 0.24190  0.20520  0.27400  Biso   1.000  Cu
  C48      1.0000 0.19470  0.12200  0.31780  Biso   1.000  C
  O27      1.0000 0.15400  0.08870  0.30030  Biso   1.000  O
  O28      1.0000 0.23540  0.15530  0.33540  Biso   1.000  O
  C49      1.0000 0.47700  0.93130  0.46600  Biso   1.000  C
  C50      1.0000 0.44920  0.86370  0.46600  Biso   1.000  C
  H21      1.0000 0.48640  0.95430  0.44280  Biso   1.000  H
  C51      1.0000 0.44380  0.81510  0.43000  Biso   1.000  C
  O29      1.0000 0.38900  0.77900  0.42420  Biso   1.000  O
  N5       1.0000 0.49100  0.83100  0.40320  Biso   1.000  N
  H22      1.0000 0.51800  0.86700  0.40780  Biso   1.000  H
  C52      1.0000 0.48610  0.80380  0.35980  Biso   1.000  C
  C53      1.0000 0.55150  0.79880  0.33920  Biso   1.000  C
  C54      1.0000 0.55110  0.77870  0.29970  Biso   1.000  C
  C55      1.0000 0.48530  0.76370  0.28090  Biso   1.000  C
  C56      1.0000 0.41990  0.76870  0.30160  Biso   1.000  C
  C57      1.0000 0.42030  0.78880  0.34100  Biso   1.000  C
  H23      1.0000 0.59440  0.80860  0.35140  Biso   1.000  H
  H24      1.0000 0.48510  0.75050  0.25520  Biso   1.000  H
  H25      1.0000 0.37760  0.79220  0.35450  Biso   1.000  H
  C58      1.0000 0.61490  0.77370  0.27960  Biso   1.000  C
  O30      1.0000 0.67190  0.79500  0.29420  Biso   1.000  O
  O31      1.0000 0.61640  0.74770  0.24660  Biso   1.000  O
  C59      1.0000 0.35570  0.75410  0.28320  Biso   1.000  C
  O32      1.0000 0.29770  0.76930  0.29880  Biso   1.000  O
  O33      1.0000 0.35500  0.72550  0.25080  Biso   1.000  O
  Cu5      1.0000 0.70520  0.74190  0.22600  Biso   1.000  Cu
  C60      1.0000 0.62200  0.69470  0.18220  Biso   1.000  C
  O34      1.0000 0.58870  0.65400  0.19970  Biso   1.000  O
  O35      1.0000 0.65530  0.73540  0.16460  Biso   1.000  O
  C61      1.0000 0.52300  0.06870  0.46600  Biso   1.000  C
  C62      1.0000 0.55080  0.13630  0.46600  Biso   1.000  C
  H26      1.0000 0.51360  0.04570  0.44280  Biso   1.000  H
  C63      1.0000 0.55620  0.18490  0.43000  Biso   1.000  C
  O36      1.0000 0.61100  0.22100  0.42420  Biso   1.000  O
  N6       1.0000 0.50900  0.16900  0.40320  Biso   1.000  N
  H27      1.0000 0.48200  0.13300  0.40780  Biso   1.000  H
  C64      1.0000 0.51390  0.19620  0.35980  Biso   1.000  C
  C65      1.0000 0.44850  0.20120  0.33920  Biso   1.000  C
  C66      1.0000 0.44890  0.22130  0.29970  Biso   1.000  C
  C67      1.0000 0.51470  0.23630  0.28090  Biso   1.000  C
  C68      1.0000 0.58010  0.23130  0.30160  Biso   1.000  C
  C69      1.0000 0.57970  0.21120  0.34100  Biso   1.000  C
  H28      1.0000 0.40560  0.19140  0.35140  Biso   1.000  H
  H29      1.0000 0.51490  0.24950  0.25520  Biso   1.000  H
  H30      1.0000 0.62240  0.20780  0.35450  Biso   1.000  H
  C70      1.0000 0.38510  0.22630  0.27960  Biso   1.000  C
  O37      1.0000 0.32810  0.20500  0.29420  Biso   1.000  O
  O38      1.0000 0.38360  0.25230  0.24660  Biso   1.000  O
  C71      1.0000 0.64430  0.24590  0.28320  Biso   1.000  C
  O39      1.0000 0.70230  0.23070  0.29880  Biso   1.000  O
  O40      1.0000 0.64500  0.27450  0.25080  Biso   1.000  O
  Cu6      1.0000 0.29480  0.25810  0.22600  Biso   1.000  Cu
  C72      1.0000 0.37800  0.30530  0.18220  Biso   1.000  C
  O41      1.0000 0.41130  0.34600  0.19970  Biso   1.000  O
  O42      1.0000 0.34470  0.26460  0.16460  Biso   1.000  O
  C73      1.0000 0.93130  0.52300  0.46600  Biso   1.000  C
  C74      1.0000 0.86370  0.55080  0.46600  Biso   1.000  C
  H31      1.0000 0.95430  0.51360  0.44280  Biso   1.000  H
  C75      1.0000 0.81510  0.55620  0.43000  Biso   1.000  C
  O43      1.0000 0.77900  0.61100  0.42420  Biso   1.000  O
  N7       1.0000 0.83100  0.50900  0.40320  Biso   1.000  N
  H32      1.0000 0.86700  0.48200  0.40780  Biso   1.000  H
  C76      1.0000 0.80380  0.51390  0.35980  Biso   1.000  C
  C77      1.0000 0.79880  0.44850  0.33920  Biso   1.000  C
  C78      1.0000 0.77870  0.44890  0.29970  Biso   1.000  C
  C79      1.0000 0.76370  0.51470  0.28090  Biso   1.000  C
  C80      1.0000 0.76870  0.58010  0.30160  Biso   1.000  C
  C81      1.0000 0.78880  0.57970  0.34100  Biso   1.000  C
  H33      1.0000 0.80860  0.40560  0.35140  Biso   1.000  H
  H34      1.0000 0.75050  0.51490  0.25520  Biso   1.000  H
  H35      1.0000 0.79220  0.62240  0.35450  Biso   1.000  H
  C82      1.0000 0.77370  0.38510  0.27960  Biso   1.000  C
  O44      1.0000 0.79500  0.32810  0.29420  Biso   1.000  O
  O45      1.0000 0.74770  0.38360  0.24660  Biso   1.000  O
  C83      1.0000 0.75410  0.64430  0.28320  Biso   1.000  C
  O46      1.0000 0.76930  0.70230  0.29880  Biso   1.000  O
  O47      1.0000 0.72550  0.64500  0.25080  Biso   1.000  O
  Cu7      1.0000 0.74190  0.29480  0.22600  Biso   1.000  Cu
  C84      1.0000 0.69470  0.37800  0.18220  Biso   1.000  C
  O48      1.0000 0.65400  0.41130  0.19970  Biso   1.000  O
  O49      1.0000 0.73540  0.34470  0.16460  Biso   1.000  O
  C85      1.0000 0.06870  0.47700  0.46600  Biso   1.000  C
  C86      1.0000 0.13630  0.44920  0.46600  Biso   1.000  C
  H36      1.0000 0.04570  0.48640  0.44280  Biso   1.000  H
  C87      1.0000 0.18490  0.44380  0.43000  Biso   1.000  C
  O50      1.0000 0.22100  0.38900  0.42420  Biso   1.000  O
  N8       1.0000 0.16900  0.49100  0.40320  Biso   1.000  N
  H37      1.0000 0.13300  0.51800  0.40780  Biso   1.000  H
  C88      1.0000 0.19620  0.48610  0.35980  Biso   1.000  C
  C89      1.0000 0.20120  0.55150  0.33920  Biso   1.000  C
  C90      1.0000 0.22130  0.55110  0.29970  Biso   1.000  C
  C91      1.0000 0.23630  0.48530  0.28090  Biso   1.000  C
  C92      1.0000 0.23130  0.41990  0.30160  Biso   1.000  C
  C93      1.0000 0.21120  0.42030  0.34100  Biso   1.000  C
  H38      1.0000 0.19140  0.59440  0.35140  Biso   1.000  H
  H39      1.0000 0.24950  0.48510  0.25520  Biso   1.000  H
  H40      1.0000 0.20780  0.37760  0.35450  Biso   1.000  H
  C94      1.0000 0.22630  0.61490  0.27960  Biso   1.000  C
  O51      1.0000 0.20500  0.67190  0.29420  Biso   1.000  O
  O52      1.0000 0.25230  0.61640  0.24660  Biso   1.000  O
  C95      1.0000 0.24590  0.35570  0.28320  Biso   1.000  C
  O53      1.0000 0.23070  0.29770  0.29880  Biso   1.000  O
  O54      1.0000 0.27450  0.35500  0.25080  Biso   1.000  O
  Cu8      1.0000 0.25810  0.70520  0.22600  Biso   1.000  Cu
  C96      1.0000 0.30530  0.62200  0.18220  Biso   1.000  C
  O55      1.0000 0.34600  0.58870  0.19970  Biso   1.000  O
  O56      1.0000 0.26460  0.65530  0.16460  Biso   1.000  O
  C97      1.0000 0.97700  0.56870  0.96600  Biso   1.000  C
  C98      1.0000 0.94920  0.63630  0.96600  Biso   1.000  C
  H41      1.0000 0.98640  0.54570  0.94280  Biso   1.000  H
  C99      1.0000 0.94380  0.68490  0.93000  Biso   1.000  C
  O57      1.0000 0.88900  0.72100  0.92420  Biso   1.000  O
  N9       1.0000 0.99100  0.66900  0.90320  Biso   1.000  N
  H42      1.0000 0.01800  0.63300  0.90780  Biso   1.000  H
  C100     1.0000 0.98610  0.69620  0.85980  Biso   1.000  C
  C101     1.0000 0.05150  0.70120  0.83920  Biso   1.000  C
  C102     1.0000 0.05110  0.72130  0.79970  Biso   1.000  C
  C103     1.0000 0.98530  0.73630  0.78090  Biso   1.000  C
  C104     1.0000 0.91990  0.73130  0.80160  Biso   1.000  C
  C105     1.0000 0.92030  0.71120  0.84100  Biso   1.000  C
  H43      1.0000 0.09440  0.69140  0.85140  Biso   1.000  H
  H44      1.0000 0.98510  0.74950  0.75520  Biso   1.000  H
  H45      1.0000 0.87760  0.70780  0.85450  Biso   1.000  H
  C106     1.0000 0.11490  0.72630  0.77960  Biso   1.000  C
  O58      1.0000 0.17190  0.70500  0.79420  Biso   1.000  O
  O59      1.0000 0.11640  0.75230  0.74660  Biso   1.000  O
  C107     1.0000 0.85570  0.74590  0.78320  Biso   1.000  C
  O60      1.0000 0.79770  0.73070  0.79880  Biso   1.000  O
  O61      1.0000 0.85500  0.77450  0.75080  Biso   1.000  O
  Cu9      1.0000 0.20520  0.75810  0.72600  Biso   1.000  Cu
  C108     1.0000 0.12200  0.80530  0.68220  Biso   1.000  C
  O62      1.0000 0.08870  0.84600  0.69970  Biso   1.000  O
  O63      1.0000 0.15530  0.76460  0.66460  Biso   1.000  O
  C109     1.0000 0.02300  0.43130  0.96600  Biso   1.000  C
  C110     1.0000 0.05080  0.36370  0.96600  Biso   1.000  C
  H46      1.0000 0.01360  0.45430  0.94280  Biso   1.000  H
  C111     1.0000 0.05620  0.31510  0.93000  Biso   1.000  C
  O64      1.0000 0.11100  0.27900  0.92420  Biso   1.000  O
  N10      1.0000 0.00900  0.33100  0.90320  Biso   1.000  N
  H47      1.0000 0.98200  0.36700  0.90780  Biso   1.000  H
  C112     1.0000 0.01390  0.30380  0.85980  Biso   1.000  C
  C113     1.0000 0.94850  0.29880  0.83920  Biso   1.000  C
  C114     1.0000 0.94890  0.27870  0.79970  Biso   1.000  C
  C115     1.0000 0.01470  0.26370  0.78090  Biso   1.000  C
  C116     1.0000 0.08010  0.26870  0.80160  Biso   1.000  C
  C117     1.0000 0.07970  0.28880  0.84100  Biso   1.000  C
  H48      1.0000 0.90560  0.30860  0.85140  Biso   1.000  H
  H49      1.0000 0.01490  0.25050  0.75520  Biso   1.000  H
  H50      1.0000 0.12240  0.29220  0.85450  Biso   1.000  H
  C118     1.0000 0.88510  0.27370  0.77960  Biso   1.000  C
  O65      1.0000 0.82810  0.29500  0.79420  Biso   1.000  O
  O66      1.0000 0.88360  0.24770  0.74660  Biso   1.000  O
  C119     1.0000 0.14430  0.25410  0.78320  Biso   1.000  C
  O67      1.0000 0.20230  0.26930  0.79880  Biso   1.000  O
  O68      1.0000 0.14500  0.22550  0.75080  Biso   1.000  O
  Cu10     1.0000 0.79480  0.24190  0.72600  Biso   1.000  Cu
  C120     1.0000 0.87800  0.19470  0.68220  Biso   1.000  C
  O69      1.0000 0.91130  0.15400  0.69970  Biso   1.000  O
  O70      1.0000 0.84470  0.23540  0.66460  Biso   1.000  O
  C121     1.0000 0.43130  0.97700  0.96600  Biso   1.000  C
  C122     1.0000 0.36370  0.94920  0.96600  Biso   1.000  C
  H51      1.0000 0.45430  0.98640  0.94280  Biso   1.000  H
  C123     1.0000 0.31510  0.94380  0.93000  Biso   1.000  C
  O71      1.0000 0.27900  0.88900  0.92420  Biso   1.000  O
  N11      1.0000 0.33100  0.99100  0.90320  Biso   1.000  N
  H52      1.0000 0.36700  0.01800  0.90780  Biso   1.000  H
  C124     1.0000 0.30380  0.98610  0.85980  Biso   1.000  C
  C125     1.0000 0.29880  0.05150  0.83920  Biso   1.000  C
  C126     1.0000 0.27870  0.05110  0.79970  Biso   1.000  C
  C127     1.0000 0.26370  0.98530  0.78090  Biso   1.000  C
  C128     1.0000 0.26870  0.91990  0.80160  Biso   1.000  C
  C129     1.0000 0.28880  0.92030  0.84100  Biso   1.000  C
  H53      1.0000 0.30860  0.09440  0.85140  Biso   1.000  H
  H54      1.0000 0.25050  0.98510  0.75520  Biso   1.000  H
  H55      1.0000 0.29220  0.87760  0.85450  Biso   1.000  H
  C130     1.0000 0.27370  0.11490  0.77960  Biso   1.000  C
  O72      1.0000 0.29500  0.17190  0.79420  Biso   1.000  O
  O73      1.0000 0.24770  0.11640  0.74660  Biso   1.000  O
  C131     1.0000 0.25410  0.85570  0.78320  Biso   1.000  C
  O74      1.0000 0.26930  0.79770  0.79880  Biso   1.000  O
  O75      1.0000 0.22550  0.85500  0.75080  Biso   1.000  O
  Cu11     1.0000 0.24190  0.20520  0.72600  Biso   1.000  Cu
  C132     1.0000 0.19470  0.12200  0.68220  Biso   1.000  C
  O76      1.0000 0.15400  0.08870  0.69970  Biso   1.000  O
  O77      1.0000 0.23540  0.15530  0.66460  Biso   1.000  O
  C133     1.0000 0.56870  0.02300  0.96600  Biso   1.000  C
  C134     1.0000 0.63630  0.05080  0.96600  Biso   1.000  C
  H56      1.0000 0.54570  0.01360  0.94280  Biso   1.000  H
  C135     1.0000 0.68490  0.05620  0.93000  Biso   1.000  C
  O78      1.0000 0.72100  0.11100  0.92420  Biso   1.000  O
  N12      1.0000 0.66900  0.00900  0.90320  Biso   1.000  N
  H57      1.0000 0.63300  0.98200  0.90780  Biso   1.000  H
  C136     1.0000 0.69620  0.01390  0.85980  Biso   1.000  C
  C137     1.0000 0.70120  0.94850  0.83920  Biso   1.000  C
  C138     1.0000 0.72130  0.94890  0.79970  Biso   1.000  C
  C139     1.0000 0.73630  0.01470  0.78090  Biso   1.000  C
  C140     1.0000 0.73130  0.08010  0.80160  Biso   1.000  C
  C141     1.0000 0.71120  0.07970  0.84100  Biso   1.000  C
  H58      1.0000 0.69140  0.90560  0.85140  Biso   1.000  H
  H59      1.0000 0.74950  0.01490  0.75520  Biso   1.000  H
  H60      1.0000 0.70780  0.12240  0.85450  Biso   1.000  H
  C142     1.0000 0.72630  0.88510  0.77960  Biso   1.000  C
  O79      1.0000 0.70500  0.82810  0.79420  Biso   1.000  O
  O80      1.0000 0.75230  0.88360  0.74660  Biso   1.000  O
  C143     1.0000 0.74590  0.14430  0.78320  Biso   1.000  C
  O81      1.0000 0.73070  0.20230  0.79880  Biso   1.000  O
  O82      1.0000 0.77450  0.14500  0.75080  Biso   1.000  O
  Cu12     1.0000 0.75810  0.79480  0.72600  Biso   1.000  Cu
  C144     1.0000 0.80530  0.87800  0.68220  Biso   1.000  C
  O83      1.0000 0.84600  0.91130  0.69970  Biso   1.000  O
  O84      1.0000 0.76460  0.84470  0.66460  Biso   1.000  O
  C145     1.0000 0.52300  0.06870  0.53400  Biso   1.000  C
  C146     1.0000 0.55080  0.13630  0.53400  Biso   1.000  C
  H61      1.0000 0.51360  0.04570  0.55720  Biso   1.000  H
  C147     1.0000 0.55620  0.18490  0.57000  Biso   1.000  C
  O85      1.0000 0.61100  0.22100  0.57580  Biso   1.000  O
  N13      1.0000 0.50900  0.16900  0.59680  Biso   1.000  N
  H62      1.0000 0.48200  0.13300  0.59220  Biso   1.000  H
  C148     1.0000 0.51390  0.19620  0.64020  Biso   1.000  C
  C149     1.0000 0.44850  0.20120  0.66080  Biso   1.000  C
  C150     1.0000 0.44890  0.22130  0.70030  Biso   1.000  C
  C151     1.0000 0.51470  0.23630  0.71910  Biso   1.000  C
  C152     1.0000 0.58010  0.23130  0.69840  Biso   1.000  C
  C153     1.0000 0.57970  0.21120  0.65900  Biso   1.000  C
  H63      1.0000 0.40560  0.19140  0.64860  Biso   1.000  H
  H64      1.0000 0.51490  0.24950  0.74480  Biso   1.000  H
  H65      1.0000 0.62240  0.20780  0.64550  Biso   1.000  H
  C154     1.0000 0.38510  0.22630  0.72040  Biso   1.000  C
  O86      1.0000 0.32810  0.20500  0.70580  Biso   1.000  O
  O87      1.0000 0.38360  0.25230  0.75340  Biso   1.000  O
  C155     1.0000 0.64430  0.24590  0.71680  Biso   1.000  C
  O88      1.0000 0.70230  0.23070  0.70120  Biso   1.000  O
  O89      1.0000 0.64500  0.27450  0.74920  Biso   1.000  O
  Cu13     1.0000 0.29480  0.25810  0.77400  Biso   1.000  Cu
  C156     1.0000 0.37800  0.30530  0.81780  Biso   1.000  C
  O90      1.0000 0.41130  0.34600  0.80030  Biso   1.000  O
  O91      1.0000 0.34470  0.26460  0.83540  Biso   1.000  O
  C157     1.0000 0.47700  0.93130  0.53400  Biso   1.000  C
  C158     1.0000 0.44920  0.86370  0.53400  Biso   1.000  C
  H66      1.0000 0.48640  0.95430  0.55720  Biso   1.000  H
  C159     1.0000 0.44380  0.81510  0.57000  Biso   1.000  C
  O92      1.0000 0.38900  0.77900  0.57580  Biso   1.000  O
  N14      1.0000 0.49100  0.83100  0.59680  Biso   1.000  N
  H67      1.0000 0.51800  0.86700  0.59220  Biso   1.000  H
  C160     1.0000 0.48610  0.80380  0.64020  Biso   1.000  C
  C161     1.0000 0.55150  0.79880  0.66080  Biso   1.000  C
  C162     1.0000 0.55110  0.77870  0.70030  Biso   1.000  C
  C163     1.0000 0.48530  0.76370  0.71910  Biso   1.000  C
  C164     1.0000 0.41990  0.76870  0.69840  Biso   1.000  C
  C165     1.0000 0.42030  0.78880  0.65900  Biso   1.000  C
  H68      1.0000 0.59440  0.80860  0.64860  Biso   1.000  H
  H69      1.0000 0.48510  0.75050  0.74480  Biso   1.000  H
  H70      1.0000 0.37760  0.79220  0.64550  Biso   1.000  H
  C166     1.0000 0.61490  0.77370  0.72040  Biso   1.000  C
  O93      1.0000 0.67190  0.79500  0.70580  Biso   1.000  O
  O94      1.0000 0.61640  0.74770  0.75340  Biso   1.000  O
  C167     1.0000 0.35570  0.75410  0.71680  Biso   1.000  C
  O95      1.0000 0.29770  0.76930  0.70120  Biso   1.000  O
  O96      1.0000 0.35500  0.72550  0.74920  Biso   1.000  O
  Cu14     1.0000 0.70520  0.74190  0.77400  Biso   1.000  Cu
  C168     1.0000 0.62200  0.69470  0.81780  Biso   1.000  C
  O97      1.0000 0.58870  0.65400  0.80030  Biso   1.000  O
  O98      1.0000 0.65530  0.73540  0.83540  Biso   1.000  O
  C169     1.0000 0.06870  0.47700  0.53400  Biso   1.000  C
  C170     1.0000 0.13630  0.44920  0.53400  Biso   1.000  C
  H71      1.0000 0.04570  0.48640  0.55720  Biso   1.000  H
  C171     1.0000 0.18490  0.44380  0.57000  Biso   1.000  C
  O99      1.0000 0.22100  0.38900  0.57580  Biso   1.000  O
  N15      1.0000 0.16900  0.49100  0.59680  Biso   1.000  N
  H72      1.0000 0.13300  0.51800  0.59220  Biso   1.000  H
  C172     1.0000 0.19620  0.48610  0.64020  Biso   1.000  C
  C173     1.0000 0.20120  0.55150  0.66080  Biso   1.000  C
  C174     1.0000 0.22130  0.55110  0.70030  Biso   1.000  C
  C175     1.0000 0.23630  0.48530  0.71910  Biso   1.000  C
  C176     1.0000 0.23130  0.41990  0.69840  Biso   1.000  C
  C177     1.0000 0.21120  0.42030  0.65900  Biso   1.000  C
  H73      1.0000 0.19140  0.59440  0.64860  Biso   1.000  H
  H74      1.0000 0.24950  0.48510  0.74480  Biso   1.000  H
  H75      1.0000 0.20780  0.37760  0.64550  Biso   1.000  H
  C178     1.0000 0.22630  0.61490  0.72040  Biso   1.000  C
  O100     1.0000 0.20500  0.67190  0.70580  Biso   1.000  O
  O101     1.0000 0.25230  0.61640  0.75340  Biso   1.000  O
  C179     1.0000 0.24590  0.35570  0.71680  Biso   1.000  C
  O102     1.0000 0.23070  0.29770  0.70120  Biso   1.000  O
  O103     1.0000 0.27450  0.35500  0.74920  Biso   1.000  O
  Cu15     1.0000 0.25810  0.70520  0.77400  Biso   1.000  Cu
  C180     1.0000 0.30530  0.62200  0.81780  Biso   1.000  C
  O104     1.0000 0.34600  0.58870  0.80030  Biso   1.000  O
  O105     1.0000 0.26460  0.65530  0.83540  Biso   1.000  O
  C181     1.0000 0.93130  0.52300  0.53400  Biso   1.000  C
  C182     1.0000 0.86370  0.55080  0.53400  Biso   1.000  C
  H76      1.0000 0.95430  0.51360  0.55720  Biso   1.000  H
  C183     1.0000 0.81510  0.55620  0.57000  Biso   1.000  C
  O106     1.0000 0.77900  0.61100  0.57580  Biso   1.000  O
  N16      1.0000 0.83100  0.50900  0.59680  Biso   1.000  N
  H77      1.0000 0.86700  0.48200  0.59220  Biso   1.000  H
  C184     1.0000 0.80380  0.51390  0.64020  Biso   1.000  C
  C185     1.0000 0.79880  0.44850  0.66080  Biso   1.000  C
  C186     1.0000 0.77870  0.44890  0.70030  Biso   1.000  C
  C187     1.0000 0.76370  0.51470  0.71910  Biso   1.000  C
  C188     1.0000 0.76870  0.58010  0.69840  Biso   1.000  C
  C189     1.0000 0.78880  0.57970  0.65900  Biso   1.000  C
  H78      1.0000 0.80860  0.40560  0.64860  Biso   1.000  H
  H79      1.0000 0.75050  0.51490  0.74480  Biso   1.000  H
  H80      1.0000 0.79220  0.62240  0.64550  Biso   1.000  H
  C190     1.0000 0.77370  0.38510  0.72040  Biso   1.000  C
  O107     1.0000 0.79500  0.32810  0.70580  Biso   1.000  O
  O108     1.0000 0.74770  0.38360  0.75340  Biso   1.000  O
  C191     1.0000 0.75410  0.64430  0.71680  Biso   1.000  C
  O109     1.0000 0.76930  0.70230  0.70120  Biso   1.000  O
  O110     1.0000 0.72550  0.64500  0.74920  Biso   1.000  O
  Cu16     1.0000 0.74190  0.29480  0.77400  Biso   1.000  Cu
  C192     1.0000 0.69470  0.37800  0.81780  Biso   1.000  C
  O111     1.0000 0.65400  0.41130  0.80030  Biso   1.000  O
  O112     1.0000 0.73540  0.34470  0.83540  Biso   1.000  O
  C193     1.0000 0.00920  0.46510  0.00000  Biso   1.000  C
  C194     1.0000 0.06460  0.33000  0.00000  Biso   1.000  C
  H81      1.0000 0.08350  0.28410  0.00000  Biso   1.000  H
  C195     1.0000 0.99080  0.53490  0.00000  Biso   1.000  C
  C196     1.0000 0.93540  0.67000  0.00000  Biso   1.000  C
  H82      1.0000 0.91650  0.71590  0.00000  Biso   1.000  H
  C197     1.0000 0.53490  0.00920  0.00000  Biso   1.000  C
  C198     1.0000 0.67000  0.06460  0.00000  Biso   1.000  C
  H83      1.0000 0.71590  0.08350  0.00000  Biso   1.000  H
  C199     1.0000 0.46510  0.99080  0.00000  Biso   1.000  C
  C200     1.0000 0.33000  0.93540  0.00000  Biso   1.000  C
  H84      1.0000 0.28410  0.91650  0.00000  Biso   1.000  H
  C201     1.0000 0.49080  0.96510  0.50000  Biso   1.000  C
  C202     1.0000 0.43540  0.83000  0.50000  Biso   1.000  C
  H85      1.0000 0.41650  0.78410  0.50000  Biso   1.000  H
  C203     1.0000 0.50920  0.03490  0.50000  Biso   1.000  C
  C204     1.0000 0.56460  0.17000  0.50000  Biso   1.000  C
  H86      1.0000 0.58350  0.21590  0.50000  Biso   1.000  H
  C205     1.0000 0.96510  0.50920  0.50000  Biso   1.000  C
  C206     1.0000 0.83000  0.56460  0.50000  Biso   1.000  C
  H87      1.0000 0.78410  0.58350  0.50000  Biso   1.000  H
  C207     1.0000 0.03490  0.49080  0.50000  Biso   1.000  C
  C208     1.0000 0.17000  0.43540  0.50000  Biso   1.000  C
  H88      1.0000 0.21590  0.41650  0.50000  Biso   1.000  H
