data_image0
_cell_length_a       7.247
_cell_length_b       14.983
_cell_length_c       22.489
_cell_angle_alpha    90
_cell_angle_beta     90.905
_cell_angle_gamma    90

_symmetry_space_group_name_H-M    P 1
_symmetry_int_tables_number       1

loop_
  _symmetry_equiv_pos_as_xyz
  'x, y, z'

loop_
  _atom_site_label
  _atom_site_occupancy
  _atom_site_fract_x
  _atom_site_fract_y
  _atom_site_fract_z
  _atom_site_thermal_displace_type
  _atom_site_B_iso_or_equiv
  _atom_site_type_symbol
  Mn1      1.0000 0.75335  0.52676  0.76677  Biso   1.000  Mn
  Mn2      1.0000 0.74665  0.02676  0.73323  Biso   1.000  Mn
  Mn3      1.0000 0.24665  0.47324  0.23323  Biso   1.000  Mn
  Mn4      1.0000 0.25335  0.97324  0.26677  Biso   1.000  Mn
  Mn5      1.0000 0.50000  0.50000  0.50000  Biso   1.000  Mn
  Mn6      1.0000 0.00000  0.00000  0.00000  Biso   1.000  Mn
  H1       1.0000 0.67860  0.48900  0.62970  Biso   1.000  H
  H2       1.0000 0.62310  0.70220  0.52990  Biso   1.000  H
  H3       1.0000 0.70970  0.79100  0.61030  Biso   1.000  H
  H4       1.0000 0.75830  0.72270  0.70350  Biso   1.000  H
  H5       1.0000 0.67700  0.45800  0.88100  Biso   1.000  H
  H6       1.0000 0.88500  0.45000  0.87000  Biso   1.000  H
  H7       1.0000 0.19500  0.58100  0.52500  Biso   1.000  H
  H8       1.0000 0.23500  0.62600  0.46500  Biso   1.000  H
  H9       1.0000 0.82140  0.98900  0.87030  Biso   1.000  H
  H10      1.0000 0.87690  0.20220  0.97010  Biso   1.000  H
  H11      1.0000 0.79030  0.29100  0.88970  Biso   1.000  H
  H12      1.0000 0.74170  0.22270  0.79650  Biso   1.000  H
  H13      1.0000 0.82300  0.95800  0.61900  Biso   1.000  H
  H14      1.0000 0.61500  0.95000  0.63000  Biso   1.000  H
  H15      1.0000 0.30500  0.08100  0.97500  Biso   1.000  H
  H16      1.0000 0.26500  0.12600  0.03500  Biso   1.000  H
  H17      1.0000 0.32140  0.51100  0.37030  Biso   1.000  H
  H18      1.0000 0.37690  0.29780  0.47010  Biso   1.000  H
  H19      1.0000 0.29030  0.20900  0.38970  Biso   1.000  H
  H20      1.0000 0.24170  0.27730  0.29650  Biso   1.000  H
  H21      1.0000 0.32300  0.54200  0.11900  Biso   1.000  H
  H22      1.0000 0.11500  0.55000  0.13000  Biso   1.000  H
  H23      1.0000 0.80500  0.41900  0.47500  Biso   1.000  H
  H24      1.0000 0.76500  0.37400  0.53500  Biso   1.000  H
  H25      1.0000 0.17860  0.01100  0.12970  Biso   1.000  H
  H26      1.0000 0.12310  0.79780  0.02990  Biso   1.000  H
  H27      1.0000 0.20970  0.70900  0.11030  Biso   1.000  H
  H28      1.0000 0.25830  0.77730  0.20350  Biso   1.000  H
  H29      1.0000 0.17700  0.04200  0.38100  Biso   1.000  H
  H30      1.0000 0.38500  0.05000  0.37000  Biso   1.000  H
  H31      1.0000 0.69500  0.91900  0.02500  Biso   1.000  H
  H32      1.0000 0.73500  0.87400  0.96500  Biso   1.000  H
  W1       1.0000 0.23778  0.28623  0.67820  Biso   1.000  W
  W2       1.0000 0.26222  0.78623  0.82180  Biso   1.000  W
  W3       1.0000 0.76222  0.71377  0.32180  Biso   1.000  W
  W4       1.0000 0.73778  0.21377  0.17820  Biso   1.000  W
  C1       1.0000 0.45720  0.36940  0.71310  Biso   1.000  C
  C2       1.0000 0.45770  0.19130  0.69340  Biso   1.000  C
  C3       1.0000 0.07460  0.16900  0.69650  Biso   1.000  C
  C4       1.0000 0.08610  0.39720  0.71440  Biso   1.000  C
  C5       1.0000 0.31680  0.37920  0.60950  Biso   1.000  C
  C6       1.0000 0.27120  0.20950  0.59740  Biso   1.000  C
  C7       1.0000 0.98390  0.30250  0.62740  Biso   1.000  C
  C8       1.0000 0.24200  0.26590  0.77350  Biso   1.000  C
  C9       1.0000 0.67990  0.55220  0.62610  Biso   1.000  C
  C10      1.0000 0.65040  0.67540  0.56730  Biso   1.000  C
  C11      1.0000 0.69820  0.72820  0.61470  Biso   1.000  C
  C12      1.0000 0.72980  0.68720  0.66960  Biso   1.000  C
  C13      1.0000 0.04280  0.86940  0.78690  Biso   1.000  C
  C14      1.0000 0.04230  0.69130  0.80660  Biso   1.000  C
  C15      1.0000 0.42540  0.66900  0.80350  Biso   1.000  C
  C16      1.0000 0.41390  0.89720  0.78560  Biso   1.000  C
  C17      1.0000 0.18320  0.87920  0.89050  Biso   1.000  C
  C18      1.0000 0.22880  0.70950  0.90260  Biso   1.000  C
  C19      1.0000 0.51610  0.80250  0.87260  Biso   1.000  C
  C20      1.0000 0.25800  0.76590  0.72650  Biso   1.000  C
  C21      1.0000 0.82010  0.05220  0.87390  Biso   1.000  C
  C22      1.0000 0.84960  0.17540  0.93270  Biso   1.000  C
  C23      1.0000 0.80180  0.22820  0.88530  Biso   1.000  C
  C24      1.0000 0.77020  0.18720  0.83040  Biso   1.000  C
  C25      1.0000 0.54280  0.63060  0.28690  Biso   1.000  C
  C26      1.0000 0.54230  0.80870  0.30660  Biso   1.000  C
  C27      1.0000 0.92540  0.83100  0.30350  Biso   1.000  C
  C28      1.0000 0.91390  0.60280  0.28560  Biso   1.000  C
  C29      1.0000 0.68320  0.62080  0.39050  Biso   1.000  C
  C30      1.0000 0.72880  0.79050  0.40260  Biso   1.000  C
  C31      1.0000 0.01610  0.69750  0.37260  Biso   1.000  C
  C32      1.0000 0.75800  0.73410  0.22650  Biso   1.000  C
  C33      1.0000 0.32010  0.44780  0.37390  Biso   1.000  C
  C34      1.0000 0.34960  0.32460  0.43270  Biso   1.000  C
  C35      1.0000 0.30180  0.27180  0.38530  Biso   1.000  C
  C36      1.0000 0.27020  0.31280  0.33040  Biso   1.000  C
  C37      1.0000 0.95720  0.13060  0.21310  Biso   1.000  C
  C38      1.0000 0.95770  0.30870  0.19340  Biso   1.000  C
  C39      1.0000 0.57460  0.33100  0.19650  Biso   1.000  C
  C40      1.0000 0.58610  0.10280  0.21440  Biso   1.000  C
  C41      1.0000 0.81680  0.12080  0.10950  Biso   1.000  C
  C42      1.0000 0.77120  0.29050  0.09740  Biso   1.000  C
  C43      1.0000 0.48390  0.19750  0.12740  Biso   1.000  C
  C44      1.0000 0.74200  0.23410  0.27350  Biso   1.000  C
  C45      1.0000 0.17990  0.94780  0.12610  Biso   1.000  C
  C46      1.0000 0.15040  0.82460  0.06730  Biso   1.000  C
  C47      1.0000 0.19820  0.77180  0.11470  Biso   1.000  C
  C48      1.0000 0.22980  0.81280  0.16960  Biso   1.000  C
  N1       1.0000 0.56860  0.41760  0.73210  Biso   1.000  N
  N2       1.0000 0.93310  0.63940  0.79580  Biso   1.000  N
  N3       1.0000 0.51320  0.60690  0.79360  Biso   1.000  N
  N4       1.0000 0.99720  0.45430  0.73390  Biso   1.000  N
  N5       1.0000 0.36240  0.42570  0.57250  Biso   1.000  N
  N6       1.0000 0.28720  0.16980  0.55470  Biso   1.000  N
  N7       1.0000 0.85040  0.31330  0.60150  Biso   1.000  N
  N8       1.0000 0.24740  0.25220  0.82390  Biso   1.000  N
  N9       1.0000 0.72090  0.59860  0.67490  Biso   1.000  N
  N10      1.0000 0.64130  0.58610  0.57290  Biso   1.000  N
  N11      1.0000 0.93140  0.91760  0.76790  Biso   1.000  N
  N12      1.0000 0.56690  0.13940  0.70420  Biso   1.000  N
  N13      1.0000 0.98680  0.10690  0.70640  Biso   1.000  N
  N14      1.0000 0.50280  0.95430  0.76610  Biso   1.000  N
  N15      1.0000 0.13760  0.92570  0.92750  Biso   1.000  N
  N16      1.0000 0.21280  0.66980  0.94530  Biso   1.000  N
  N17      1.0000 0.64960  0.81330  0.89850  Biso   1.000  N
  N18      1.0000 0.25260  0.75220  0.67610  Biso   1.000  N
  N19      1.0000 0.77910  0.09860  0.82510  Biso   1.000  N
  N20      1.0000 0.85870  0.08610  0.92710  Biso   1.000  N
  N21      1.0000 0.43140  0.58240  0.26790  Biso   1.000  N
  N22      1.0000 0.06690  0.36060  0.20420  Biso   1.000  N
  N23      1.0000 0.48680  0.39310  0.20640  Biso   1.000  N
  N24      1.0000 0.00280  0.54570  0.26610  Biso   1.000  N
  N25      1.0000 0.63760  0.57430  0.42750  Biso   1.000  N
  N26      1.0000 0.71280  0.83020  0.44530  Biso   1.000  N
  N27      1.0000 0.14960  0.68670  0.39850  Biso   1.000  N
  N28      1.0000 0.75260  0.74780  0.17610  Biso   1.000  N
  N29      1.0000 0.27910  0.40140  0.32510  Biso   1.000  N
  N30      1.0000 0.35870  0.41390  0.42710  Biso   1.000  N
  N31      1.0000 0.06860  0.08240  0.23210  Biso   1.000  N
  N32      1.0000 0.43310  0.86060  0.29580  Biso   1.000  N
  N33      1.0000 0.01320  0.89310  0.29360  Biso   1.000  N
  N34      1.0000 0.49720  0.04570  0.23390  Biso   1.000  N
  N35      1.0000 0.86240  0.07430  0.07250  Biso   1.000  N
  N36      1.0000 0.78720  0.33020  0.05470  Biso   1.000  N
  N37      1.0000 0.35040  0.18670  0.10150  Biso   1.000  N
  N38      1.0000 0.74740  0.24780  0.32390  Biso   1.000  N
  N39      1.0000 0.22090  0.90140  0.17490  Biso   1.000  N
  N40      1.0000 0.14130  0.91390  0.07290  Biso   1.000  N
  O1       1.0000 0.76950  0.46320  0.85200  Biso   1.000  O
  O2       1.0000 0.28930  0.59850  0.49880  Biso   1.000  O
  O3       1.0000 0.73050  0.96320  0.64800  Biso   1.000  O
  O4       1.0000 0.21070  0.09850  0.00120  Biso   1.000  O
  O5       1.0000 0.23050  0.53680  0.14800  Biso   1.000  O
  O6       1.0000 0.71070  0.40150  0.50120  Biso   1.000  O
  O7       1.0000 0.26950  0.03680  0.35200  Biso   1.000  O
  O8       1.0000 0.78930  0.90150  0.99880  Biso   1.000  O
