data_image0
_cell_length_a       15.0393
_cell_length_b       15.0393
_cell_length_c       11.9587
_cell_angle_alpha    90
_cell_angle_beta     90
_cell_angle_gamma    90

_symmetry_space_group_name_H-M    "P 1"
_symmetry_int_tables_number       1

loop_
  _symmetry_equiv_pos_as_xyz
  'x, y, z'

loop_
  _atom_site_label
  _atom_site_occupancy
  _atom_site_fract_x
  _atom_site_fract_y
  _atom_site_fract_z
  _atom_site_thermal_displace_type
  _atom_site_B_iso_or_equiv
  _atom_site_type_symbol
  C1       1.0000 0.75110  0.25510  0.56201  Biso   1.000  C
  C2       1.0000 0.70790  0.32130  0.50330  Biso   1.000  C
  C3       1.0000 0.70930  0.32120  0.38780  Biso   1.000  C
  C4       1.0000 0.75390  0.25480  0.33100  Biso   1.000  C
  C5       1.0000 0.79710  0.18850  0.38970  Biso   1.000  C
  C6       1.0000 0.79570  0.18870  0.50520  Biso   1.000  C
  H1       1.0000 0.67780  0.36600  0.54150  Biso   1.000  H
  H2       1.0000 0.75480  0.25470  0.25320  Biso   1.000  H
  H3       1.0000 0.82480  0.14400  0.54480  Biso   1.000  H
  C7       1.0000 0.66540  0.38840  0.32820  Biso   1.000  C
  O1       1.0000 0.65000  0.46620  0.37160  Biso   1.000  O
  O2       1.0000 0.63790  0.37700  0.22610  Biso   1.000  O
  C8       1.0000 0.84230  0.12110  0.33210  Biso   1.000  C
  O3       1.0000 0.87700  0.13400  0.23380  Biso   1.000  O
  O4       1.0000 0.85230  0.04180  0.37360  Biso   1.000  O
  C9       1.0000 0.24890  0.74490  0.06201  Biso   1.000  C
  C10      1.0000 0.29210  0.67870  0.00330  Biso   1.000  C
  C11      1.0000 0.29070  0.67880  0.88780  Biso   1.000  C
  C12      1.0000 0.24610  0.74520  0.83100  Biso   1.000  C
  C13      1.0000 0.20290  0.81150  0.88970  Biso   1.000  C
  C14      1.0000 0.20430  0.81130  0.00520  Biso   1.000  C
  H4       1.0000 0.32220  0.63400  0.04150  Biso   1.000  H
  H5       1.0000 0.24520  0.74530  0.75320  Biso   1.000  H
  H6       1.0000 0.17520  0.85600  0.04480  Biso   1.000  H
  C15      1.0000 0.33460  0.61160  0.82820  Biso   1.000  C
  O5       1.0000 0.35000  0.53380  0.87160  Biso   1.000  O
  O6       1.0000 0.36210  0.62300  0.72610  Biso   1.000  O
  C16      1.0000 0.15770  0.87890  0.83210  Biso   1.000  C
  O7       1.0000 0.12300  0.86600  0.73380  Biso   1.000  O
  O8       1.0000 0.14770  0.95820  0.87360  Biso   1.000  O
  C17      1.0000 0.74490  0.75110  0.81201  Biso   1.000  C
  C18      1.0000 0.67870  0.70790  0.75330  Biso   1.000  C
  C19      1.0000 0.67880  0.70930  0.63780  Biso   1.000  C
  C20      1.0000 0.74520  0.75390  0.58100  Biso   1.000  C
  C21      1.0000 0.81150  0.79710  0.63970  Biso   1.000  C
  C22      1.0000 0.81130  0.79570  0.75520  Biso   1.000  C
  H7       1.0000 0.63400  0.67780  0.79150  Biso   1.000  H
  H8       1.0000 0.74530  0.75480  0.50320  Biso   1.000  H
  H9       1.0000 0.85600  0.82480  0.79480  Biso   1.000  H
  C23      1.0000 0.61160  0.66540  0.57820  Biso   1.000  C
  O9       1.0000 0.53380  0.65000  0.62160  Biso   1.000  O
  O10      1.0000 0.62300  0.63790  0.47610  Biso   1.000  O
  C24      1.0000 0.87890  0.84230  0.58210  Biso   1.000  C
  O11      1.0000 0.86600  0.87700  0.48380  Biso   1.000  O
  O12      1.0000 0.95820  0.85230  0.62360  Biso   1.000  O
  C25      1.0000 0.25510  0.24890  0.31201  Biso   1.000  C
  C26      1.0000 0.32130  0.29210  0.25330  Biso   1.000  C
  C27      1.0000 0.32120  0.29070  0.13780  Biso   1.000  C
  C28      1.0000 0.25480  0.24610  0.08100  Biso   1.000  C
  C29      1.0000 0.18850  0.20290  0.13970  Biso   1.000  C
  C30      1.0000 0.18870  0.20430  0.25520  Biso   1.000  C
  H10      1.0000 0.36600  0.32220  0.29150  Biso   1.000  H
  H11      1.0000 0.25470  0.24520  0.00320  Biso   1.000  H
  H12      1.0000 0.14400  0.17520  0.29480  Biso   1.000  H
  C31      1.0000 0.38840  0.33460  0.07820  Biso   1.000  C
  O13      1.0000 0.46620  0.35000  0.12160  Biso   1.000  O
  O14      1.0000 0.37700  0.36210  0.97610  Biso   1.000  O
  C32      1.0000 0.12110  0.15770  0.08210  Biso   1.000  C
  O15      1.0000 0.13400  0.12300  0.98380  Biso   1.000  O
  O16      1.0000 0.04180  0.14770  0.12360  Biso   1.000  O
  C33      1.0000 0.24890  0.25510  0.43799  Biso   1.000  C
  C34      1.0000 0.29210  0.32130  0.49670  Biso   1.000  C
  C35      1.0000 0.29070  0.32120  0.61220  Biso   1.000  C
  C36      1.0000 0.24610  0.25480  0.66900  Biso   1.000  C
  C37      1.0000 0.20290  0.18850  0.61030  Biso   1.000  C
  C38      1.0000 0.20430  0.18870  0.49480  Biso   1.000  C
  H13      1.0000 0.32220  0.36600  0.45850  Biso   1.000  H
  H14      1.0000 0.24520  0.25470  0.74680  Biso   1.000  H
  H15      1.0000 0.17520  0.14400  0.45520  Biso   1.000  H
  C39      1.0000 0.33460  0.38840  0.67180  Biso   1.000  C
  O17      1.0000 0.35000  0.46620  0.62840  Biso   1.000  O
  O18      1.0000 0.36210  0.37700  0.77390  Biso   1.000  O
  C40      1.0000 0.15770  0.12110  0.66790  Biso   1.000  C
  O19      1.0000 0.12300  0.13400  0.76620  Biso   1.000  O
  O20      1.0000 0.14770  0.04180  0.62640  Biso   1.000  O
  C41      1.0000 0.75110  0.74490  0.93799  Biso   1.000  C
  C42      1.0000 0.70790  0.67870  0.99670  Biso   1.000  C
  C43      1.0000 0.70930  0.67880  0.11220  Biso   1.000  C
  C44      1.0000 0.75390  0.74520  0.16900  Biso   1.000  C
  C45      1.0000 0.79710  0.81150  0.11030  Biso   1.000  C
  C46      1.0000 0.79570  0.81130  0.99480  Biso   1.000  C
  H16      1.0000 0.67780  0.63400  0.95850  Biso   1.000  H
  H17      1.0000 0.75480  0.74530  0.24680  Biso   1.000  H
  H18      1.0000 0.82480  0.85600  0.95520  Biso   1.000  H
  C47      1.0000 0.66540  0.61160  0.17180  Biso   1.000  C
  O21      1.0000 0.65000  0.53380  0.12840  Biso   1.000  O
  O22      1.0000 0.63790  0.62300  0.27390  Biso   1.000  O
  C48      1.0000 0.84230  0.87890  0.16790  Biso   1.000  C
  O23      1.0000 0.87700  0.86600  0.26620  Biso   1.000  O
  O24      1.0000 0.85230  0.95820  0.12640  Biso   1.000  O
  C49      1.0000 0.25510  0.75110  0.18799  Biso   1.000  C
  C50      1.0000 0.32130  0.70790  0.24670  Biso   1.000  C
  C51      1.0000 0.32120  0.70930  0.36220  Biso   1.000  C
  C52      1.0000 0.25480  0.75390  0.41900  Biso   1.000  C
  C53      1.0000 0.18850  0.79710  0.36030  Biso   1.000  C
  C54      1.0000 0.18870  0.79570  0.24480  Biso   1.000  C
  H19      1.0000 0.36600  0.67780  0.20850  Biso   1.000  H
  H20      1.0000 0.25470  0.75480  0.49680  Biso   1.000  H
  H21      1.0000 0.14400  0.82480  0.20520  Biso   1.000  H
  C55      1.0000 0.38840  0.66540  0.42180  Biso   1.000  C
  O25      1.0000 0.46620  0.65000  0.37840  Biso   1.000  O
  O26      1.0000 0.37700  0.63790  0.52390  Biso   1.000  O
  C56      1.0000 0.12110  0.84230  0.41790  Biso   1.000  C
  O27      1.0000 0.13400  0.87700  0.51620  Biso   1.000  O
  O28      1.0000 0.04180  0.85230  0.37640  Biso   1.000  O
  C57      1.0000 0.74490  0.24890  0.68799  Biso   1.000  C
  C58      1.0000 0.67870  0.29210  0.74670  Biso   1.000  C
  C59      1.0000 0.67880  0.29070  0.86220  Biso   1.000  C
  C60      1.0000 0.74520  0.24610  0.91900  Biso   1.000  C
  C61      1.0000 0.81150  0.20290  0.86030  Biso   1.000  C
  C62      1.0000 0.81130  0.20430  0.74480  Biso   1.000  C
  H22      1.0000 0.63400  0.32220  0.70850  Biso   1.000  H
  H23      1.0000 0.74530  0.24520  0.99680  Biso   1.000  H
  H24      1.0000 0.85600  0.17520  0.70520  Biso   1.000  H
  C63      1.0000 0.61160  0.33460  0.92180  Biso   1.000  C
  O29      1.0000 0.53380  0.35000  0.87840  Biso   1.000  O
  O30      1.0000 0.62300  0.36210  0.02390  Biso   1.000  O
  C64      1.0000 0.87890  0.15770  0.91790  Biso   1.000  C
  O31      1.0000 0.86600  0.12300  0.01620  Biso   1.000  O
  O32      1.0000 0.95820  0.14770  0.87640  Biso   1.000  O
  V1       1.0000 0.93700  0.06300  0.12500  Biso   1.000  V
  V2       1.0000 0.06300  0.93700  0.62500  Biso   1.000  V
  V3       1.0000 0.93700  0.93700  0.37500  Biso   1.000  V
  V4       1.0000 0.06300  0.06300  0.87500  Biso   1.000  V
  O33      1.0000 0.98180  0.00000  0.25000  Biso   1.000  O
  O34      1.0000 0.01820  0.00000  0.75000  Biso   1.000  O
  O35      1.0000 0.00000  0.98180  0.50000  Biso   1.000  O
  O36      1.0000 0.00000  0.01820  0.00000  Biso   1.000  O
  V5       1.0000 0.55700  0.55700  0.37500  Biso   1.000  V
  V6       1.0000 0.44300  0.44300  0.87500  Biso   1.000  V
  V7       1.0000 0.44300  0.55700  0.62500  Biso   1.000  V
  V8       1.0000 0.55700  0.44300  0.12500  Biso   1.000  V
  O37      1.0000 0.49010  0.50000  0.25000  Biso   1.000  O
  O38      1.0000 0.50990  0.50000  0.75000  Biso   1.000  O
  O39      1.0000 0.50000  0.49010  0.50000  Biso   1.000  O
  O40      1.0000 0.50000  0.50990  0.00000  Biso   1.000  O
