data_image0
_cell_length_a       20.2996
_cell_length_b       9.4001
_cell_length_c       9.6941
_cell_angle_alpha    90
_cell_angle_beta     111.31
_cell_angle_gamma    90

_symmetry_space_group_name_H-M    "P 1"
_symmetry_int_tables_number       1

loop_
  _symmetry_equiv_pos_as_xyz
  'x, y, z'

loop_
  _atom_site_label
  _atom_site_occupancy
  _atom_site_fract_x
  _atom_site_fract_y
  _atom_site_fract_z
  _atom_site_thermal_displace_type
  _atom_site_B_iso_or_equiv
  _atom_site_type_symbol
  P1       1.0000 0.39466  0.41990  0.96426  Biso   1.000  P
  F1       1.0000 0.31292  0.12274  0.16309  Biso   1.000  F
  O1       1.0000 0.44000  0.45586  0.12312  Biso   1.000  O
  O2       1.0000 0.43845  0.36620  0.87825  Biso   1.000  O
  F2       1.0000 0.55997  0.78084  0.38300  Biso   1.000  F
  F3       1.0000 0.26405  0.40722  0.14605  Biso   1.000  F
  O3       1.0000 0.33953  0.30780  0.95548  Biso   1.000  O
  O4       1.0000 0.35762  0.56260  0.89610  Biso   1.000  O
  H1       1.0000 0.33150  0.56400  0.82300  Biso   1.000  H
  P2       1.0000 0.89466  0.91990  0.96426  Biso   1.000  P
  F4       1.0000 0.81292  0.62274  0.16309  Biso   1.000  F
  O5       1.0000 0.94000  0.95586  0.12312  Biso   1.000  O
  O6       1.0000 0.93845  0.86620  0.87825  Biso   1.000  O
  F5       1.0000 0.05997  0.28084  0.38300  Biso   1.000  F
  F6       1.0000 0.76405  0.90722  0.14605  Biso   1.000  F
  O7       1.0000 0.83953  0.80780  0.95548  Biso   1.000  O
  O8       1.0000 0.85762  0.06260  0.89610  Biso   1.000  O
  H2       1.0000 0.83150  0.06400  0.82300  Biso   1.000  H
  P3       1.0000 0.60534  0.41990  0.53574  Biso   1.000  P
  F7       1.0000 0.68708  0.12274  0.33691  Biso   1.000  F
  O9       1.0000 0.56000  0.45586  0.37688  Biso   1.000  O
  O10      1.0000 0.56155  0.36620  0.62175  Biso   1.000  O
  F8       1.0000 0.44003  0.78084  0.11700  Biso   1.000  F
  F9       1.0000 0.73595  0.40722  0.35395  Biso   1.000  F
  O11      1.0000 0.66047  0.30780  0.54452  Biso   1.000  O
  O12      1.0000 0.64238  0.56260  0.60390  Biso   1.000  O
  H3       1.0000 0.66850  0.56400  0.67700  Biso   1.000  H
  P4       1.0000 0.10534  0.91990  0.53574  Biso   1.000  P
  F10      1.0000 0.18708  0.62274  0.33691  Biso   1.000  F
  O13      1.0000 0.06000  0.95586  0.37688  Biso   1.000  O
  O14      1.0000 0.06155  0.86620  0.62175  Biso   1.000  O
  F11      1.0000 0.94003  0.28084  0.11700  Biso   1.000  F
  F12      1.0000 0.23595  0.90722  0.35395  Biso   1.000  F
  O15      1.0000 0.16047  0.80780  0.54452  Biso   1.000  O
  O16      1.0000 0.14238  0.06260  0.60390  Biso   1.000  O
  H4       1.0000 0.16850  0.06400  0.67700  Biso   1.000  H
  P5       1.0000 0.60534  0.58010  0.03574  Biso   1.000  P
  F13      1.0000 0.68708  0.87726  0.83691  Biso   1.000  F
  O17      1.0000 0.56000  0.54414  0.87688  Biso   1.000  O
  O18      1.0000 0.56155  0.63380  0.12175  Biso   1.000  O
  F14      1.0000 0.44003  0.21916  0.61700  Biso   1.000  F
  F15      1.0000 0.73595  0.59278  0.85395  Biso   1.000  F
  O19      1.0000 0.66047  0.69220  0.04452  Biso   1.000  O
  O20      1.0000 0.64238  0.43740  0.10390  Biso   1.000  O
  H5       1.0000 0.66850  0.43600  0.17700  Biso   1.000  H
  P6       1.0000 0.10534  0.08010  0.03574  Biso   1.000  P
  F16      1.0000 0.18708  0.37726  0.83691  Biso   1.000  F
  O21      1.0000 0.06000  0.04414  0.87688  Biso   1.000  O
  O22      1.0000 0.06155  0.13380  0.12175  Biso   1.000  O
  F17      1.0000 0.94003  0.71916  0.61700  Biso   1.000  F
  F18      1.0000 0.23595  0.09278  0.85395  Biso   1.000  F
  O23      1.0000 0.16047  0.19220  0.04452  Biso   1.000  O
  O24      1.0000 0.14238  0.93740  0.10390  Biso   1.000  O
  H6       1.0000 0.16850  0.93600  0.17700  Biso   1.000  H
  P7       1.0000 0.39466  0.58010  0.46426  Biso   1.000  P
  F19      1.0000 0.31292  0.87726  0.66309  Biso   1.000  F
  O25      1.0000 0.44000  0.54414  0.62312  Biso   1.000  O
  O26      1.0000 0.43845  0.63380  0.37825  Biso   1.000  O
  F20      1.0000 0.55997  0.21916  0.88300  Biso   1.000  F
  F21      1.0000 0.26405  0.59278  0.64605  Biso   1.000  F
  O27      1.0000 0.33953  0.69220  0.45548  Biso   1.000  O
  O28      1.0000 0.35762  0.43740  0.39610  Biso   1.000  O
  H7       1.0000 0.33150  0.43600  0.32300  Biso   1.000  H
  P8       1.0000 0.89466  0.08010  0.46426  Biso   1.000  P
  F22      1.0000 0.81292  0.37726  0.66309  Biso   1.000  F
  O29      1.0000 0.94000  0.04414  0.62312  Biso   1.000  O
  O30      1.0000 0.93845  0.13380  0.37825  Biso   1.000  O
  F23      1.0000 0.05997  0.71916  0.88300  Biso   1.000  F
  F24      1.0000 0.76405  0.09278  0.64605  Biso   1.000  F
  O31      1.0000 0.83953  0.19220  0.45548  Biso   1.000  O
  O32      1.0000 0.85762  0.93740  0.39610  Biso   1.000  O
  H8       1.0000 0.83150  0.93600  0.32300  Biso   1.000  H
  Sc1      1.0000 0.50000  0.62667  0.25000  Biso   1.000  Sc
  Sc2      1.0000 0.00000  0.12667  0.25000  Biso   1.000  Sc
  Sc3      1.0000 0.50000  0.37333  0.75000  Biso   1.000  Sc
  Sc4      1.0000 0.00000  0.87333  0.75000  Biso   1.000  Sc
  Sc5      1.0000 0.25000  0.25000  0.00000  Biso   1.000  Sc
  Sc6      1.0000 0.75000  0.25000  0.50000  Biso   1.000  Sc
  Sc7      1.0000 0.75000  0.75000  0.00000  Biso   1.000  Sc
  Sc8      1.0000 0.25000  0.75000  0.50000  Biso   1.000  Sc
