data_image0
_cell_length_a       9.7748
_cell_length_b       11.9795
_cell_length_c       11.9795
_cell_angle_alpha    90.3078
_cell_angle_beta     110.049
_cell_angle_gamma    110.049

_symmetry_space_group_name_H-M    P 1
_symmetry_int_tables_number       1

loop_
  _symmetry_equiv_pos_as_xyz
  'x, y, z'

loop_
  _atom_site_label
  _atom_site_occupancy
  _atom_site_fract_x
  _atom_site_fract_y
  _atom_site_fract_z
  _atom_site_thermal_displace_type
  _atom_site_B_iso_or_equiv
  _atom_site_type_symbol
  Zn1      1.0000 0.84653  0.15922  0.37406  Biso   1.000  Zn
  Zn2      1.0000 0.34653  0.37406  0.15922  Biso   1.000  Zn
  H1       1.0000 0.19940  0.47340  0.74460  Biso   1.000  H
  H2       1.0000 0.99310  0.12610  0.76090  Biso   1.000  H
  H3       1.0000 0.32260  0.50380  0.94900  Biso   1.000  H
  H4       1.0000 0.12470  0.16460  0.96480  Biso   1.000  H
  H5       1.0000 0.20290  0.47770  0.34430  Biso   1.000  H
  H6       1.0000 0.05540  0.44810  0.22590  Biso   1.000  H
  H7       1.0000 0.03460  0.41880  0.34780  Biso   1.000  H
  H8       1.0000 0.69940  0.74460  0.47340  Biso   1.000  H
  H9       1.0000 0.49310  0.76090  0.12610  Biso   1.000  H
  H10      1.0000 0.82260  0.94900  0.50380  Biso   1.000  H
  H11      1.0000 0.62470  0.96480  0.16460  Biso   1.000  H
  H12      1.0000 0.70290  0.34430  0.47770  Biso   1.000  H
  H13      1.0000 0.55540  0.22590  0.44810  Biso   1.000  H
  H14      1.0000 0.53460  0.34780  0.41880  Biso   1.000  H
  C1       1.0000 0.00010  0.27710  0.59610  Biso   1.000  C
  C2       1.0000 0.10170  0.30240  0.27980  Biso   1.000  C
  C3       1.0000 0.08140  0.29650  0.73030  Biso   1.000  C
  C4       1.0000 0.18180  0.40930  0.78810  Biso   1.000  C
  C5       1.0000 0.05990  0.20360  0.79740  Biso   1.000  C
  C6       1.0000 0.25590  0.42680  0.91060  Biso   1.000  C
  C7       1.0000 0.13910  0.22780  0.91980  Biso   1.000  C
  C8       1.0000 0.09830  0.42210  0.30130  Biso   1.000  C
  C9       1.0000 0.50010  0.59610  0.27710  Biso   1.000  C
  C10      1.0000 0.60170  0.27980  0.30240  Biso   1.000  C
  C11      1.0000 0.58140  0.73030  0.29650  Biso   1.000  C
  C12      1.0000 0.68180  0.78810  0.40930  Biso   1.000  C
  C13      1.0000 0.55990  0.79740  0.20360  Biso   1.000  C
  C14      1.0000 0.75590  0.91060  0.42680  Biso   1.000  C
  C15      1.0000 0.63910  0.91980  0.22780  Biso   1.000  C
  C16      1.0000 0.59830  0.30130  0.42210  Biso   1.000  C
  N1       1.0000 0.01510  0.20038  0.30582  Biso   1.000  N
  N2       1.0000 0.23570  0.33719  0.97689  Biso   1.000  N
  N3       1.0000 0.05460  0.11300  0.27060  Biso   1.000  N
  N4       1.0000 0.19300  0.27865  0.22915  Biso   1.000  N
  N5       1.0000 0.16060  0.15920  0.22520  Biso   1.000  N
  N6       1.0000 0.51510  0.30582  0.20038  Biso   1.000  N
  N7       1.0000 0.73570  0.97689  0.33719  Biso   1.000  N
  N8       1.0000 0.55460  0.27060  0.11300  Biso   1.000  N
  N9       1.0000 0.69300  0.22915  0.27865  Biso   1.000  N
  N10      1.0000 0.66060  0.22520  0.15920  Biso   1.000  N
  O1       1.0000 0.91040  0.16993  0.54817  Biso   1.000  O
  O2       1.0000 0.02040  0.36089  0.53891  Biso   1.000  O
  O3       1.0000 0.41040  0.54817  0.16993  Biso   1.000  O
  O4       1.0000 0.52040  0.53891  0.36089  Biso   1.000  O
  Zn3      1.0000 0.65347  0.62594  0.84078  Biso   1.000  Zn
  Zn4      1.0000 0.15347  0.84078  0.62594  Biso   1.000  Zn
  H15      1.0000 0.30060  0.25540  0.52660  Biso   1.000  H
  H16      1.0000 0.50690  0.23910  0.87390  Biso   1.000  H
  H17      1.0000 0.17740  0.05100  0.49620  Biso   1.000  H
  H18      1.0000 0.37530  0.03520  0.83540  Biso   1.000  H
  H19      1.0000 0.29710  0.65570  0.52230  Biso   1.000  H
  H20      1.0000 0.44460  0.77410  0.55190  Biso   1.000  H
  H21      1.0000 0.46540  0.65220  0.58120  Biso   1.000  H
  H22      1.0000 0.80060  0.52660  0.25540  Biso   1.000  H
  H23      1.0000 0.00690  0.87390  0.23910  Biso   1.000  H
  H24      1.0000 0.67740  0.49620  0.05100  Biso   1.000  H
  H25      1.0000 0.87530  0.83540  0.03520  Biso   1.000  H
  H26      1.0000 0.79710  0.52230  0.65570  Biso   1.000  H
  H27      1.0000 0.94460  0.55190  0.77410  Biso   1.000  H
  H28      1.0000 0.96540  0.58120  0.65220  Biso   1.000  H
  C17      1.0000 0.49990  0.40390  0.72290  Biso   1.000  C
  C18      1.0000 0.39830  0.72020  0.69760  Biso   1.000  C
  C19      1.0000 0.41860  0.26970  0.70350  Biso   1.000  C
  C20      1.0000 0.31820  0.21190  0.59070  Biso   1.000  C
  C21      1.0000 0.44010  0.20260  0.79640  Biso   1.000  C
  C22      1.0000 0.24410  0.08940  0.57320  Biso   1.000  C
  C23      1.0000 0.36090  0.08020  0.77220  Biso   1.000  C
  C24      1.0000 0.40170  0.69870  0.57790  Biso   1.000  C
  C25      1.0000 0.99990  0.72290  0.40390  Biso   1.000  C
  C26      1.0000 0.89830  0.69760  0.72020  Biso   1.000  C
  C27      1.0000 0.91860  0.70350  0.26970  Biso   1.000  C
  C28      1.0000 0.81820  0.59070  0.21190  Biso   1.000  C
  C29      1.0000 0.94010  0.79640  0.20260  Biso   1.000  C
  C30      1.0000 0.74410  0.57320  0.08940  Biso   1.000  C
  C31      1.0000 0.86090  0.77220  0.08020  Biso   1.000  C
  C32      1.0000 0.90170  0.57790  0.69870  Biso   1.000  C
  N11      1.0000 0.48490  0.69418  0.79962  Biso   1.000  N
  N12      1.0000 0.26430  0.02311  0.66281  Biso   1.000  N
  N13      1.0000 0.44540  0.72940  0.88700  Biso   1.000  N
  N14      1.0000 0.30700  0.77085  0.72135  Biso   1.000  N
  N15      1.0000 0.33940  0.77480  0.84080  Biso   1.000  N
  N16      1.0000 0.98490  0.79962  0.69418  Biso   1.000  N
  N17      1.0000 0.76430  0.66281  0.02311  Biso   1.000  N
  N18      1.0000 0.94540  0.88700  0.72940  Biso   1.000  N
  N19      1.0000 0.80700  0.72135  0.77085  Biso   1.000  N
  N20      1.0000 0.83940  0.84080  0.77480  Biso   1.000  N
  O5       1.0000 0.58960  0.45183  0.83007  Biso   1.000  O
  O6       1.0000 0.47960  0.46109  0.63911  Biso   1.000  O
  O7       1.0000 0.08960  0.83007  0.45183  Biso   1.000  O
  O8       1.0000 0.97960  0.63911  0.46109  Biso   1.000  O
