data_image0
_cell_length_a       14.8209
_cell_length_b       19.1508
_cell_length_c       31.354
_cell_angle_alpha    101.865
_cell_angle_beta     90
_cell_angle_gamma    112.765

_symmetry_space_group_name_H-M    P 1
_symmetry_int_tables_number       1

loop_
  _symmetry_equiv_pos_as_xyz
  'x, y, z'

loop_
  _atom_site_label
  _atom_site_occupancy
  _atom_site_fract_x
  _atom_site_fract_y
  _atom_site_fract_z
  _atom_site_thermal_displace_type
  _atom_site_B_iso_or_equiv
  _atom_site_type_symbol
  Zn1      1.0000 0.71704  0.24552  0.56034  Biso   1.000  Zn
  Zn2      1.0000 0.18737  0.65844  0.73121  Biso   1.000  Zn
  Zn3      1.0000 0.03653  0.82820  0.91020  Biso   1.000  Zn
  Zn4      1.0000 0.52848  0.24552  0.06034  Biso   1.000  Zn
  Zn5      1.0000 0.47107  0.65844  0.23121  Biso   1.000  Zn
  Zn6      1.0000 0.79167  0.82820  0.41020  Biso   1.000  Zn
  H1       1.0000 0.61080  0.14160  0.61740  Biso   1.000  H
  H2       1.0000 0.47880  0.03240  0.61750  Biso   1.000  H
  H3       1.0000 0.38320  0.04280  0.50000  Biso   1.000  H
  H4       1.0000 0.53040  0.14800  0.50110  Biso   1.000  H
  H5       1.0000 0.57290  0.31780  0.57600  Biso   1.000  H
  H6       1.0000 0.54620  0.41820  0.62320  Biso   1.000  H
  H7       1.0000 0.79740  0.46200  0.69410  Biso   1.000  H
  H8       1.0000 0.81730  0.36220  0.64430  Biso   1.000  H
  H9       1.0000 0.39630  0.51120  0.67210  Biso   1.000  H
  H10      1.0000 0.25490  0.53520  0.67990  Biso   1.000  H
  H11      1.0000 0.39040  0.72460  0.76910  Biso   1.000  H
  H12      1.0000 0.53680  0.70520  0.76580  Biso   1.000  H
  H13      1.0000 0.08060  0.65140  0.64630  Biso   1.000  H
  H14      1.0000 0.09680  0.72780  0.59540  Biso   1.000  H
  H15      1.0000 0.34370  0.88780  0.66390  Biso   1.000  H
  H16      1.0000 0.32120  0.80600  0.71280  Biso   1.000  H
  H17      1.0000 0.72420  0.73180  0.81600  Biso   1.000  H
  H18      1.0000 0.84190  0.80260  0.87460  Biso   1.000  H
  H19      1.0000 0.99610  0.67760  0.83930  Biso   1.000  H
  H20      1.0000 0.88190  0.60120  0.78080  Biso   1.000  H
  H21      1.0000 0.84890  0.75940  0.47610  Biso   1.000  H
  H22      1.0000 0.98180  0.77620  0.52310  Biso   1.000  H
  H23      1.0000 0.13410  0.97580  0.48490  Biso   1.000  H
  H24      1.0000 0.99580  0.95440  0.44080  Biso   1.000  H
  H25      1.0000 0.53080  0.14160  0.11740  Biso   1.000  H
  H26      1.0000 0.55360  0.03240  0.11750  Biso   1.000  H
  H27      1.0000 0.65960  0.04280  0.00000  Biso   1.000  H
  H28      1.0000 0.61760  0.14800  0.00110  Biso   1.000  H
  H29      1.0000 0.74490  0.31780  0.07600  Biso   1.000  H
  H30      1.0000 0.87200  0.41820  0.12320  Biso   1.000  H
  H31      1.0000 0.66460  0.46200  0.19410  Biso   1.000  H
  H32      1.0000 0.54490  0.36220  0.14430  Biso   1.000  H
  H33      1.0000 0.11490  0.51120  0.17210  Biso   1.000  H
  H34      1.0000 0.28030  0.53520  0.17990  Biso   1.000  H
  H35      1.0000 0.33420  0.72460  0.26910  Biso   1.000  H
  H36      1.0000 0.16840  0.70520  0.26580  Biso   1.000  H
  H37      1.0000 0.57080  0.65140  0.14630  Biso   1.000  H
  H38      1.0000 0.63100  0.72780  0.09540  Biso   1.000  H
  H39      1.0000 0.54410  0.88780  0.16390  Biso   1.000  H
  H40      1.0000 0.48480  0.80600  0.21280  Biso   1.000  H
  H41      1.0000 0.00760  0.73180  0.31600  Biso   1.000  H
  H42      1.0000 0.96070  0.80260  0.37460  Biso   1.000  H
  H43      1.0000 0.68150  0.67760  0.33930  Biso   1.000  H
  H44      1.0000 0.71930  0.60120  0.28080  Biso   1.000  H
  H45      1.0000 0.91050  0.75940  0.97610  Biso   1.000  H
  H46      1.0000 0.79440  0.77620  0.02310  Biso   1.000  H
  H47      1.0000 0.84170  0.97580  0.98490  Biso   1.000  H
  H48      1.0000 0.95860  0.95440  0.94080  Biso   1.000  H
  C1       1.0000 0.56550  0.11840  0.59210  Biso   1.000  C
  C2       1.0000 0.48610  0.05580  0.59310  Biso   1.000  C
  C3       1.0000 0.41260  0.02420  0.55820  Biso   1.000  C
  C4       1.0000 0.43080  0.06060  0.52440  Biso   1.000  C
  C5       1.0000 0.51920  0.12400  0.52540  Biso   1.000  C
  C6       1.0000 0.61910  0.34800  0.60040  Biso   1.000  C
  C7       1.0000 0.60230  0.40760  0.62840  Biso   1.000  C
  C8       1.0000 0.66970  0.45080  0.66400  Biso   1.000  C
  C9       1.0000 0.75010  0.43320  0.66980  Biso   1.000  C
  C10      1.0000 0.76130  0.37340  0.64010  Biso   1.000  C
  C11      1.0000 0.65710  0.51440  0.69580  Biso   1.000  C
  C12      1.0000 0.57120  0.58700  0.71980  Biso   1.000  C
  C13      1.0000 0.71710  0.61360  0.75470  Biso   1.000  C
  C14      1.0000 0.48130  0.60260  0.71860  Biso   1.000  C
  C15      1.0000 0.39750  0.55520  0.69300  Biso   1.000  C
  C16      1.0000 0.31360  0.57080  0.69720  Biso   1.000  C
  C17      1.0000 0.39190  0.68040  0.74910  Biso   1.000  C
  C18      1.0000 0.47960  0.66900  0.74760  Biso   1.000  C
  C19      1.0000 0.13530  0.69980  0.64990  Biso   1.000  C
  C20      1.0000 0.14440  0.74560  0.61970  Biso   1.000  C
  C21      1.0000 0.28900  0.83940  0.65950  Biso   1.000  C
  C22      1.0000 0.27440  0.78940  0.68830  Biso   1.000  C
  C23      1.0000 0.79180  0.65820  0.79200  Biso   1.000  C
  C24      1.0000 0.77910  0.71920  0.82020  Biso   1.000  C
  C25      1.0000 0.85040  0.76120  0.85490  Biso   1.000  C
  C26      1.0000 0.94010  0.68860  0.83470  Biso   1.000  C
  C27      1.0000 0.87240  0.64300  0.79960  Biso   1.000  C
  C28      1.0000 0.90800  0.80440  0.47840  Biso   1.000  C
  C29      1.0000 0.98660  0.81320  0.50640  Biso   1.000  C
  C30      1.0000 0.07100  0.87780  0.50860  Biso   1.000  C
  C31      1.0000 0.07560  0.93100  0.48380  Biso   1.000  C
  C32      1.0000 0.99310  0.91760  0.45750  Biso   1.000  C
  C33      1.0000 0.16040  0.89040  0.53780  Biso   1.000  C
  C34      1.0000 0.22990  0.86380  0.59210  Biso   1.000  C
  C35      1.0000 0.31970  0.95780  0.55990  Biso   1.000  C
  C36      1.0000 0.21900  0.81400  0.62440  Biso   1.000  C
  C37      1.0000 0.55290  0.11840  0.09210  Biso   1.000  C
  C38      1.0000 0.56970  0.05580  0.09310  Biso   1.000  C
  C39      1.0000 0.61160  0.02420  0.05820  Biso   1.000  C
  C40      1.0000 0.62980  0.06060  0.02440  Biso   1.000  C
  C41      1.0000 0.60480  0.12400  0.02540  Biso   1.000  C
  C42      1.0000 0.72890  0.34800  0.10040  Biso   1.000  C
  C43      1.0000 0.80530  0.40760  0.12840  Biso   1.000  C
  C44      1.0000 0.78110  0.45080  0.16400  Biso   1.000  C
  C45      1.0000 0.68310  0.43320  0.16980  Biso   1.000  C
  C46      1.0000 0.61210  0.37340  0.14010  Biso   1.000  C
  C47      1.0000 0.85730  0.51440  0.19580  Biso   1.000  C
  C48      1.0000 0.01580  0.58700  0.21980  Biso   1.000  C
  C49      1.0000 0.89650  0.61360  0.25470  Biso   1.000  C
  C50      1.0000 0.12130  0.60260  0.21860  Biso   1.000  C
  C51      1.0000 0.15770  0.55520  0.19300  Biso   1.000  C
  C52      1.0000 0.25720  0.57080  0.19720  Biso   1.000  C
  C53      1.0000 0.28850  0.68040  0.24910  Biso   1.000  C
  C54      1.0000 0.18940  0.66900  0.24760  Biso   1.000  C
  C55      1.0000 0.56450  0.69980  0.14990  Biso   1.000  C
  C56      1.0000 0.60120  0.74560  0.11970  Biso   1.000  C
  C57      1.0000 0.55040  0.83940  0.15950  Biso   1.000  C
  C58      1.0000 0.51500  0.78940  0.18830  Biso   1.000  C
  C59      1.0000 0.86640  0.65820  0.29200  Biso   1.000  C
  C60      1.0000 0.94010  0.71920  0.32020  Biso   1.000  C
  C61      1.0000 0.91080  0.76120  0.35490  Biso   1.000  C
  C62      1.0000 0.74850  0.68860  0.33470  Biso   1.000  C
  C63      1.0000 0.77060  0.64300  0.29960  Biso   1.000  C
  C64      1.0000 0.89640  0.80440  0.97840  Biso   1.000  C
  C65      1.0000 0.82660  0.81320  0.00640  Biso   1.000  C
  C66      1.0000 0.80680  0.87780  0.00860  Biso   1.000  C
  C67      1.0000 0.85540  0.93100  0.98380  Biso   1.000  C
  C68      1.0000 0.92450  0.91760  0.95750  Biso   1.000  C
  C69      1.0000 0.73000  0.89040  0.03780  Biso   1.000  C
  C70      1.0000 0.63390  0.86380  0.09210  Biso   1.000  C
  C71      1.0000 0.63810  0.95780  0.05990  Biso   1.000  C
  C72      1.0000 0.59500  0.81400  0.12440  Biso   1.000  C
  I1       1.0000 0.72689  0.28530  0.48782  Biso   1.000  I
  I2       1.0000 0.84611  0.21324  0.59572  Biso   1.000  I
  I3       1.0000 0.21059  0.74662  0.80674  Biso   1.000  I
  I4       1.0000 0.03304  0.53604  0.70634  Biso   1.000  I
  I5       1.0000 0.11799  0.94444  0.87479  Biso   1.000  I
  I6       1.0000 0.11395  0.75674  0.94626  Biso   1.000  I
  I7       1.0000 0.55841  0.28530  0.98782  Biso   1.000  I
  I8       1.0000 0.36713  0.21324  0.09572  Biso   1.000  I
  I9       1.0000 0.53603  0.74662  0.30674  Biso   1.000  I
  I10      1.0000 0.50300  0.53604  0.20634  Biso   1.000  I
  I11      1.0000 0.82645  0.94444  0.37479  Biso   1.000  I
  I12      1.0000 0.64279  0.75674  0.44626  Biso   1.000  I
  N1       1.0000 0.58620  0.15140  0.55750  Biso   1.000  N
  N2       1.0000 0.69730  0.33180  0.60640  Biso   1.000  N
  N3       1.0000 0.72760  0.55360  0.72820  Biso   1.000  N
  N4       1.0000 0.64160  0.63420  0.75120  Biso   1.000  N
  N5       1.0000 0.57500  0.52740  0.68990  Biso   1.000  N
  N6       1.0000 0.92970  0.74800  0.86260  Biso   1.000  N
  N7       1.0000 0.31170  0.63320  0.72420  Biso   1.000  N
  N8       1.0000 0.20250  0.72280  0.68400  Biso   1.000  N
  N9       1.0000 0.91130  0.85600  0.45450  Biso   1.000  N
  N10      1.0000 0.14810  0.84680  0.56560  Biso   1.000  N
  N11      1.0000 0.31340  0.91880  0.59090  Biso   1.000  N
  N12      1.0000 0.24540  0.94580  0.53120  Biso   1.000  N
  N13      1.0000 0.56520  0.15140  0.05750  Biso   1.000  N
  N14      1.0000 0.63450  0.33180  0.10640  Biso   1.000  N
  N15      1.0000 0.82600  0.55360  0.22820  Biso   1.000  N
  N16      1.0000 0.99260  0.63420  0.25120  Biso   1.000  N
  N17      1.0000 0.95240  0.52740  0.18990  Biso   1.000  N
  N18      1.0000 0.81830  0.74800  0.36260  Biso   1.000  N
  N19      1.0000 0.32150  0.63320  0.22420  Biso   1.000  N
  N20      1.0000 0.52030  0.72280  0.18400  Biso   1.000  N
  N21      1.0000 0.94470  0.85600  0.95450  Biso   1.000  N
  N22      1.0000 0.69870  0.84680  0.06560  Biso   1.000  N
  N23      1.0000 0.60540  0.91880  0.09090  Biso   1.000  N
  N24      1.0000 0.70040  0.94580  0.03120  Biso   1.000  N
  Zn7      1.0000 0.47152  0.75448  0.93966  Biso   1.000  Zn
  Zn8      1.0000 0.52893  0.34156  0.76879  Biso   1.000  Zn
  Zn9      1.0000 0.20833  0.17180  0.58980  Biso   1.000  Zn
  Zn10     1.0000 0.28296  0.75448  0.43966  Biso   1.000  Zn
  Zn11     1.0000 0.81263  0.34156  0.26879  Biso   1.000  Zn
  Zn12     1.0000 0.96347  0.17180  0.08980  Biso   1.000  Zn
  H49      1.0000 0.46920  0.85840  0.88260  Biso   1.000  H
  H50      1.0000 0.44640  0.96760  0.88250  Biso   1.000  H
  H51      1.0000 0.34040  0.95720  0.00000  Biso   1.000  H
  H52      1.0000 0.38240  0.85200  0.99890  Biso   1.000  H
  H53      1.0000 0.25510  0.68220  0.92400  Biso   1.000  H
  H54      1.0000 0.12800  0.58180  0.87680  Biso   1.000  H
  H55      1.0000 0.33540  0.53800  0.80590  Biso   1.000  H
  H56      1.0000 0.45510  0.63780  0.85570  Biso   1.000  H
  H57      1.0000 0.88510  0.48880  0.82790  Biso   1.000  H
  H58      1.0000 0.71970  0.46480  0.82010  Biso   1.000  H
  H59      1.0000 0.66580  0.27540  0.73090  Biso   1.000  H
  H60      1.0000 0.83160  0.29480  0.73420  Biso   1.000  H
  H61      1.0000 0.42920  0.34860  0.85370  Biso   1.000  H
  H62      1.0000 0.36900  0.27220  0.90460  Biso   1.000  H
  H63      1.0000 0.45590  0.11220  0.83610  Biso   1.000  H
  H64      1.0000 0.51520  0.19400  0.78720  Biso   1.000  H
  H65      1.0000 0.99240  0.26820  0.68400  Biso   1.000  H
  H66      1.0000 0.03930  0.19740  0.62540  Biso   1.000  H
  H67      1.0000 0.31850  0.32240  0.66070  Biso   1.000  H
  H68      1.0000 0.28070  0.39880  0.71920  Biso   1.000  H
  H69      1.0000 0.08950  0.24060  0.02390  Biso   1.000  H
  H70      1.0000 0.20560  0.22380  0.97690  Biso   1.000  H
  H71      1.0000 0.15830  0.02420  0.01510  Biso   1.000  H
  H72      1.0000 0.04140  0.04560  0.05920  Biso   1.000  H
  H73      1.0000 0.38920  0.85840  0.38260  Biso   1.000  H
  H74      1.0000 0.52120  0.96760  0.38250  Biso   1.000  H
  H75      1.0000 0.61680  0.95720  0.50000  Biso   1.000  H
  H76      1.0000 0.46960  0.85200  0.49890  Biso   1.000  H
  H77      1.0000 0.42710  0.68220  0.42400  Biso   1.000  H
  H78      1.0000 0.45380  0.58180  0.37680  Biso   1.000  H
  H79      1.0000 0.20260  0.53800  0.30590  Biso   1.000  H
  H80      1.0000 0.18270  0.63780  0.35570  Biso   1.000  H
  H81      1.0000 0.60370  0.48880  0.32790  Biso   1.000  H
  H82      1.0000 0.74510  0.46480  0.32010  Biso   1.000  H
  H83      1.0000 0.60960  0.27540  0.23090  Biso   1.000  H
  H84      1.0000 0.46320  0.29480  0.23420  Biso   1.000  H
  H85      1.0000 0.91940  0.34860  0.35370  Biso   1.000  H
  H86      1.0000 0.90320  0.27220  0.40460  Biso   1.000  H
  H87      1.0000 0.65630  0.11220  0.33610  Biso   1.000  H
  H88      1.0000 0.67880  0.19400  0.28720  Biso   1.000  H
  H89      1.0000 0.27580  0.26820  0.18400  Biso   1.000  H
  H90      1.0000 0.15810  0.19740  0.12540  Biso   1.000  H
  H91      1.0000 0.00390  0.32240  0.16070  Biso   1.000  H
  H92      1.0000 0.11810  0.39880  0.21920  Biso   1.000  H
  H93      1.0000 0.15110  0.24060  0.52390  Biso   1.000  H
  H94      1.0000 0.01820  0.22380  0.47690  Biso   1.000  H
  H95      1.0000 0.86590  0.02420  0.51510  Biso   1.000  H
  H96      1.0000 0.00420  0.04560  0.55920  Biso   1.000  H
  C73      1.0000 0.44710  0.88160  0.90790  Biso   1.000  C
  C74      1.0000 0.43030  0.94420  0.90690  Biso   1.000  C
  C75      1.0000 0.38840  0.97580  0.94180  Biso   1.000  C
  C76      1.0000 0.37020  0.93940  0.97560  Biso   1.000  C
  C77      1.0000 0.39520  0.87600  0.97460  Biso   1.000  C
  C78      1.0000 0.27110  0.65200  0.89960  Biso   1.000  C
  C79      1.0000 0.19470  0.59240  0.87160  Biso   1.000  C
  C80      1.0000 0.21890  0.54920  0.83600  Biso   1.000  C
  C81      1.0000 0.31690  0.56680  0.83020  Biso   1.000  C
  C82      1.0000 0.38790  0.62660  0.85990  Biso   1.000  C
  C83      1.0000 0.14270  0.48560  0.80420  Biso   1.000  C
  C84      1.0000 0.98420  0.41300  0.78020  Biso   1.000  C
  C85      1.0000 0.10350  0.38640  0.74530  Biso   1.000  C
  C86      1.0000 0.87870  0.39740  0.78140  Biso   1.000  C
  C87      1.0000 0.84230  0.44480  0.80700  Biso   1.000  C
  C88      1.0000 0.74280  0.42920  0.80280  Biso   1.000  C
  C89      1.0000 0.71150  0.31960  0.75090  Biso   1.000  C
  C90      1.0000 0.81060  0.33100  0.75240  Biso   1.000  C
  C91      1.0000 0.43550  0.30020  0.85010  Biso   1.000  C
  C92      1.0000 0.39880  0.25440  0.88030  Biso   1.000  C
  C93      1.0000 0.44960  0.16060  0.84050  Biso   1.000  C
  C94      1.0000 0.48500  0.21060  0.81170  Biso   1.000  C
  C95      1.0000 0.13360  0.34180  0.70800  Biso   1.000  C
  C96      1.0000 0.05990  0.28080  0.67980  Biso   1.000  C
  C97      1.0000 0.08920  0.23880  0.64510  Biso   1.000  C
  C98      1.0000 0.25150  0.31140  0.66530  Biso   1.000  C
  C99      1.0000 0.22940  0.35700  0.70040  Biso   1.000  C
  C100     1.0000 0.10360  0.19560  0.02160  Biso   1.000  C
  C101     1.0000 0.17340  0.18680  0.99360  Biso   1.000  C
  C102     1.0000 0.19320  0.12220  0.99140  Biso   1.000  C
  C103     1.0000 0.14460  0.06900  0.01620  Biso   1.000  C
  C104     1.0000 0.07550  0.08240  0.04250  Biso   1.000  C
  C105     1.0000 0.27000  0.10960  0.96220  Biso   1.000  C
  C106     1.0000 0.36610  0.13620  0.90790  Biso   1.000  C
  C107     1.0000 0.36190  0.04220  0.94010  Biso   1.000  C
  C108     1.0000 0.40500  0.18600  0.87560  Biso   1.000  C
  C109     1.0000 0.43450  0.88160  0.40790  Biso   1.000  C
  C110     1.0000 0.51390  0.94420  0.40690  Biso   1.000  C
  C111     1.0000 0.58740  0.97580  0.44180  Biso   1.000  C
  C112     1.0000 0.56920  0.93940  0.47560  Biso   1.000  C
  C113     1.0000 0.48080  0.87600  0.47460  Biso   1.000  C
  C114     1.0000 0.38090  0.65200  0.39960  Biso   1.000  C
  C115     1.0000 0.39770  0.59240  0.37160  Biso   1.000  C
  C116     1.0000 0.33030  0.54920  0.33600  Biso   1.000  C
  C117     1.0000 0.24990  0.56680  0.33020  Biso   1.000  C
  C118     1.0000 0.23870  0.62660  0.35990  Biso   1.000  C
  C119     1.0000 0.34290  0.48560  0.30420  Biso   1.000  C
  C120     1.0000 0.42880  0.41300  0.28020  Biso   1.000  C
  C121     1.0000 0.28290  0.38640  0.24530  Biso   1.000  C
  C122     1.0000 0.51870  0.39740  0.28140  Biso   1.000  C
  C123     1.0000 0.60250  0.44480  0.30700  Biso   1.000  C
  C124     1.0000 0.68640  0.42920  0.30280  Biso   1.000  C
  C125     1.0000 0.60810  0.31960  0.25090  Biso   1.000  C
  C126     1.0000 0.52040  0.33100  0.25240  Biso   1.000  C
  C127     1.0000 0.86470  0.30020  0.35010  Biso   1.000  C
  C128     1.0000 0.85560  0.25440  0.38030  Biso   1.000  C
  C129     1.0000 0.71100  0.16060  0.34050  Biso   1.000  C
  C130     1.0000 0.72560  0.21060  0.31170  Biso   1.000  C
  C131     1.0000 0.20820  0.34180  0.20800  Biso   1.000  C
  C132     1.0000 0.22090  0.28080  0.17980  Biso   1.000  C
  C133     1.0000 0.14960  0.23880  0.14510  Biso   1.000  C
  C134     1.0000 0.05990  0.31140  0.16530  Biso   1.000  C
  C135     1.0000 0.12760  0.35700  0.20040  Biso   1.000  C
  C136     1.0000 0.09200  0.19560  0.52160  Biso   1.000  C
  C137     1.0000 0.01340  0.18680  0.49360  Biso   1.000  C
  C138     1.0000 0.92900  0.12220  0.49140  Biso   1.000  C
  C139     1.0000 0.92440  0.06900  0.51620  Biso   1.000  C
  C140     1.0000 0.00690  0.08240  0.54250  Biso   1.000  C
  C141     1.0000 0.83960  0.10960  0.46220  Biso   1.000  C
  C142     1.0000 0.77010  0.13620  0.40790  Biso   1.000  C
  C143     1.0000 0.68030  0.04220  0.44010  Biso   1.000  C
  C144     1.0000 0.78100  0.18600  0.37560  Biso   1.000  C
  I13      1.0000 0.44159  0.71470  0.01218  Biso   1.000  I
  I14      1.0000 0.63287  0.78676  0.90428  Biso   1.000  I
  I15      1.0000 0.46397  0.25338  0.69326  Biso   1.000  I
  I16      1.0000 0.49700  0.46396  0.79366  Biso   1.000  I
  I17      1.0000 0.17355  0.05556  0.62521  Biso   1.000  I
  I18      1.0000 0.35721  0.24326  0.55374  Biso   1.000  I
  I19      1.0000 0.27311  0.71470  0.51218  Biso   1.000  I
  I20      1.0000 0.15389  0.78676  0.40428  Biso   1.000  I
  I21      1.0000 0.78941  0.25338  0.19326  Biso   1.000  I
  I22      1.0000 0.96696  0.46396  0.29366  Biso   1.000  I
  I23      1.0000 0.88201  0.05556  0.12521  Biso   1.000  I
  I24      1.0000 0.88605  0.24326  0.05374  Biso   1.000  I
  N25      1.0000 0.43480  0.84860  0.94250  Biso   1.000  N
  N26      1.0000 0.36550  0.66820  0.89360  Biso   1.000  N
  N27      1.0000 0.17400  0.44640  0.77180  Biso   1.000  N
  N28      1.0000 0.00740  0.36580  0.74880  Biso   1.000  N
  N29      1.0000 0.04760  0.47260  0.81010  Biso   1.000  N
  N30      1.0000 0.18170  0.25200  0.63740  Biso   1.000  N
  N31      1.0000 0.67850  0.36680  0.77580  Biso   1.000  N
  N32      1.0000 0.47970  0.27720  0.81600  Biso   1.000  N
  N33      1.0000 0.05530  0.14400  0.04550  Biso   1.000  N
  N34      1.0000 0.30130  0.15320  0.93440  Biso   1.000  N
  N35      1.0000 0.39460  0.08120  0.90910  Biso   1.000  N
  N36      1.0000 0.29960  0.05420  0.96880  Biso   1.000  N
  N37      1.0000 0.41380  0.84860  0.44250  Biso   1.000  N
  N38      1.0000 0.30270  0.66820  0.39360  Biso   1.000  N
  N39      1.0000 0.27240  0.44640  0.27180  Biso   1.000  N
  N40      1.0000 0.35840  0.36580  0.24880  Biso   1.000  N
  N41      1.0000 0.42500  0.47260  0.31010  Biso   1.000  N
  N42      1.0000 0.07030  0.25200  0.13740  Biso   1.000  N
  N43      1.0000 0.68830  0.36680  0.27580  Biso   1.000  N
  N44      1.0000 0.79750  0.27720  0.31600  Biso   1.000  N
  N45      1.0000 0.08870  0.14400  0.54550  Biso   1.000  N
  N46      1.0000 0.85190  0.15320  0.43440  Biso   1.000  N
  N47      1.0000 0.68660  0.08120  0.40910  Biso   1.000  N
  N48      1.0000 0.75460  0.05420  0.46880  Biso   1.000  N
