data_image0
_cell_length_a       15.101
_cell_length_b       18.6528
_cell_length_c       30.2397
_cell_angle_alpha    100.155
_cell_angle_beta     90
_cell_angle_gamma    113.878

_symmetry_space_group_name_H-M    P 1
_symmetry_int_tables_number       1

loop_
  _symmetry_equiv_pos_as_xyz
  'x, y, z'

loop_
  _atom_site_label
  _atom_site_occupancy
  _atom_site_fract_x
  _atom_site_fract_y
  _atom_site_fract_z
  _atom_site_thermal_displace_type
  _atom_site_B_iso_or_equiv
  _atom_site_type_symbol
  Zn1      1.0000 0.26907  0.73940  0.44800  Biso   1.000  Zn
  Zn2      1.0000 0.19823  0.15088  0.59948  Biso   1.000  Zn
  Zn3      1.0000 0.82368  0.35946  0.28192  Biso   1.000  Zn
  Zn4      1.0000 0.47033  0.73940  0.94800  Biso   1.000  Zn
  Zn5      1.0000 0.95265  0.15088  0.09948  Biso   1.000  Zn
  Zn6      1.0000 0.53578  0.35946  0.78192  Biso   1.000  Zn
  H1       1.0000 0.99080  0.02000  0.57370  Biso   1.000  H
  H2       1.0000 0.85200  0.00060  0.53110  Biso   1.000  H
  H3       1.0000 0.01810  0.18780  0.47390  Biso   1.000  H
  H4       1.0000 0.15060  0.20360  0.52000  Biso   1.000  H
  H5       1.0000 0.51980  0.96700  0.39160  Biso   1.000  H
  H6       1.0000 0.91210  0.27240  0.41770  Biso   1.000  H
  H7       1.0000 0.92410  0.36040  0.36870  Biso   1.000  H
  H8       1.0000 0.66370  0.11560  0.34620  Biso   1.000  H
  H9       1.0000 0.01240  0.31000  0.16210  Biso   1.000  H
  H10      1.0000 0.12680  0.39240  0.21970  Biso   1.000  H
  H11      1.0000 0.27290  0.25200  0.18920  Biso   1.000  H
  H12      1.0000 0.15320  0.17460  0.13280  Biso   1.000  H
  H13      1.0000 0.20470  0.53180  0.30700  Biso   1.000  H
  H14      1.0000 0.18030  0.62780  0.35900  Biso   1.000  H
  H15      1.0000 0.42540  0.68040  0.42920  Biso   1.000  H
  H16      1.0000 0.45700  0.58660  0.37920  Biso   1.000  H
  H17      1.0000 0.60340  0.49600  0.33460  Biso   1.000  H
  H18      1.0000 0.74320  0.47280  0.33570  Biso   1.000  H
  H19      1.0000 0.62510  0.28580  0.23710  Biso   1.000  H
  H20      1.0000 0.48090  0.30000  0.23550  Biso   1.000  H
  H21      1.0000 0.45200  0.83760  0.51400  Biso   1.000  H
  H22      1.0000 0.60530  0.94020  0.51120  Biso   1.000  H
  H23      1.0000 0.37160  0.85900  0.39390  Biso   1.000  H
  H24      1.0000 0.68690  0.20340  0.29730  Biso   1.000  H
  H25      1.0000 0.02920  0.02000  0.07370  Biso   1.000  H
  H26      1.0000 0.14860  0.00060  0.03110  Biso   1.000  H
  H27      1.0000 0.16970  0.18780  0.97390  Biso   1.000  H
  H28      1.0000 0.05300  0.20360  0.02000  Biso   1.000  H
  H29      1.0000 0.44720  0.96700  0.89160  Biso   1.000  H
  H30      1.0000 0.36030  0.27240  0.91770  Biso   1.000  H
  H31      1.0000 0.43630  0.36040  0.86870  Biso   1.000  H
  H32      1.0000 0.45190  0.11560  0.84620  Biso   1.000  H
  H33      1.0000 0.29760  0.31000  0.66210  Biso   1.000  H
  H34      1.0000 0.26560  0.39240  0.71970  Biso   1.000  H
  H35      1.0000 0.97910  0.25200  0.68920  Biso   1.000  H
  H36      1.0000 0.02140  0.17460  0.63280  Biso   1.000  H
  H37      1.0000 0.32710  0.53180  0.80700  Biso   1.000  H
  H38      1.0000 0.44750  0.62780  0.85900  Biso   1.000  H
  H39      1.0000 0.25500  0.68040  0.92920  Biso   1.000  H
  H40      1.0000 0.12960  0.58660  0.87920  Biso   1.000  H
  H41      1.0000 0.89260  0.49600  0.83460  Biso   1.000  H
  H42      1.0000 0.72960  0.47280  0.83570  Biso   1.000  H
  H43      1.0000 0.66070  0.28580  0.73710  Biso   1.000  H
  H44      1.0000 0.81910  0.30000  0.73550  Biso   1.000  H
  H45      1.0000 0.38560  0.83760  0.01400  Biso   1.000  H
  H46      1.0000 0.33490  0.94020  0.01120  Biso   1.000  H
  H47      1.0000 0.48740  0.85900  0.89390  Biso   1.000  H
  H48      1.0000 0.51650  0.20340  0.79730  Biso   1.000  H
  C1       1.0000 0.99510  0.05540  0.55390  Biso   1.000  C
  C2       1.0000 0.91260  0.04300  0.52870  Biso   1.000  C
  C3       1.0000 0.92140  0.09560  0.49920  Biso   1.000  C
  C4       1.0000 0.01040  0.15400  0.49500  Biso   1.000  C
  C5       1.0000 0.08900  0.16240  0.52240  Biso   1.000  C
  C6       1.0000 0.83430  0.08820  0.47160  Biso   1.000  C
  C7       1.0000 0.67490  0.02580  0.44960  Biso   1.000  C
  C8       1.0000 0.77220  0.12940  0.41880  Biso   1.000  C
  C9       1.0000 0.57740  0.96320  0.45280  Biso   1.000  C
  C10      1.0000 0.50750  0.94040  0.41640  Biso   1.000  C
  C11      1.0000 0.78360  0.18280  0.38690  Biso   1.000  C
  C12      1.0000 0.86400  0.25740  0.39360  Biso   1.000  C
  C13      1.0000 0.87150  0.30920  0.36390  Biso   1.000  C
  C14      1.0000 0.71920  0.16520  0.35150  Biso   1.000  C
  C15      1.0000 0.06540  0.29740  0.16860  Biso   1.000  C
  C16      1.0000 0.13340  0.34720  0.20260  Biso   1.000  C
  C17      1.0000 0.21380  0.33020  0.21180  Biso   1.000  C
  C18      1.0000 0.21930  0.26500  0.18490  Biso   1.000  C
  C19      1.0000 0.14680  0.21860  0.15150  Biso   1.000  C
  C20      1.0000 0.28900  0.38000  0.24810  Biso   1.000  C
  C21      1.0000 0.34850  0.48460  0.30650  Biso   1.000  C
  C22      1.0000 0.43550  0.41260  0.28400  Biso   1.000  C
  C23      1.0000 0.33250  0.54780  0.33790  Biso   1.000  C
  C24      1.0000 0.25080  0.56140  0.33200  Biso   1.000  C
  C25      1.0000 0.23720  0.61900  0.36310  Biso   1.000  C
  C26      1.0000 0.38030  0.64980  0.40400  Biso   1.000  C
  C27      1.0000 0.39920  0.59400  0.37470  Biso   1.000  C
  C28      1.0000 0.52530  0.39920  0.28620  Biso   1.000  C
  C29      1.0000 0.60590  0.45140  0.31480  Biso   1.000  C
  C30      1.0000 0.69000  0.43880  0.31440  Biso   1.000  C
  C31      1.0000 0.62030  0.32920  0.25710  Biso   1.000  C
  C32      1.0000 0.53370  0.33640  0.25610  Biso   1.000  C
  C33      1.0000 0.46600  0.86280  0.48860  Biso   1.000  C
  C34      1.0000 0.55700  0.92500  0.48710  Biso   1.000  C
  C35      1.0000 0.41940  0.87680  0.41850  Biso   1.000  C
  C36      1.0000 0.73240  0.21800  0.32250  Biso   1.000  C
  C37      1.0000 0.06030  0.05540  0.05390  Biso   1.000  C
  C38      1.0000 0.13040  0.04300  0.02870  Biso   1.000  C
  C39      1.0000 0.17420  0.09560  0.99920  Biso   1.000  C
  C40      1.0000 0.14360  0.15400  0.99500  Biso   1.000  C
  C41      1.0000 0.07340  0.16240  0.02240  Biso   1.000  C
  C42      1.0000 0.25390  0.08820  0.97160  Biso   1.000  C
  C43      1.0000 0.35090  0.02580  0.94960  Biso   1.000  C
  C44      1.0000 0.35720  0.12940  0.91880  Biso   1.000  C
  C45      1.0000 0.38580  0.96320  0.95280  Biso   1.000  C
  C46      1.0000 0.43290  0.94040  0.91640  Biso   1.000  C
  C47      1.0000 0.39920  0.18280  0.88690  Biso   1.000  C
  C48      1.0000 0.39340  0.25740  0.89360  Biso   1.000  C
  C49      1.0000 0.43770  0.30920  0.86390  Biso   1.000  C
  C50      1.0000 0.44600  0.16520  0.85150  Biso   1.000  C
  C51      1.0000 0.23200  0.29740  0.66860  Biso   1.000  C
  C52      1.0000 0.21380  0.34720  0.70260  Biso   1.000  C
  C53      1.0000 0.11640  0.33020  0.71180  Biso   1.000  C
  C54      1.0000 0.04570  0.26500  0.68490  Biso   1.000  C
  C55      1.0000 0.07180  0.21860  0.65150  Biso   1.000  C
  C56      1.0000 0.09100  0.38000  0.74810  Biso   1.000  C
  C57      1.0000 0.13610  0.48460  0.80650  Biso   1.000  C
  C58      1.0000 0.97710  0.41260  0.78400  Biso   1.000  C
  C59      1.0000 0.21530  0.54780  0.83790  Biso   1.000  C
  C60      1.0000 0.31060  0.56140  0.83200  Biso   1.000  C
  C61      1.0000 0.38180  0.61900  0.86310  Biso   1.000  C
  C62      1.0000 0.26950  0.64980  0.90400  Biso   1.000  C
  C63      1.0000 0.19480  0.59400  0.87470  Biso   1.000  C
  C64      1.0000 0.87390  0.39920  0.78620  Biso   1.000  C
  C65      1.0000 0.84550  0.45140  0.81480  Biso   1.000  C
  C66      1.0000 0.74880  0.43880  0.81440  Biso   1.000  C
  C67      1.0000 0.70890  0.32920  0.75710  Biso   1.000  C
  C68      1.0000 0.80270  0.33640  0.75610  Biso   1.000  C
  C69      1.0000 0.39680  0.86280  0.98860  Biso   1.000  C
  C70      1.0000 0.36800  0.92500  0.98710  Biso   1.000  C
  C71      1.0000 0.45740  0.87680  0.91850  Biso   1.000  C
  C72      1.0000 0.48560  0.21800  0.82250  Biso   1.000  C
  I1       1.0000 0.17087  0.03810  0.64123  Biso   1.000  I
  I2       1.0000 0.35047  0.22858  0.56314  Biso   1.000  I
  I3       1.0000 0.81205  0.27092  0.20509  Biso   1.000  I
  I4       1.0000 0.96910  0.48868  0.31223  Biso   1.000  I
  I5       1.0000 0.13961  0.77136  0.41354  Biso   1.000  I
  I6       1.0000 0.26114  0.68230  0.51793  Biso   1.000  I
  I7       1.0000 0.86723  0.03810  0.14123  Biso   1.000  I
  I8       1.0000 0.87811  0.22858  0.06314  Biso   1.000  I
  I9       1.0000 0.45887  0.27092  0.70509  Biso   1.000  I
  I10      1.0000 0.51958  0.48868  0.81223  Biso   1.000  I
  I11      1.0000 0.63175  0.77136  0.91354  Biso   1.000  I
  I12      1.0000 0.42116  0.68230  0.01793  Biso   1.000  I
  N1       1.0000 0.08230  0.11580  0.55180  Biso   1.000  N
  N2       1.0000 0.74800  0.03140  0.47670  Biso   1.000  N
  N3       1.0000 0.68340  0.07220  0.42010  Biso   1.000  N
  N4       1.0000 0.84920  0.13920  0.44370  Biso   1.000  N
  N5       1.0000 0.06910  0.23140  0.14380  Biso   1.000  N
  N6       1.0000 0.36620  0.36280  0.25240  Biso   1.000  N
  N7       1.0000 0.43030  0.47380  0.31240  Biso   1.000  N
  N8       1.0000 0.27840  0.44140  0.27330  Biso   1.000  N
  N9       1.0000 0.29960  0.66280  0.39840  Biso   1.000  N
  N10      1.0000 0.69850  0.37900  0.28440  Biso   1.000  N
  N11      1.0000 0.80680  0.28800  0.32930  Biso   1.000  N
  N12      1.0000 0.39910  0.83960  0.45390  Biso   1.000  N
  N13      1.0000 0.03350  0.11580  0.05180  Biso   1.000  N
  N14      1.0000 0.28340  0.03140  0.97670  Biso   1.000  N
  N15      1.0000 0.38880  0.07220  0.92010  Biso   1.000  N
  N16      1.0000 0.29000  0.13920  0.94370  Biso   1.000  N
  N17      1.0000 0.16230  0.23140  0.64380  Biso   1.000  N
  N18      1.0000 0.99660  0.36280  0.75240  Biso   1.000  N
  N19      1.0000 0.04350  0.47380  0.81240  Biso   1.000  N
  N20      1.0000 0.16300  0.44140  0.77330  Biso   1.000  N
  N21      1.0000 0.36320  0.66280  0.89840  Biso   1.000  N
  N22      1.0000 0.68050  0.37900  0.78440  Biso   1.000  N
  N23      1.0000 0.48120  0.28800  0.82930  Biso   1.000  N
  N24      1.0000 0.44050  0.83960  0.95390  Biso   1.000  N
  Zn7      1.0000 0.52967  0.26060  0.05200  Biso   1.000  Zn
  Zn8      1.0000 0.04735  0.84912  0.90052  Biso   1.000  Zn
  Zn9      1.0000 0.46422  0.64054  0.21808  Biso   1.000  Zn
  Zn10     1.0000 0.73093  0.26060  0.55200  Biso   1.000  Zn
  Zn11     1.0000 0.80177  0.84912  0.40052  Biso   1.000  Zn
  Zn12     1.0000 0.17632  0.64054  0.71808  Biso   1.000  Zn
  H49      1.0000 0.97080  0.98000  0.92630  Biso   1.000  H
  H50      1.0000 0.85140  0.99940  0.96890  Biso   1.000  H
  H51      1.0000 0.83030  0.81220  0.02610  Biso   1.000  H
  H52      1.0000 0.94700  0.79640  0.98000  Biso   1.000  H
  H53      1.0000 0.55280  0.03300  0.10840  Biso   1.000  H
  H54      1.0000 0.63970  0.72760  0.08230  Biso   1.000  H
  H55      1.0000 0.56370  0.63960  0.13130  Biso   1.000  H
  H56      1.0000 0.54810  0.88440  0.15380  Biso   1.000  H
  H57      1.0000 0.70240  0.69000  0.33790  Biso   1.000  H
  H58      1.0000 0.73440  0.60760  0.28030  Biso   1.000  H
  H59      1.0000 0.02090  0.74800  0.31080  Biso   1.000  H
  H60      1.0000 0.97860  0.82540  0.36720  Biso   1.000  H
  H61      1.0000 0.67290  0.46820  0.19300  Biso   1.000  H
  H62      1.0000 0.55250  0.37220  0.14100  Biso   1.000  H
  H63      1.0000 0.74500  0.31960  0.07080  Biso   1.000  H
  H64      1.0000 0.87040  0.41340  0.12080  Biso   1.000  H
  H65      1.0000 0.10740  0.50400  0.16540  Biso   1.000  H
  H66      1.0000 0.27040  0.52720  0.16430  Biso   1.000  H
  H67      1.0000 0.33930  0.71420  0.26290  Biso   1.000  H
  H68      1.0000 0.18090  0.70000  0.26450  Biso   1.000  H
  H69      1.0000 0.61440  0.16240  0.98600  Biso   1.000  H
  H70      1.0000 0.66510  0.05980  0.98880  Biso   1.000  H
  H71      1.0000 0.51260  0.14100  0.10610  Biso   1.000  H
  H72      1.0000 0.48350  0.79660  0.20270  Biso   1.000  H
  H73      1.0000 0.00920  0.98000  0.42630  Biso   1.000  H
  H74      1.0000 0.14800  0.99940  0.46890  Biso   1.000  H
  H75      1.0000 0.98190  0.81220  0.52610  Biso   1.000  H
  H76      1.0000 0.84940  0.79640  0.48000  Biso   1.000  H
  H77      1.0000 0.48020  0.03300  0.60840  Biso   1.000  H
  H78      1.0000 0.08790  0.72760  0.58230  Biso   1.000  H
  H79      1.0000 0.07590  0.63960  0.63130  Biso   1.000  H
  H80      1.0000 0.33630  0.88440  0.65380  Biso   1.000  H
  H81      1.0000 0.98760  0.69000  0.83790  Biso   1.000  H
  H82      1.0000 0.87320  0.60760  0.78030  Biso   1.000  H
  H83      1.0000 0.72710  0.74800  0.81080  Biso   1.000  H
  H84      1.0000 0.84680  0.82540  0.86720  Biso   1.000  H
  H85      1.0000 0.79530  0.46820  0.69300  Biso   1.000  H
  H86      1.0000 0.81970  0.37220  0.64100  Biso   1.000  H
  H87      1.0000 0.57460  0.31960  0.57080  Biso   1.000  H
  H88      1.0000 0.54300  0.41340  0.62080  Biso   1.000  H
  H89      1.0000 0.39660  0.50400  0.66540  Biso   1.000  H
  H90      1.0000 0.25680  0.52720  0.66430  Biso   1.000  H
  H91      1.0000 0.37490  0.71420  0.76290  Biso   1.000  H
  H92      1.0000 0.51910  0.70000  0.76450  Biso   1.000  H
  H93      1.0000 0.54800  0.16240  0.48600  Biso   1.000  H
  H94      1.0000 0.39470  0.05980  0.48880  Biso   1.000  H
  H95      1.0000 0.62840  0.14100  0.60610  Biso   1.000  H
  H96      1.0000 0.31310  0.79660  0.70270  Biso   1.000  H
  C73      1.0000 0.93970  0.94460  0.94610  Biso   1.000  C
  C74      1.0000 0.86960  0.95700  0.97130  Biso   1.000  C
  C75      1.0000 0.82580  0.90440  0.00080  Biso   1.000  C
  C76      1.0000 0.85640  0.84600  0.00500  Biso   1.000  C
  C77      1.0000 0.92660  0.83760  0.97760  Biso   1.000  C
  C78      1.0000 0.74610  0.91180  0.02840  Biso   1.000  C
  C79      1.0000 0.64910  0.97420  0.05040  Biso   1.000  C
  C80      1.0000 0.64280  0.87060  0.08120  Biso   1.000  C
  C81      1.0000 0.61420  0.03680  0.04720  Biso   1.000  C
  C82      1.0000 0.56710  0.05960  0.08360  Biso   1.000  C
  C83      1.0000 0.60080  0.81720  0.11310  Biso   1.000  C
  C84      1.0000 0.60660  0.74260  0.10640  Biso   1.000  C
  C85      1.0000 0.56230  0.69080  0.13610  Biso   1.000  C
  C86      1.0000 0.55400  0.83480  0.14850  Biso   1.000  C
  C87      1.0000 0.76800  0.70260  0.33140  Biso   1.000  C
  C88      1.0000 0.78620  0.65280  0.29740  Biso   1.000  C
  C89      1.0000 0.88360  0.66980  0.28820  Biso   1.000  C
  C90      1.0000 0.95430  0.73500  0.31510  Biso   1.000  C
  C91      1.0000 0.92820  0.78140  0.34850  Biso   1.000  C
  C92      1.0000 0.90900  0.62000  0.25190  Biso   1.000  C
  C93      1.0000 0.86390  0.51540  0.19350  Biso   1.000  C
  C94      1.0000 0.02290  0.58740  0.21600  Biso   1.000  C
  C95      1.0000 0.78470  0.45220  0.16210  Biso   1.000  C
  C96      1.0000 0.68940  0.43860  0.16800  Biso   1.000  C
  C97      1.0000 0.61820  0.38100  0.13690  Biso   1.000  C
  C98      1.0000 0.73050  0.35020  0.09600  Biso   1.000  C
  C99      1.0000 0.80520  0.40600  0.12530  Biso   1.000  C
  C100     1.0000 0.12610  0.60080  0.21380  Biso   1.000  C
  C101     1.0000 0.15450  0.54860  0.18520  Biso   1.000  C
  C102     1.0000 0.25120  0.56120  0.18560  Biso   1.000  C
  C103     1.0000 0.29110  0.67080  0.24290  Biso   1.000  C
  C104     1.0000 0.19730  0.66360  0.24390  Biso   1.000  C
  C105     1.0000 0.60320  0.13720  0.01140  Biso   1.000  C
  C106     1.0000 0.63200  0.07500  0.01290  Biso   1.000  C
  C107     1.0000 0.54260  0.12320  0.08150  Biso   1.000  C
  C108     1.0000 0.51440  0.78200  0.17750  Biso   1.000  C
  C109     1.0000 0.00490  0.94460  0.44610  Biso   1.000  C
  C110     1.0000 0.08740  0.95700  0.47130  Biso   1.000  C
  C111     1.0000 0.07860  0.90440  0.50080  Biso   1.000  C
  C112     1.0000 0.98960  0.84600  0.50500  Biso   1.000  C
  C113     1.0000 0.91100  0.83760  0.47760  Biso   1.000  C
  C114     1.0000 0.16570  0.91180  0.52840  Biso   1.000  C
  C115     1.0000 0.32510  0.97420  0.55040  Biso   1.000  C
  C116     1.0000 0.22780  0.87060  0.58120  Biso   1.000  C
  C117     1.0000 0.42260  0.03680  0.54720  Biso   1.000  C
  C118     1.0000 0.49250  0.05960  0.58360  Biso   1.000  C
  C119     1.0000 0.21640  0.81720  0.61310  Biso   1.000  C
  C120     1.0000 0.13600  0.74260  0.60640  Biso   1.000  C
  C121     1.0000 0.12850  0.69080  0.63610  Biso   1.000  C
  C122     1.0000 0.28080  0.83480  0.64850  Biso   1.000  C
  C123     1.0000 0.93460  0.70260  0.83140  Biso   1.000  C
  C124     1.0000 0.86660  0.65280  0.79740  Biso   1.000  C
  C125     1.0000 0.78620  0.66980  0.78820  Biso   1.000  C
  C126     1.0000 0.78070  0.73500  0.81510  Biso   1.000  C
  C127     1.0000 0.85320  0.78140  0.84850  Biso   1.000  C
  C128     1.0000 0.71100  0.62000  0.75190  Biso   1.000  C
  C129     1.0000 0.65150  0.51540  0.69350  Biso   1.000  C
  C130     1.0000 0.56450  0.58740  0.71600  Biso   1.000  C
  C131     1.0000 0.66750  0.45220  0.66210  Biso   1.000  C
  C132     1.0000 0.74920  0.43860  0.66800  Biso   1.000  C
  C133     1.0000 0.76280  0.38100  0.63690  Biso   1.000  C
  C134     1.0000 0.61970  0.35020  0.59600  Biso   1.000  C
  C135     1.0000 0.60080  0.40600  0.62530  Biso   1.000  C
  C136     1.0000 0.47470  0.60080  0.71380  Biso   1.000  C
  C137     1.0000 0.39410  0.54860  0.68520  Biso   1.000  C
  C138     1.0000 0.31000  0.56120  0.68560  Biso   1.000  C
  C139     1.0000 0.37970  0.67080  0.74290  Biso   1.000  C
  C140     1.0000 0.46630  0.66360  0.74390  Biso   1.000  C
  C141     1.0000 0.53400  0.13720  0.51140  Biso   1.000  C
  C142     1.0000 0.44300  0.07500  0.51290  Biso   1.000  C
  C143     1.0000 0.58060  0.12320  0.58150  Biso   1.000  C
  C144     1.0000 0.26760  0.78200  0.67750  Biso   1.000  C
  I13      1.0000 0.13277  0.96190  0.85877  Biso   1.000  I
  I14      1.0000 0.12189  0.77142  0.93686  Biso   1.000  I
  I15      1.0000 0.54113  0.72908  0.29491  Biso   1.000  I
  I16      1.0000 0.48042  0.51132  0.18777  Biso   1.000  I
  I17      1.0000 0.36825  0.22864  0.08646  Biso   1.000  I
  I18      1.0000 0.57884  0.31770  0.98207  Biso   1.000  I
  I19      1.0000 0.82913  0.96190  0.35877  Biso   1.000  I
  I20      1.0000 0.64953  0.77142  0.43686  Biso   1.000  I
  I21      1.0000 0.18795  0.72908  0.79491  Biso   1.000  I
  I22      1.0000 0.03090  0.51132  0.68777  Biso   1.000  I
  I23      1.0000 0.86039  0.22864  0.58646  Biso   1.000  I
  I24      1.0000 0.73886  0.31770  0.48207  Biso   1.000  I
  N25      1.0000 0.96650  0.88420  0.94820  Biso   1.000  N
  N26      1.0000 0.71660  0.96860  0.02330  Biso   1.000  N
  N27      1.0000 0.61120  0.92780  0.07990  Biso   1.000  N
  N28      1.0000 0.71000  0.86080  0.05630  Biso   1.000  N
  N29      1.0000 0.83770  0.76860  0.35620  Biso   1.000  N
  N30      1.0000 0.00340  0.63720  0.24760  Biso   1.000  N
  N31      1.0000 0.95650  0.52620  0.18760  Biso   1.000  N
  N32      1.0000 0.83700  0.55860  0.22670  Biso   1.000  N
  N33      1.0000 0.63680  0.33720  0.10160  Biso   1.000  N
  N34      1.0000 0.31950  0.62100  0.21560  Biso   1.000  N
  N35      1.0000 0.51880  0.71200  0.17070  Biso   1.000  N
  N36      1.0000 0.55950  0.16040  0.04610  Biso   1.000  N
  N37      1.0000 0.91770  0.88420  0.44820  Biso   1.000  N
  N38      1.0000 0.25200  0.96860  0.52330  Biso   1.000  N
  N39      1.0000 0.31660  0.92780  0.57990  Biso   1.000  N
  N40      1.0000 0.15080  0.86080  0.55630  Biso   1.000  N
  N41      1.0000 0.93090  0.76860  0.85620  Biso   1.000  N
  N42      1.0000 0.63380  0.63720  0.74760  Biso   1.000  N
  N43      1.0000 0.56970  0.52620  0.68760  Biso   1.000  N
  N44      1.0000 0.72160  0.55860  0.72670  Biso   1.000  N
  N45      1.0000 0.70040  0.33720  0.60160  Biso   1.000  N
  N46      1.0000 0.30150  0.62100  0.71560  Biso   1.000  N
  N47      1.0000 0.19320  0.71200  0.67070  Biso   1.000  N
  N48      1.0000 0.60090  0.16040  0.54610  Biso   1.000  N
