data_image0
_cell_length_a       14.9202
_cell_length_b       19.1977
_cell_length_c       31.2333
_cell_angle_alpha    102.452
_cell_angle_beta     90
_cell_angle_gamma    112.867

_symmetry_space_group_name_H-M    P 1
_symmetry_int_tables_number       1

loop_
  _symmetry_equiv_pos_as_xyz
  'x, y, z'

loop_
  _atom_site_label
  _atom_site_occupancy
  _atom_site_fract_x
  _atom_site_fract_y
  _atom_site_fract_z
  _atom_site_thermal_displace_type
  _atom_site_B_iso_or_equiv
  _atom_site_type_symbol
  Zn1      1.0000 0.80065  0.83788  0.90642  Biso   1.000  Zn
  Zn2      1.0000 0.46981  0.64856  0.71986  Biso   1.000  Zn
  Zn3      1.0000 0.52589  0.24840  0.55803  Biso   1.000  Zn
  Zn4      1.0000 0.03723  0.83788  0.40642  Biso   1.000  Zn
  Zn5      1.0000 0.17875  0.64856  0.21986  Biso   1.000  Zn
  Zn6      1.0000 0.72251  0.24840  0.05803  Biso   1.000  Zn
  H1       1.0000 0.84920  0.78100  0.98030  Biso   1.000  H
  H2       1.0000 0.98050  0.79680  0.02700  Biso   1.000  H
  H3       1.0000 0.14430  0.98240  0.97970  Biso   1.000  H
  H4       1.0000 0.00750  0.96280  0.93590  Biso   1.000  H
  H5       1.0000 0.97460  0.81620  0.86900  Biso   1.000  H
  H6       1.0000 0.01540  0.73620  0.81340  Biso   1.000  H
  H7       1.0000 0.72800  0.60540  0.77990  Biso   1.000  H
  H8       1.0000 0.69490  0.68700  0.83740  Biso   1.000  H
  H9       1.0000 0.86640  0.39720  0.62870  Biso   1.000  H
  H10      1.0000 0.73950  0.30380  0.57940  Biso   1.000  H
  H11      1.0000 0.54490  0.36200  0.64530  Biso   1.000  H
  H12      1.0000 0.66580  0.45860  0.69650  Biso   1.000  H
  H13      1.0000 0.17310  0.69420  0.76460  Biso   1.000  H
  H14      1.0000 0.33690  0.71600  0.76270  Biso   1.000  H
  H15      1.0000 0.27520  0.52300  0.67290  Biso   1.000  H
  H16      1.0000 0.10980  0.49660  0.67070  Biso   1.000  H
  H17      1.0000 0.08680  0.64440  0.13230  Biso   1.000  H
  H18      1.0000 0.09920  0.72460  0.08490  Biso   1.000  H
  H19      1.0000 0.34190  0.88580  0.16040  Biso   1.000  H
  H20      1.0000 0.31650  0.80400  0.20800  Biso   1.000  H
  H21      1.0000 0.37880  0.06180  0.00430  Biso   1.000  H
  H22      1.0000 0.50360  0.00420  0.09740  Biso   1.000  H
  H23      1.0000 0.52590  0.16300  0.00420  Biso   1.000  H
  H24      1.0000 0.64800  0.10680  0.09420  Biso   1.000  H
  H25      1.0000 0.93180  0.78100  0.48030  Biso   1.000  H
  H26      1.0000 0.81630  0.79680  0.52700  Biso   1.000  H
  H27      1.0000 0.83810  0.98240  0.47970  Biso   1.000  H
  H28      1.0000 0.95530  0.96280  0.43590  Biso   1.000  H
  H29      1.0000 0.84160  0.81620  0.36900  Biso   1.000  H
  H30      1.0000 0.72080  0.73620  0.31340  Biso   1.000  H
  H31      1.0000 0.87740  0.60540  0.27990  Biso   1.000  H
  H32      1.0000 0.99210  0.68700  0.33740  Biso   1.000  H
  H33      1.0000 0.53080  0.39720  0.12870  Biso   1.000  H
  H34      1.0000 0.56430  0.30380  0.07940  Biso   1.000  H
  H35      1.0000 0.81710  0.36200  0.14530  Biso   1.000  H
  H36      1.0000 0.79280  0.45860  0.19650  Biso   1.000  H
  H37      1.0000 0.52110  0.69420  0.26460  Biso   1.000  H
  H38      1.0000 0.37910  0.71600  0.26270  Biso   1.000  H
  H39      1.0000 0.24780  0.52300  0.17290  Biso   1.000  H
  H40      1.0000 0.38680  0.49660  0.17070  Biso   1.000  H
  H41      1.0000 0.55760  0.64440  0.63230  Biso   1.000  H
  H42      1.0000 0.62540  0.72460  0.58490  Biso   1.000  H
  H43      1.0000 0.54390  0.88580  0.66040  Biso   1.000  H
  H44      1.0000 0.48750  0.80400  0.70800  Biso   1.000  H
  H45      1.0000 0.68300  0.06180  0.50430  Biso   1.000  H
  H46      1.0000 0.50060  0.00420  0.59740  Biso   1.000  H
  H47      1.0000 0.63710  0.16300  0.50420  Biso   1.000  H
  H48      1.0000 0.45880  0.10680  0.59420  Biso   1.000  H
  C1       1.0000 0.91060  0.82220  0.98000  Biso   1.000  C
  C2       1.0000 0.98850  0.83080  0.00790  Biso   1.000  C
  C3       1.0000 0.07810  0.89000  0.00700  Biso   1.000  C
  C4       1.0000 0.08431  0.94002  0.98010  Biso   1.000  C
  C5       1.0000 0.00270  0.92780  0.95400  Biso   1.000  C
  C6       1.0000 0.92400  0.77220  0.85080  Biso   1.000  C
  C7       1.0000 0.94870  0.72500  0.81770  Biso   1.000  C
  C8       1.0000 0.87629  0.66158  0.79060  Biso   1.000  C
  C9       1.0000 0.78000  0.64800  0.79810  Biso   1.000  C
  C10      1.0000 0.76110  0.69720  0.83230  Biso   1.000  C
  C11      1.0000 0.90274  0.60968  0.75490  Biso   1.000  C
  C12      1.0000 0.01748  0.57776  0.71990  Biso   1.000  C
  C13      1.0000 0.85829  0.50438  0.69850  Biso   1.000  C
  C14      1.0000 0.78020  0.44000  0.66760  Biso   1.000  C
  C15      1.0000 0.80110  0.39180  0.63260  Biso   1.000  C
  C16      1.0000 0.72500  0.33600  0.60360  Biso   1.000  C
  C17      1.0000 0.61122  0.37004  0.64200  Biso   1.000  C
  C18      1.0000 0.68267  0.42774  0.67250  Biso   1.000  C
  C19      1.0000 0.12299  0.59278  0.71810  Biso   1.000  C
  C20      1.0000 0.19220  0.65800  0.74520  Biso   1.000  C
  C21      1.0000 0.28970  0.67040  0.74400  Biso   1.000  C
  C22      1.0000 0.25390  0.55840  0.69160  Biso   1.000  C
  C23      1.0000 0.15520  0.54200  0.69030  Biso   1.000  C
  C24      1.0000 0.13820  0.69460  0.13830  Biso   1.000  C
  C25      1.0000 0.14600  0.74180  0.10970  Biso   1.000  C
  C26      1.0000 0.22223  0.81386  0.11720  Biso   1.000  C
  C27      1.0000 0.28790  0.83680  0.15430  Biso   1.000  C
  C28      1.0000 0.27300  0.78720  0.18210  Biso   1.000  C
  C29      1.0000 0.23276  0.86432  0.08630  Biso   1.000  C
  C30      1.0000 0.16601  0.89862  0.03395  Biso   1.000  C
  C31      1.0000 0.32640  0.96100  0.05550  Biso   1.000  C
  C32      1.0000 0.42140  0.02460  0.05330  Biso   1.000  C
  C33      1.0000 0.43230  0.07120  0.02440  Biso   1.000  C
  C34      1.0000 0.50540  0.03760  0.07870  Biso   1.000  C
  C35      1.0000 0.52050  0.13160  0.02450  Biso   1.000  C
  C36      1.0000 0.59120  0.09900  0.07670  Biso   1.000  C
  C37      1.0000 0.91160  0.82220  0.48000  Biso   1.000  C
  C38      1.0000 0.84230  0.83080  0.50790  Biso   1.000  C
  C39      1.0000 0.81190  0.89000  0.50700  Biso   1.000  C
  C40      1.0000 0.85571  0.94002  0.48010  Biso   1.000  C
  C41      1.0000 0.92510  0.92780  0.45400  Biso   1.000  C
  C42      1.0000 0.84820  0.77220  0.35080  Biso   1.000  C
  C43      1.0000 0.77630  0.72500  0.31770  Biso   1.000  C
  C44      1.0000 0.78529  0.66158  0.29060  Biso   1.000  C
  C45      1.0000 0.86800  0.64800  0.29810  Biso   1.000  C
  C46      1.0000 0.93610  0.69720  0.33230  Biso   1.000  C
  C47      1.0000 0.70694  0.60968  0.25490  Biso   1.000  C
  C48      1.0000 0.56028  0.57776  0.21990  Biso   1.000  C
  C49      1.0000 0.64609  0.50438  0.19850  Biso   1.000  C
  C50      1.0000 0.65980  0.44000  0.16760  Biso   1.000  C
  C51      1.0000 0.59070  0.39180  0.13260  Biso   1.000  C
  C52      1.0000 0.61100  0.33600  0.10360  Biso   1.000  C
  C53      1.0000 0.75882  0.37004  0.14200  Biso   1.000  C
  C54      1.0000 0.74507  0.42774  0.17250  Biso   1.000  C
  C55      1.0000 0.46979  0.59278  0.21810  Biso   1.000  C
  C56      1.0000 0.46580  0.65800  0.24520  Biso   1.000  C
  C57      1.0000 0.38070  0.67040  0.24400  Biso   1.000  C
  C58      1.0000 0.30450  0.55840  0.19160  Biso   1.000  C
  C59      1.0000 0.38680  0.54200  0.19030  Biso   1.000  C
  C60      1.0000 0.55640  0.69460  0.63830  Biso   1.000  C
  C61      1.0000 0.59580  0.74180  0.60970  Biso   1.000  C
  C62      1.0000 0.59163  0.81386  0.61720  Biso   1.000  C
  C63      1.0000 0.54890  0.83680  0.65430  Biso   1.000  C
  C64      1.0000 0.51420  0.78720  0.68210  Biso   1.000  C
  C65      1.0000 0.63156  0.86432  0.58630  Biso   1.000  C
  C66      1.0000 0.73261  0.89862  0.53395  Biso   1.000  C
  C67      1.0000 0.63460  0.96100  0.55550  Biso   1.000  C
  C68      1.0000 0.60320  0.02460  0.55330  Biso   1.000  C
  C69      1.0000 0.63890  0.07120  0.52440  Biso   1.000  C
  C70      1.0000 0.53220  0.03760  0.57870  Biso   1.000  C
  C71      1.0000 0.61110  0.13160  0.52450  Biso   1.000  C
  C72      1.0000 0.50780  0.09900  0.57670  Biso   1.000  C
  I1       1.0000 0.82468  0.95072  0.87231  Biso   1.000  I
  I2       1.0000 0.65054  0.76068  0.93932  Biso   1.000  I
  I3       1.0000 0.54664  0.73824  0.79476  Biso   1.000  I
  I4       1.0000 0.49778  0.52482  0.69199  Biso   1.000  I
  I5       1.0000 0.36296  0.22514  0.59008  Biso   1.000  I
  I6       1.0000 0.57479  0.29866  0.48898  Biso   1.000  I
  I7       1.0000 0.12604  0.95072  0.37231  Biso   1.000  I
  I8       1.0000 0.11014  0.76068  0.43932  Biso   1.000  I
  I9       1.0000 0.19160  0.73824  0.29476  Biso   1.000  I
  I10      1.0000 0.02704  0.52482  0.19199  Biso   1.000  I
  I11      1.0000 0.86218  0.22514  0.09008  Biso   1.000  I
  I12      1.0000 0.72387  0.29866  0.98898  Biso   1.000  I
  N1       1.0000 0.91689  0.86838  0.95304  Biso   1.000  N
  N2       1.0000 0.83074  0.75808  0.85850  Biso   1.000  N
  N3       1.0000 0.99748  0.62876  0.75045  Biso   1.000  N
  N4       1.0000 0.95196  0.51532  0.69232  Biso   1.000  N
  N5       1.0000 0.83002  0.54844  0.73025  Biso   1.000  N
  N6       1.0000 0.32064  0.62168  0.71767  Biso   1.000  N
  N7       1.0000 0.63161  0.32502  0.60785  Biso   1.000  N
  N8       1.0000 0.20028  0.71696  0.17420  Biso   1.000  N
  N9       1.0000 0.15224  0.85168  0.06142  Biso   1.000  N
  N10      1.0000 0.25169  0.95238  0.02843  Biso   1.000  N
  N11      1.0000 0.32117  0.91974  0.08564  Biso   1.000  N
  N12      1.0000 0.59810  0.14800  0.05141  Biso   1.000  N
  N13      1.0000 0.95149  0.86838  0.45304  Biso   1.000  N
  N14      1.0000 0.92734  0.75808  0.35850  Biso   1.000  N
  N15      1.0000 0.63128  0.62876  0.25045  Biso   1.000  N
  N16      1.0000 0.56336  0.51532  0.19232  Biso   1.000  N
  N17      1.0000 0.71842  0.54844  0.23025  Biso   1.000  N
  N18      1.0000 0.30104  0.62168  0.21767  Biso   1.000  N
  N19      1.0000 0.69341  0.32502  0.10785  Biso   1.000  N
  N20      1.0000 0.51668  0.71696  0.67420  Biso   1.000  N
  N21      1.0000 0.69944  0.85168  0.56142  Biso   1.000  N
  N22      1.0000 0.70069  0.95238  0.52843  Biso   1.000  N
  N23      1.0000 0.59857  0.91974  0.58564  Biso   1.000  N
  N24      1.0000 0.54990  0.14800  0.55141  Biso   1.000  N
  Zn7      1.0000 0.96277  0.16212  0.59358  Biso   1.000  Zn
  Zn8      1.0000 0.82125  0.35144  0.78014  Biso   1.000  Zn
  Zn9      1.0000 0.27749  0.75160  0.94197  Biso   1.000  Zn
  Zn10     1.0000 0.19935  0.16212  0.09358  Biso   1.000  Zn
  Zn11     1.0000 0.53019  0.35144  0.28014  Biso   1.000  Zn
  Zn12     1.0000 0.47411  0.75160  0.44197  Biso   1.000  Zn
  H49      1.0000 0.06820  0.21900  0.51970  Biso   1.000  H
  H50      1.0000 0.18370  0.20320  0.47300  Biso   1.000  H
  H51      1.0000 0.16190  0.01760  0.52030  Biso   1.000  H
  H52      1.0000 0.04470  0.03720  0.56410  Biso   1.000  H
  H53      1.0000 0.15840  0.18380  0.63100  Biso   1.000  H
  H54      1.0000 0.27920  0.26380  0.68660  Biso   1.000  H
  H55      1.0000 0.12260  0.39460  0.72010  Biso   1.000  H
  H56      1.0000 0.00790  0.31300  0.66260  Biso   1.000  H
  H57      1.0000 0.46920  0.60280  0.87130  Biso   1.000  H
  H58      1.0000 0.43570  0.69620  0.92060  Biso   1.000  H
  H59      1.0000 0.18290  0.63800  0.85470  Biso   1.000  H
  H60      1.0000 0.20720  0.54140  0.80350  Biso   1.000  H
  H61      1.0000 0.47890  0.30580  0.73540  Biso   1.000  H
  H62      1.0000 0.62090  0.28400  0.73730  Biso   1.000  H
  H63      1.0000 0.75220  0.47700  0.82710  Biso   1.000  H
  H64      1.0000 0.61320  0.50340  0.82930  Biso   1.000  H
  H65      1.0000 0.44240  0.35560  0.36770  Biso   1.000  H
  H66      1.0000 0.37460  0.27540  0.41510  Biso   1.000  H
  H67      1.0000 0.45610  0.11420  0.33960  Biso   1.000  H
  H68      1.0000 0.51250  0.19600  0.29200  Biso   1.000  H
  H69      1.0000 0.31700  0.93820  0.49570  Biso   1.000  H
  H70      1.0000 0.49940  0.99580  0.40260  Biso   1.000  H
  H71      1.0000 0.36290  0.83700  0.49580  Biso   1.000  H
  H72      1.0000 0.54120  0.89320  0.40580  Biso   1.000  H
  H73      1.0000 0.15080  0.21900  0.01970  Biso   1.000  H
  H74      1.0000 0.01950  0.20320  0.97300  Biso   1.000  H
  H75      1.0000 0.85570  0.01760  0.02030  Biso   1.000  H
  H76      1.0000 0.99250  0.03720  0.06410  Biso   1.000  H
  H77      1.0000 0.02540  0.18380  0.13100  Biso   1.000  H
  H78      1.0000 0.98460  0.26380  0.18660  Biso   1.000  H
  H79      1.0000 0.27200  0.39460  0.22010  Biso   1.000  H
  H80      1.0000 0.30510  0.31300  0.16260  Biso   1.000  H
  H81      1.0000 0.13360  0.60280  0.37130  Biso   1.000  H
  H82      1.0000 0.26050  0.69620  0.42060  Biso   1.000  H
  H83      1.0000 0.45510  0.63800  0.35470  Biso   1.000  H
  H84      1.0000 0.33420  0.54140  0.30350  Biso   1.000  H
  H85      1.0000 0.82690  0.30580  0.23540  Biso   1.000  H
  H86      1.0000 0.66310  0.28400  0.23730  Biso   1.000  H
  H87      1.0000 0.72480  0.47700  0.32710  Biso   1.000  H
  H88      1.0000 0.89020  0.50340  0.32930  Biso   1.000  H
  H89      1.0000 0.91320  0.35560  0.86770  Biso   1.000  H
  H90      1.0000 0.90080  0.27540  0.91510  Biso   1.000  H
  H91      1.0000 0.65810  0.11420  0.83960  Biso   1.000  H
  H92      1.0000 0.68350  0.19600  0.79200  Biso   1.000  H
  H93      1.0000 0.62120  0.93820  0.99570  Biso   1.000  H
  H94      1.0000 0.49640  0.99580  0.90260  Biso   1.000  H
  H95      1.0000 0.47410  0.83700  0.99580  Biso   1.000  H
  H96      1.0000 0.35200  0.89320  0.90580  Biso   1.000  H
  C73      1.0000 0.08840  0.17780  0.52000  Biso   1.000  C
  C74      1.0000 0.15770  0.16920  0.49210  Biso   1.000  C
  C75      1.0000 0.18810  0.11000  0.49300  Biso   1.000  C
  C76      1.0000 0.14429  0.05998  0.51990  Biso   1.000  C
  C77      1.0000 0.07490  0.07220  0.54600  Biso   1.000  C
  C78      1.0000 0.15180  0.22780  0.64920  Biso   1.000  C
  C79      1.0000 0.22370  0.27500  0.68230  Biso   1.000  C
  C80      1.0000 0.21471  0.33842  0.70940  Biso   1.000  C
  C81      1.0000 0.13200  0.35200  0.70190  Biso   1.000  C
  C82      1.0000 0.06390  0.30280  0.66770  Biso   1.000  C
  C83      1.0000 0.29306  0.39032  0.74510  Biso   1.000  C
  C84      1.0000 0.43972  0.42224  0.78010  Biso   1.000  C
  C85      1.0000 0.35391  0.49562  0.80150  Biso   1.000  C
  C86      1.0000 0.34020  0.56000  0.83240  Biso   1.000  C
  C87      1.0000 0.40930  0.60820  0.86740  Biso   1.000  C
  C88      1.0000 0.38900  0.66400  0.89640  Biso   1.000  C
  C89      1.0000 0.24118  0.62996  0.85800  Biso   1.000  C
  C90      1.0000 0.25493  0.57226  0.82750  Biso   1.000  C
  C91      1.0000 0.53021  0.40722  0.78190  Biso   1.000  C
  C92      1.0000 0.53420  0.34200  0.75480  Biso   1.000  C
  C93      1.0000 0.61930  0.32960  0.75600  Biso   1.000  C
  C94      1.0000 0.69550  0.44160  0.80840  Biso   1.000  C
  C95      1.0000 0.61320  0.45800  0.80970  Biso   1.000  C
  C96      1.0000 0.44360  0.30540  0.36170  Biso   1.000  C
  C97      1.0000 0.40420  0.25820  0.39030  Biso   1.000  C
  C98      1.0000 0.40837  0.18614  0.38280  Biso   1.000  C
  C99      1.0000 0.45110  0.16320  0.34570  Biso   1.000  C
  C100     1.0000 0.48580  0.21280  0.31790  Biso   1.000  C
  C101     1.0000 0.36844  0.13568  0.41370  Biso   1.000  C
  C102     1.0000 0.26739  0.10138  0.46605  Biso   1.000  C
  C103     1.0000 0.36540  0.03900  0.44450  Biso   1.000  C
  C104     1.0000 0.39680  0.97540  0.44670  Biso   1.000  C
  C105     1.0000 0.36110  0.92880  0.47560  Biso   1.000  C
  C106     1.0000 0.46780  0.96240  0.42130  Biso   1.000  C
  C107     1.0000 0.38890  0.86840  0.47550  Biso   1.000  C
  C108     1.0000 0.49220  0.90100  0.42330  Biso   1.000  C
  C109     1.0000 0.08940  0.17780  0.02000  Biso   1.000  C
  C110     1.0000 0.01150  0.16920  0.99210  Biso   1.000  C
  C111     1.0000 0.92190  0.11000  0.99300  Biso   1.000  C
  C112     1.0000 0.91569  0.05998  0.01990  Biso   1.000  C
  C113     1.0000 0.99730  0.07220  0.04600  Biso   1.000  C
  C114     1.0000 0.07600  0.22780  0.14920  Biso   1.000  C
  C115     1.0000 0.05130  0.27500  0.18230  Biso   1.000  C
  C116     1.0000 0.12371  0.33842  0.20940  Biso   1.000  C
  C117     1.0000 0.22000  0.35200  0.20190  Biso   1.000  C
  C118     1.0000 0.23890  0.30280  0.16770  Biso   1.000  C
  C119     1.0000 0.09726  0.39032  0.24510  Biso   1.000  C
  C120     1.0000 0.98252  0.42224  0.28010  Biso   1.000  C
  C121     1.0000 0.14171  0.49562  0.30150  Biso   1.000  C
  C122     1.0000 0.21980  0.56000  0.33240  Biso   1.000  C
  C123     1.0000 0.19890  0.60820  0.36740  Biso   1.000  C
  C124     1.0000 0.27500  0.66400  0.39640  Biso   1.000  C
  C125     1.0000 0.38878  0.62996  0.35800  Biso   1.000  C
  C126     1.0000 0.31733  0.57226  0.32750  Biso   1.000  C
  C127     1.0000 0.87701  0.40722  0.28190  Biso   1.000  C
  C128     1.0000 0.80780  0.34200  0.25480  Biso   1.000  C
  C129     1.0000 0.71030  0.32960  0.25600  Biso   1.000  C
  C130     1.0000 0.74610  0.44160  0.30840  Biso   1.000  C
  C131     1.0000 0.84480  0.45800  0.30970  Biso   1.000  C
  C132     1.0000 0.86180  0.30540  0.86170  Biso   1.000  C
  C133     1.0000 0.85400  0.25820  0.89030  Biso   1.000  C
  C134     1.0000 0.77777  0.18614  0.88280  Biso   1.000  C
  C135     1.0000 0.71210  0.16320  0.84570  Biso   1.000  C
  C136     1.0000 0.72700  0.21280  0.81790  Biso   1.000  C
  C137     1.0000 0.76724  0.13568  0.91370  Biso   1.000  C
  C138     1.0000 0.83399  0.10138  0.96605  Biso   1.000  C
  C139     1.0000 0.67360  0.03900  0.94450  Biso   1.000  C
  C140     1.0000 0.57860  0.97540  0.94670  Biso   1.000  C
  C141     1.0000 0.56770  0.92880  0.97560  Biso   1.000  C
  C142     1.0000 0.49460  0.96240  0.92130  Biso   1.000  C
  C143     1.0000 0.47950  0.86840  0.97550  Biso   1.000  C
  C144     1.0000 0.40880  0.90100  0.92330  Biso   1.000  C
  I13      1.0000 0.87396  0.04928  0.62769  Biso   1.000  I
  I14      1.0000 0.88986  0.23932  0.56068  Biso   1.000  I
  I15      1.0000 0.80840  0.26176  0.70524  Biso   1.000  I
  I16      1.0000 0.97296  0.47518  0.80801  Biso   1.000  I
  I17      1.0000 0.13782  0.77486  0.90992  Biso   1.000  I
  I18      1.0000 0.27613  0.70134  0.01102  Biso   1.000  I
  I19      1.0000 0.17532  0.04928  0.12769  Biso   1.000  I
  I20      1.0000 0.34946  0.23932  0.06068  Biso   1.000  I
  I21      1.0000 0.45336  0.26176  0.20524  Biso   1.000  I
  I22      1.0000 0.50222  0.47518  0.30801  Biso   1.000  I
  I23      1.0000 0.63704  0.77486  0.40992  Biso   1.000  I
  I24      1.0000 0.42521  0.70134  0.51102  Biso   1.000  I
  N25      1.0000 0.04851  0.13162  0.54696  Biso   1.000  N
  N26      1.0000 0.07266  0.24192  0.64150  Biso   1.000  N
  N27      1.0000 0.36872  0.37124  0.74955  Biso   1.000  N
  N28      1.0000 0.43664  0.48468  0.80768  Biso   1.000  N
  N29      1.0000 0.28158  0.45156  0.76975  Biso   1.000  N
  N30      1.0000 0.69896  0.37832  0.78233  Biso   1.000  N
  N31      1.0000 0.30659  0.67498  0.89215  Biso   1.000  N
  N32      1.0000 0.48332  0.28304  0.32580  Biso   1.000  N
  N33      1.0000 0.30056  0.14832  0.43858  Biso   1.000  N
  N34      1.0000 0.29931  0.04762  0.47157  Biso   1.000  N
  N35      1.0000 0.40143  0.08026  0.41436  Biso   1.000  N
  N36      1.0000 0.45010  0.85200  0.44859  Biso   1.000  N
  N37      1.0000 0.08311  0.13162  0.04696  Biso   1.000  N
  N38      1.0000 0.16926  0.24192  0.14150  Biso   1.000  N
  N39      1.0000 0.00252  0.37124  0.24955  Biso   1.000  N
  N40      1.0000 0.04804  0.48468  0.30768  Biso   1.000  N
  N41      1.0000 0.16998  0.45156  0.26975  Biso   1.000  N
  N42      1.0000 0.67936  0.37832  0.28233  Biso   1.000  N
  N43      1.0000 0.36839  0.67498  0.39215  Biso   1.000  N
  N44      1.0000 0.79972  0.28304  0.82580  Biso   1.000  N
  N45      1.0000 0.84776  0.14832  0.93858  Biso   1.000  N
  N46      1.0000 0.74831  0.04762  0.97157  Biso   1.000  N
  N47      1.0000 0.67883  0.08026  0.91436  Biso   1.000  N
  N48      1.0000 0.40190  0.85200  0.94859  Biso   1.000  N
