data_image0
_cell_length_a       13.3399
_cell_length_b       13.3399
_cell_length_c       20.7773
_cell_angle_alpha    90
_cell_angle_beta     90
_cell_angle_gamma    108.342

_symmetry_space_group_name_H-M    P 1
_symmetry_int_tables_number       1

loop_
  _symmetry_equiv_pos_as_xyz
  'x, y, z'

loop_
  _atom_site_label
  _atom_site_occupancy
  _atom_site_fract_x
  _atom_site_fract_y
  _atom_site_fract_z
  _atom_site_thermal_displace_type
  _atom_site_B_iso_or_equiv
  _atom_site_type_symbol
  K1       1.0000 0.12690  0.12690  0.00000  Biso   1.000  K
  K2       1.0000 0.87310  0.87310  0.50000  Biso   1.000  K
  K3       1.0000 0.87310  0.87310  0.00000  Biso   1.000  K
  K4       1.0000 0.12690  0.12690  0.50000  Biso   1.000  K
  Nd1      1.0000 0.62875  0.88165  0.25000  Biso   1.000  Nd
  Nd2      1.0000 0.37125  0.11835  0.75000  Biso   1.000  Nd
  Nd3      1.0000 0.11835  0.37125  0.25000  Biso   1.000  Nd
  Nd4      1.0000 0.88165  0.62875  0.75000  Biso   1.000  Nd
  Re1      1.0000 0.25655  0.55989  0.95025  Biso   1.000  Re
  Re2      1.0000 0.74345  0.44011  0.45025  Biso   1.000  Re
  Re3      1.0000 0.44011  0.74345  0.54975  Biso   1.000  Re
  Re4      1.0000 0.55989  0.25655  0.04975  Biso   1.000  Re
  Re5      1.0000 0.74345  0.44011  0.04975  Biso   1.000  Re
  Re6      1.0000 0.25655  0.55989  0.54975  Biso   1.000  Re
  Re7      1.0000 0.55989  0.25655  0.45025  Biso   1.000  Re
  Re8      1.0000 0.44011  0.74345  0.95025  Biso   1.000  Re
  Re9      1.0000 0.29750  0.70250  0.05770  Biso   1.000  Re
  Re10     1.0000 0.23464  0.76536  0.93386  Biso   1.000  Re
  Re11     1.0000 0.70250  0.29750  0.55770  Biso   1.000  Re
  Re12     1.0000 0.76536  0.23464  0.43386  Biso   1.000  Re
  Re13     1.0000 0.29750  0.70250  0.44230  Biso   1.000  Re
  Re14     1.0000 0.23464  0.76536  0.56614  Biso   1.000  Re
  Re15     1.0000 0.70250  0.29750  0.94230  Biso   1.000  Re
  Re16     1.0000 0.76536  0.23464  0.06614  Biso   1.000  Re
  Te1      1.0000 0.10832  0.62054  0.00806  Biso   1.000  Te
  Te2      1.0000 0.89168  0.37946  0.50806  Biso   1.000  Te
  Te3      1.0000 0.37946  0.89168  0.49194  Biso   1.000  Te
  Te4      1.0000 0.62054  0.10832  0.99194  Biso   1.000  Te
  Te5      1.0000 0.89168  0.37946  0.99194  Biso   1.000  Te
  Te6      1.0000 0.10832  0.62054  0.49194  Biso   1.000  Te
  Te7      1.0000 0.62054  0.10832  0.50806  Biso   1.000  Te
  Te8      1.0000 0.37946  0.89168  0.00806  Biso   1.000  Te
  Te9      1.0000 0.32326  0.67674  0.84744  Biso   1.000  Te
  Te10     1.0000 0.41624  0.58376  0.03031  Biso   1.000  Te
  Te11     1.0000 0.67674  0.32326  0.34744  Biso   1.000  Te
  Te12     1.0000 0.58376  0.41624  0.53031  Biso   1.000  Te
  Te13     1.0000 0.32326  0.67674  0.65256  Biso   1.000  Te
  Te14     1.0000 0.41624  0.58376  0.46969  Biso   1.000  Te
  Te15     1.0000 0.67674  0.32326  0.15256  Biso   1.000  Te
  Te16     1.0000 0.58376  0.41624  0.96969  Biso   1.000  Te
  C1       1.0000 0.41520  0.76380  0.12840  Biso   1.000  C
  C2       1.0000 0.13110  0.47870  0.88950  Biso   1.000  C
  C3       1.0000 0.32550  0.45790  0.90250  Biso   1.000  C
  C4       1.0000 0.18690  0.41970  0.00190  Biso   1.000  C
  C5       1.0000 0.28400  0.89340  0.86910  Biso   1.000  C
  C6       1.0000 0.58480  0.23620  0.62840  Biso   1.000  C
  C7       1.0000 0.86890  0.52130  0.38950  Biso   1.000  C
  C8       1.0000 0.67450  0.54210  0.40250  Biso   1.000  C
  C9       1.0000 0.81310  0.58030  0.50190  Biso   1.000  C
  C10      1.0000 0.71600  0.10660  0.36910  Biso   1.000  C
  C11      1.0000 0.23620  0.58480  0.37160  Biso   1.000  C
  C12      1.0000 0.52130  0.86890  0.61050  Biso   1.000  C
  C13      1.0000 0.54210  0.67450  0.59750  Biso   1.000  C
  C14      1.0000 0.58030  0.81310  0.49810  Biso   1.000  C
  C15      1.0000 0.10660  0.71600  0.63090  Biso   1.000  C
  C16      1.0000 0.76380  0.41520  0.87160  Biso   1.000  C
  C17      1.0000 0.47870  0.13110  0.11050  Biso   1.000  C
  C18      1.0000 0.45790  0.32550  0.09750  Biso   1.000  C
  C19      1.0000 0.41970  0.18690  0.99810  Biso   1.000  C
  C20      1.0000 0.89340  0.28400  0.13090  Biso   1.000  C
  C21      1.0000 0.58480  0.23620  0.87160  Biso   1.000  C
  C22      1.0000 0.86890  0.52130  0.11050  Biso   1.000  C
  C23      1.0000 0.67450  0.54210  0.09750  Biso   1.000  C
  C24      1.0000 0.81310  0.58030  0.99810  Biso   1.000  C
  C25      1.0000 0.71600  0.10660  0.13090  Biso   1.000  C
  C26      1.0000 0.41520  0.76380  0.37160  Biso   1.000  C
  C27      1.0000 0.13110  0.47870  0.61050  Biso   1.000  C
  C28      1.0000 0.32550  0.45790  0.59750  Biso   1.000  C
  C29      1.0000 0.18690  0.41970  0.49810  Biso   1.000  C
  C30      1.0000 0.28400  0.89340  0.63090  Biso   1.000  C
  C31      1.0000 0.76380  0.41520  0.62840  Biso   1.000  C
  C32      1.0000 0.47870  0.13110  0.38950  Biso   1.000  C
  C33      1.0000 0.45790  0.32550  0.40250  Biso   1.000  C
  C34      1.0000 0.41970  0.18690  0.50190  Biso   1.000  C
  C35      1.0000 0.89340  0.28400  0.36910  Biso   1.000  C
  C36      1.0000 0.23620  0.58480  0.12840  Biso   1.000  C
  C37      1.0000 0.52130  0.86890  0.88950  Biso   1.000  C
  C38      1.0000 0.54210  0.67450  0.90250  Biso   1.000  C
  C39      1.0000 0.58030  0.81310  0.00190  Biso   1.000  C
  C40      1.0000 0.10660  0.71600  0.86910  Biso   1.000  C
  C41      1.0000 0.21830  0.78170  0.11620  Biso   1.000  C
  C42      1.0000 0.14280  0.85720  0.96920  Biso   1.000  C
  C43      1.0000 0.78170  0.21830  0.61620  Biso   1.000  C
  C44      1.0000 0.85720  0.14280  0.46920  Biso   1.000  C
  C45      1.0000 0.21830  0.78170  0.38380  Biso   1.000  C
  C46      1.0000 0.14280  0.85720  0.53080  Biso   1.000  C
  C47      1.0000 0.78170  0.21830  0.88380  Biso   1.000  C
  C48      1.0000 0.85720  0.14280  0.03080  Biso   1.000  C
  N1       1.0000 0.48060  0.79780  0.16570  Biso   1.000  N
  N2       1.0000 0.06340  0.43140  0.85790  Biso   1.000  N
  N3       1.0000 0.36270  0.40430  0.87530  Biso   1.000  N
  N4       1.0000 0.14580  0.34100  0.02640  Biso   1.000  N
  N5       1.0000 0.31150  0.96350  0.83430  Biso   1.000  N
  N6       1.0000 0.51940  0.20220  0.66570  Biso   1.000  N
  N7       1.0000 0.93660  0.56860  0.35790  Biso   1.000  N
  N8       1.0000 0.63730  0.59570  0.37530  Biso   1.000  N
  N9       1.0000 0.85420  0.65900  0.52640  Biso   1.000  N
  N10      1.0000 0.68850  0.03650  0.33430  Biso   1.000  N
  N11      1.0000 0.20220  0.51940  0.33430  Biso   1.000  N
  N12      1.0000 0.56860  0.93660  0.64210  Biso   1.000  N
  N13      1.0000 0.59570  0.63730  0.62470  Biso   1.000  N
  N14      1.0000 0.65900  0.85420  0.47360  Biso   1.000  N
  N15      1.0000 0.03650  0.68850  0.66570  Biso   1.000  N
  N16      1.0000 0.79780  0.48060  0.83430  Biso   1.000  N
  N17      1.0000 0.43140  0.06340  0.14210  Biso   1.000  N
  N18      1.0000 0.40430  0.36270  0.12470  Biso   1.000  N
  N19      1.0000 0.34100  0.14580  0.97360  Biso   1.000  N
  N20      1.0000 0.96350  0.31150  0.16570  Biso   1.000  N
  N21      1.0000 0.51940  0.20220  0.83430  Biso   1.000  N
  N22      1.0000 0.93660  0.56860  0.14210  Biso   1.000  N
  N23      1.0000 0.63730  0.59570  0.12470  Biso   1.000  N
  N24      1.0000 0.85420  0.65900  0.97360  Biso   1.000  N
  N25      1.0000 0.68850  0.03650  0.16570  Biso   1.000  N
  N26      1.0000 0.48060  0.79780  0.33430  Biso   1.000  N
  N27      1.0000 0.06340  0.43140  0.64210  Biso   1.000  N
  N28      1.0000 0.36270  0.40430  0.62470  Biso   1.000  N
  N29      1.0000 0.14580  0.34100  0.47360  Biso   1.000  N
  N30      1.0000 0.31150  0.96350  0.66570  Biso   1.000  N
  N31      1.0000 0.79780  0.48060  0.66570  Biso   1.000  N
  N32      1.0000 0.43140  0.06340  0.35790  Biso   1.000  N
  N33      1.0000 0.40430  0.36270  0.37530  Biso   1.000  N
  N34      1.0000 0.34100  0.14580  0.52640  Biso   1.000  N
  N35      1.0000 0.96350  0.31150  0.33430  Biso   1.000  N
  N36      1.0000 0.20220  0.51940  0.16570  Biso   1.000  N
  N37      1.0000 0.56860  0.93660  0.85790  Biso   1.000  N
  N38      1.0000 0.59570  0.63730  0.87530  Biso   1.000  N
  N39      1.0000 0.65900  0.85420  0.02640  Biso   1.000  N
  N40      1.0000 0.03650  0.68850  0.83430  Biso   1.000  N
  N41      1.0000 0.17610  0.82390  0.14850  Biso   1.000  N
  N42      1.0000 0.09280  0.90720  0.98420  Biso   1.000  N
  N43      1.0000 0.82390  0.17610  0.64850  Biso   1.000  N
  N44      1.0000 0.90720  0.09280  0.48420  Biso   1.000  N
  N45      1.0000 0.17610  0.82390  0.35150  Biso   1.000  N
  N46      1.0000 0.09280  0.90720  0.51580  Biso   1.000  N
  N47      1.0000 0.82390  0.17610  0.85150  Biso   1.000  N
  N48      1.0000 0.90720  0.09280  0.01580  Biso   1.000  N
  O1       1.0000 0.07310  0.19330  0.88260  Biso   1.000  O
  O2       1.0000 0.71107  0.82513  0.34591  Biso   1.000  O
  O3       1.0000 0.92690  0.80670  0.38260  Biso   1.000  O
  O4       1.0000 0.28893  0.17487  0.84591  Biso   1.000  O
  O5       1.0000 0.80670  0.92690  0.61740  Biso   1.000  O
  O6       1.0000 0.17487  0.28893  0.15409  Biso   1.000  O
  O7       1.0000 0.19330  0.07310  0.11740  Biso   1.000  O
  O8       1.0000 0.82513  0.71107  0.65409  Biso   1.000  O
  O9       1.0000 0.92690  0.80670  0.11740  Biso   1.000  O
  O10      1.0000 0.28893  0.17487  0.65409  Biso   1.000  O
  O11      1.0000 0.07310  0.19330  0.61740  Biso   1.000  O
  O12      1.0000 0.71107  0.82513  0.15409  Biso   1.000  O
  O13      1.0000 0.19330  0.07310  0.38260  Biso   1.000  O
  O14      1.0000 0.82513  0.71107  0.84591  Biso   1.000  O
  O15      1.0000 0.80670  0.92690  0.88260  Biso   1.000  O
  O16      1.0000 0.17487  0.28893  0.34591  Biso   1.000  O
  O17      1.0000 0.49920  0.97460  0.25000  Biso   1.000  O
  O18      1.0000 0.82570  0.95350  0.25000  Biso   1.000  O
  O19      1.0000 0.59610  0.68490  0.25000  Biso   1.000  O
  O20      1.0000 0.50080  0.02540  0.75000  Biso   1.000  O
  O21      1.0000 0.17430  0.04650  0.75000  Biso   1.000  O
  O22      1.0000 0.40390  0.31510  0.75000  Biso   1.000  O
  O23      1.0000 0.02540  0.50080  0.25000  Biso   1.000  O
  O24      1.0000 0.04650  0.17430  0.25000  Biso   1.000  O
  O25      1.0000 0.31510  0.40390  0.25000  Biso   1.000  O
  O26      1.0000 0.97460  0.49920  0.75000  Biso   1.000  O
  O27      1.0000 0.95350  0.82570  0.75000  Biso   1.000  O
  O28      1.0000 0.68490  0.59610  0.75000  Biso   1.000  O
