data_image0
_cell_length_a       15.4313
_cell_length_b       15.4313
_cell_length_c       9.8884
_cell_angle_alpha    90
_cell_angle_beta     90
_cell_angle_gamma    90

_symmetry_space_group_name_H-M    "P 1"
_symmetry_int_tables_number       1

loop_
  _symmetry_equiv_pos_as_xyz
  'x, y, z'

loop_
  _atom_site_label
  _atom_site_occupancy
  _atom_site_fract_x
  _atom_site_fract_y
  _atom_site_fract_z
  _atom_site_thermal_displace_type
  _atom_site_B_iso_or_equiv
  _atom_site_type_symbol
  O1       1.0000 0.53020  0.62812  0.12141  Biso   1.000  O
  C1       1.0000 0.38575  0.75554  0.87950  Biso   1.000  C
  H1       1.0000 0.41040  0.73800  0.79810  Biso   1.000  H
  C2       1.0000 0.31064  0.80495  0.88080  Biso   1.000  C
  H2       1.0000 0.28570  0.82110  0.79890  Biso   1.000  H
  O2       1.0000 0.46980  0.37188  0.12141  Biso   1.000  O
  C3       1.0000 0.61425  0.24446  0.87950  Biso   1.000  C
  H3       1.0000 0.58960  0.26200  0.79810  Biso   1.000  H
  C4       1.0000 0.68936  0.19505  0.88080  Biso   1.000  C
  H4       1.0000 0.71430  0.17890  0.79890  Biso   1.000  H
  O3       1.0000 0.37188  0.53020  0.12141  Biso   1.000  O
  C5       1.0000 0.24446  0.38575  0.87950  Biso   1.000  C
  H5       1.0000 0.26200  0.41040  0.79810  Biso   1.000  H
  C6       1.0000 0.19505  0.31064  0.88080  Biso   1.000  C
  H6       1.0000 0.17890  0.28570  0.79890  Biso   1.000  H
  O4       1.0000 0.62812  0.46980  0.12141  Biso   1.000  O
  C7       1.0000 0.75554  0.61425  0.87950  Biso   1.000  C
  H7       1.0000 0.73800  0.58960  0.79810  Biso   1.000  H
  C8       1.0000 0.80495  0.68936  0.88080  Biso   1.000  C
  H8       1.0000 0.82110  0.71430  0.79890  Biso   1.000  H
  O5       1.0000 0.46980  0.62812  0.37859  Biso   1.000  O
  C9       1.0000 0.61425  0.75554  0.62050  Biso   1.000  C
  H9       1.0000 0.58960  0.73800  0.70190  Biso   1.000  H
  C10      1.0000 0.68936  0.80495  0.61920  Biso   1.000  C
  H10      1.0000 0.71430  0.82110  0.70110  Biso   1.000  H
  O6       1.0000 0.53020  0.37188  0.37859  Biso   1.000  O
  C11      1.0000 0.38575  0.24446  0.62050  Biso   1.000  C
  H11      1.0000 0.41040  0.26200  0.70190  Biso   1.000  H
  C12      1.0000 0.31064  0.19505  0.61920  Biso   1.000  C
  H12      1.0000 0.28570  0.17890  0.70110  Biso   1.000  H
  O7       1.0000 0.62812  0.53020  0.37859  Biso   1.000  O
  C13      1.0000 0.75554  0.38575  0.62050  Biso   1.000  C
  H13      1.0000 0.73800  0.41040  0.70190  Biso   1.000  H
  C14      1.0000 0.80495  0.31064  0.61920  Biso   1.000  C
  H14      1.0000 0.82110  0.28570  0.70110  Biso   1.000  H
  O8       1.0000 0.37188  0.46980  0.37859  Biso   1.000  O
  C15      1.0000 0.24446  0.61425  0.62050  Biso   1.000  C
  H15      1.0000 0.26200  0.58960  0.70190  Biso   1.000  H
  C16      1.0000 0.19505  0.68936  0.61920  Biso   1.000  C
  H16      1.0000 0.17890  0.71430  0.70110  Biso   1.000  H
  O9       1.0000 0.46980  0.37188  0.87859  Biso   1.000  O
  C17      1.0000 0.61425  0.24446  0.12050  Biso   1.000  C
  H17      1.0000 0.58960  0.26200  0.20190  Biso   1.000  H
  C18      1.0000 0.68936  0.19505  0.11920  Biso   1.000  C
  H18      1.0000 0.71430  0.17890  0.20110  Biso   1.000  H
  O10      1.0000 0.53020  0.62812  0.87859  Biso   1.000  O
  C19      1.0000 0.38575  0.75554  0.12050  Biso   1.000  C
  H19      1.0000 0.41040  0.73800  0.20190  Biso   1.000  H
  C20      1.0000 0.31064  0.80495  0.11920  Biso   1.000  C
  H20      1.0000 0.28570  0.82110  0.20110  Biso   1.000  H
  O11      1.0000 0.62812  0.46980  0.87859  Biso   1.000  O
  C21      1.0000 0.75554  0.61425  0.12050  Biso   1.000  C
  H21      1.0000 0.73800  0.58960  0.20190  Biso   1.000  H
  C22      1.0000 0.80495  0.68936  0.11920  Biso   1.000  C
  H22      1.0000 0.82110  0.71430  0.20110  Biso   1.000  H
  O12      1.0000 0.37188  0.53020  0.87859  Biso   1.000  O
  C23      1.0000 0.24446  0.38575  0.12050  Biso   1.000  C
  H23      1.0000 0.26200  0.41040  0.20190  Biso   1.000  H
  C24      1.0000 0.19505  0.31064  0.11920  Biso   1.000  C
  H24      1.0000 0.17890  0.28570  0.20110  Biso   1.000  H
  O13      1.0000 0.53020  0.37188  0.62141  Biso   1.000  O
  C25      1.0000 0.38575  0.24446  0.37950  Biso   1.000  C
  H25      1.0000 0.41040  0.26200  0.29810  Biso   1.000  H
  C26      1.0000 0.31064  0.19505  0.38080  Biso   1.000  C
  H26      1.0000 0.28570  0.17890  0.29890  Biso   1.000  H
  O14      1.0000 0.46980  0.62812  0.62141  Biso   1.000  O
  C27      1.0000 0.61425  0.75554  0.37950  Biso   1.000  C
  H27      1.0000 0.58960  0.73800  0.29810  Biso   1.000  H
  C28      1.0000 0.68936  0.80495  0.38080  Biso   1.000  C
  H28      1.0000 0.71430  0.82110  0.29890  Biso   1.000  H
  O15      1.0000 0.37188  0.46980  0.62141  Biso   1.000  O
  C29      1.0000 0.24446  0.61425  0.37950  Biso   1.000  C
  H29      1.0000 0.26200  0.58960  0.29810  Biso   1.000  H
  C30      1.0000 0.19505  0.68936  0.38080  Biso   1.000  C
  H30      1.0000 0.17890  0.71430  0.29890  Biso   1.000  H
  O16      1.0000 0.62812  0.53020  0.62141  Biso   1.000  O
  C31      1.0000 0.75554  0.38575  0.37950  Biso   1.000  C
  H31      1.0000 0.73800  0.41040  0.29810  Biso   1.000  H
  C32      1.0000 0.80495  0.31064  0.38080  Biso   1.000  C
  H32      1.0000 0.82110  0.28570  0.29890  Biso   1.000  H
  Eu1      1.0000 0.50000  0.50000  0.25000  Biso   1.000  Eu
  Eu2      1.0000 0.50000  0.50000  0.75000  Biso   1.000  Eu
  S1       1.0000 0.52493  0.68037  0.00000  Biso   1.000  S
  N1       1.0000 0.12913  0.03080  0.00000  Biso   1.000  N
  O17      1.0000 0.58727  0.74880  0.00000  Biso   1.000  O
  C33      1.0000 0.42290  0.73310  0.00000  Biso   1.000  C
  C34      1.0000 0.27170  0.83100  0.00000  Biso   1.000  C
  C35      1.0000 0.19040  0.88130  0.00000  Biso   1.000  C
  C36      1.0000 0.19730  0.97340  0.00000  Biso   1.000  C
  C37      1.0000 0.27710  0.02100  0.00000  Biso   1.000  C
  H33      1.0000 0.33260  0.99750  0.00000  Biso   1.000  H
  C38      1.0000 0.25730  0.10520  0.00000  Biso   1.000  C
  H34      1.0000 0.29650  0.15090  0.00000  Biso   1.000  H
  C39      1.0000 0.16600  0.11240  0.00000  Biso   1.000  C
  S2       1.0000 0.47507  0.31963  0.00000  Biso   1.000  S
  N2       1.0000 0.87087  0.96920  0.00000  Biso   1.000  N
  O18      1.0000 0.41273  0.25120  0.00000  Biso   1.000  O
  C40      1.0000 0.57710  0.26690  0.00000  Biso   1.000  C
  C41      1.0000 0.72830  0.16900  0.00000  Biso   1.000  C
  C42      1.0000 0.80960  0.11870  0.00000  Biso   1.000  C
  C43      1.0000 0.80270  0.02660  0.00000  Biso   1.000  C
  C44      1.0000 0.72290  0.97900  0.00000  Biso   1.000  C
  H35      1.0000 0.66740  0.00250  0.00000  Biso   1.000  H
  C45      1.0000 0.74270  0.89480  0.00000  Biso   1.000  C
  H36      1.0000 0.70350  0.84910  0.00000  Biso   1.000  H
  C46      1.0000 0.83400  0.88760  0.00000  Biso   1.000  C
  S3       1.0000 0.31963  0.52493  0.00000  Biso   1.000  S
  N3       1.0000 0.96920  0.12913  0.00000  Biso   1.000  N
  O19      1.0000 0.25120  0.58727  0.00000  Biso   1.000  O
  C47      1.0000 0.26690  0.42290  0.00000  Biso   1.000  C
  C48      1.0000 0.16900  0.27170  0.00000  Biso   1.000  C
  C49      1.0000 0.11870  0.19040  0.00000  Biso   1.000  C
  C50      1.0000 0.02660  0.19730  0.00000  Biso   1.000  C
  C51      1.0000 0.97900  0.27710  0.00000  Biso   1.000  C
  H37      1.0000 0.00250  0.33260  0.00000  Biso   1.000  H
  C52      1.0000 0.89480  0.25730  0.00000  Biso   1.000  C
  H38      1.0000 0.84910  0.29650  0.00000  Biso   1.000  H
  C53      1.0000 0.88760  0.16600  0.00000  Biso   1.000  C
  S4       1.0000 0.68037  0.47507  0.00000  Biso   1.000  S
  N4       1.0000 0.03080  0.87087  0.00000  Biso   1.000  N
  O20      1.0000 0.74880  0.41273  0.00000  Biso   1.000  O
  C54      1.0000 0.73310  0.57710  0.00000  Biso   1.000  C
  C55      1.0000 0.83100  0.72830  0.00000  Biso   1.000  C
  C56      1.0000 0.88130  0.80960  0.00000  Biso   1.000  C
  C57      1.0000 0.97340  0.80270  0.00000  Biso   1.000  C
  C58      1.0000 0.02100  0.72290  0.00000  Biso   1.000  C
  H39      1.0000 0.99750  0.66740  0.00000  Biso   1.000  H
  C59      1.0000 0.10520  0.74270  0.00000  Biso   1.000  C
  H40      1.0000 0.15090  0.70350  0.00000  Biso   1.000  H
  C60      1.0000 0.11240  0.83400  0.00000  Biso   1.000  C
  S5       1.0000 0.47507  0.68037  0.50000  Biso   1.000  S
  N5       1.0000 0.87087  0.03080  0.50000  Biso   1.000  N
  O21      1.0000 0.41273  0.74880  0.50000  Biso   1.000  O
  C61      1.0000 0.57710  0.73310  0.50000  Biso   1.000  C
  C62      1.0000 0.72830  0.83100  0.50000  Biso   1.000  C
  C63      1.0000 0.80960  0.88130  0.50000  Biso   1.000  C
  C64      1.0000 0.80270  0.97340  0.50000  Biso   1.000  C
  C65      1.0000 0.72290  0.02100  0.50000  Biso   1.000  C
  H41      1.0000 0.66740  0.99750  0.50000  Biso   1.000  H
  C66      1.0000 0.74270  0.10520  0.50000  Biso   1.000  C
  H42      1.0000 0.70350  0.15090  0.50000  Biso   1.000  H
  C67      1.0000 0.83400  0.11240  0.50000  Biso   1.000  C
  S6       1.0000 0.52493  0.31963  0.50000  Biso   1.000  S
  N6       1.0000 0.12913  0.96920  0.50000  Biso   1.000  N
  O22      1.0000 0.58727  0.25120  0.50000  Biso   1.000  O
  C68      1.0000 0.42290  0.26690  0.50000  Biso   1.000  C
  C69      1.0000 0.27170  0.16900  0.50000  Biso   1.000  C
  C70      1.0000 0.19040  0.11870  0.50000  Biso   1.000  C
  C71      1.0000 0.19730  0.02660  0.50000  Biso   1.000  C
  C72      1.0000 0.27710  0.97900  0.50000  Biso   1.000  C
  H43      1.0000 0.33260  0.00250  0.50000  Biso   1.000  H
  C73      1.0000 0.25730  0.89480  0.50000  Biso   1.000  C
  H44      1.0000 0.29650  0.84910  0.50000  Biso   1.000  H
  C74      1.0000 0.16600  0.88760  0.50000  Biso   1.000  C
  S7       1.0000 0.68037  0.52493  0.50000  Biso   1.000  S
  N7       1.0000 0.03080  0.12913  0.50000  Biso   1.000  N
  O23      1.0000 0.74880  0.58727  0.50000  Biso   1.000  O
  C75      1.0000 0.73310  0.42290  0.50000  Biso   1.000  C
  C76      1.0000 0.83100  0.27170  0.50000  Biso   1.000  C
  C77      1.0000 0.88130  0.19040  0.50000  Biso   1.000  C
  C78      1.0000 0.97340  0.19730  0.50000  Biso   1.000  C
  C79      1.0000 0.02100  0.27710  0.50000  Biso   1.000  C
  H45      1.0000 0.99750  0.33260  0.50000  Biso   1.000  H
  C80      1.0000 0.10520  0.25730  0.50000  Biso   1.000  C
  H46      1.0000 0.15090  0.29650  0.50000  Biso   1.000  H
  C81      1.0000 0.11240  0.16600  0.50000  Biso   1.000  C
  S8       1.0000 0.31963  0.47507  0.50000  Biso   1.000  S
  N8       1.0000 0.96920  0.87087  0.50000  Biso   1.000  N
  O24      1.0000 0.25120  0.41273  0.50000  Biso   1.000  O
  C82      1.0000 0.26690  0.57710  0.50000  Biso   1.000  C
  C83      1.0000 0.16900  0.72830  0.50000  Biso   1.000  C
  C84      1.0000 0.11870  0.80960  0.50000  Biso   1.000  C
  C85      1.0000 0.02660  0.80270  0.50000  Biso   1.000  C
  C86      1.0000 0.97900  0.72290  0.50000  Biso   1.000  C
  H47      1.0000 0.00250  0.66740  0.50000  Biso   1.000  H
  C87      1.0000 0.89480  0.74270  0.50000  Biso   1.000  C
  H48      1.0000 0.84910  0.70350  0.50000  Biso   1.000  H
  C88      1.0000 0.88760  0.83400  0.50000  Biso   1.000  C
