data_image0
_cell_length_a       9.3278
_cell_length_b       15.5529
_cell_length_c       9.6474
_cell_angle_alpha    90
_cell_angle_beta     93.266
_cell_angle_gamma    90

_symmetry_space_group_name_H-M    "P 1"
_symmetry_int_tables_number       1

loop_
  _symmetry_equiv_pos_as_xyz
  'x, y, z'

loop_
  _atom_site_label
  _atom_site_occupancy
  _atom_site_fract_x
  _atom_site_fract_y
  _atom_site_fract_z
  _atom_site_thermal_displace_type
  _atom_site_B_iso_or_equiv
  _atom_site_type_symbol
  U1       1.0000 0.14200  0.01700  0.02900  Biso   1.000  U
  U2       1.0000 0.23850  0.02280  0.63490  Biso   1.000  U
  U3       1.0000 0.13370  0.48920  0.00130  Biso   1.000  U
  U4       1.0000 0.22850  0.47070  0.60550  Biso   1.000  U
  U5       1.0000 0.71660  0.25120  0.81120  Biso   1.000  U
  P1       1.0000 0.48000  0.43690  0.83830  Biso   1.000  P
  P2       1.0000 0.87860  0.47390  0.77500  Biso   1.000  P
  P3       1.0000 0.48880  0.06380  0.86220  Biso   1.000  P
  P4       1.0000 0.88640  0.03000  0.79920  Biso   1.000  P
  O1       1.0000 0.32420  0.05630  0.87800  Biso   1.000  O
  O2       1.0000 0.04970  0.04250  0.78350  Biso   1.000  O
  O3       1.0000 0.04010  0.46060  0.75520  Biso   1.000  O
  O4       1.0000 0.31400  0.44450  0.85370  Biso   1.000  O
  O5       1.0000 0.17990  0.59480  0.95830  Biso   1.000  O
  O6       1.0000 0.18230  0.91040  0.98750  Biso   1.000  O
  O7       1.0000 0.48860  0.46060  0.68150  Biso   1.000  O
  O8       1.0000 0.55790  0.50470  0.92800  Biso   1.000  O
  O9       1.0000 0.81510  0.53930  0.66500  Biso   1.000  O
  O10      1.0000 0.88100  0.51750  0.92020  Biso   1.000  O
  O11      1.0000 0.82400  0.96030  0.69860  Biso   1.000  O
  O12      1.0000 0.23720  0.58060  0.63970  Biso   1.000  O
  O13      1.0000 0.24520  0.91200  0.66980  Biso   1.000  O
  O14      1.0000 0.08170  0.38280  0.03490  Biso   1.000  O
  O15      1.0000 0.56730  0.00080  0.95690  Biso   1.000  O
  O16      1.0000 0.21600  0.36000  0.57600  Biso   1.000  O
  O17      1.0000 0.09740  0.12370  0.06630  Biso   1.000  O
  O18      1.0000 0.79700  0.39140  0.76890  Biso   1.000  O
  O19      1.0000 0.88900  0.99300  0.94930  Biso   1.000  O
  O20      1.0000 0.80660  0.11260  0.78290  Biso   1.000  O
  O21      1.0000 0.49850  0.03270  0.71050  Biso   1.000  O
  O22      1.0000 0.23290  0.13280  0.60390  Biso   1.000  O
  O23      1.0000 0.52930  0.34740  0.86810  Biso   1.000  O
  O24      1.0000 0.53740  0.15380  0.88350  Biso   1.000  O
  O25      1.0000 0.78500  0.25450  0.98540  Biso   1.000  O
  O26      1.0000 0.64750  0.24820  0.63880  Biso   1.000  O
  O27      1.0000 0.97280  0.25160  0.73170  Biso   1.000  O
  U6       1.0000 0.64200  0.98300  0.52900  Biso   1.000  U
  U7       1.0000 0.73850  0.97720  0.13490  Biso   1.000  U
  U8       1.0000 0.63370  0.51080  0.50130  Biso   1.000  U
  U9       1.0000 0.72850  0.52930  0.10550  Biso   1.000  U
  U10      1.0000 0.21660  0.74880  0.31120  Biso   1.000  U
  P5       1.0000 0.98000  0.56310  0.33830  Biso   1.000  P
  P6       1.0000 0.37860  0.52610  0.27500  Biso   1.000  P
  P7       1.0000 0.98880  0.93620  0.36220  Biso   1.000  P
  P8       1.0000 0.38640  0.97000  0.29920  Biso   1.000  P
  O28      1.0000 0.82420  0.94370  0.37800  Biso   1.000  O
  O29      1.0000 0.54970  0.95750  0.28350  Biso   1.000  O
  O30      1.0000 0.54010  0.53940  0.25520  Biso   1.000  O
  O31      1.0000 0.81400  0.55550  0.35370  Biso   1.000  O
  O32      1.0000 0.67990  0.40520  0.45830  Biso   1.000  O
  O33      1.0000 0.68230  0.08960  0.48750  Biso   1.000  O
  O34      1.0000 0.98860  0.53940  0.18150  Biso   1.000  O
  O35      1.0000 0.05790  0.49530  0.42800  Biso   1.000  O
  O36      1.0000 0.31510  0.46070  0.16500  Biso   1.000  O
  O37      1.0000 0.38100  0.48250  0.42020  Biso   1.000  O
  O38      1.0000 0.32400  0.03970  0.19860  Biso   1.000  O
  O39      1.0000 0.73720  0.41940  0.13970  Biso   1.000  O
  O40      1.0000 0.74520  0.08800  0.16980  Biso   1.000  O
  O41      1.0000 0.58170  0.61720  0.53490  Biso   1.000  O
  O42      1.0000 0.06730  0.99920  0.45690  Biso   1.000  O
  O43      1.0000 0.71600  0.64000  0.07600  Biso   1.000  O
  O44      1.0000 0.59740  0.87630  0.56630  Biso   1.000  O
  O45      1.0000 0.29700  0.60860  0.26890  Biso   1.000  O
  O46      1.0000 0.38900  0.00700  0.44930  Biso   1.000  O
  O47      1.0000 0.30660  0.88740  0.28290  Biso   1.000  O
  O48      1.0000 0.99850  0.96730  0.21050  Biso   1.000  O
  O49      1.0000 0.73290  0.86720  0.10390  Biso   1.000  O
  O50      1.0000 0.02930  0.65260  0.36810  Biso   1.000  O
  O51      1.0000 0.03740  0.84620  0.38350  Biso   1.000  O
  O52      1.0000 0.28500  0.74550  0.48540  Biso   1.000  O
  O53      1.0000 0.14750  0.75180  0.13880  Biso   1.000  O
  O54      1.0000 0.47280  0.74840  0.23170  Biso   1.000  O
