data_image0
_cell_length_a       8.4181
_cell_length_b       15.8885
_cell_length_c       15.8885
_cell_angle_alpha    90
_cell_angle_beta     90
_cell_angle_gamma    90

_symmetry_space_group_name_H-M    P 1
_symmetry_int_tables_number       1

loop_
  _symmetry_equiv_pos_as_xyz
  'x, y, z'

loop_
  _atom_site_label
  _atom_site_occupancy
  _atom_site_fract_x
  _atom_site_fract_y
  _atom_site_fract_z
  _atom_site_thermal_displace_type
  _atom_site_B_iso_or_equiv
  _atom_site_type_symbol
  Ca1      1.0000 0.00220  0.75931  0.38060  Biso   1.000  Ca
  Ca2      1.0000 0.00260  0.26036  0.38160  Biso   1.000  Ca
  Ca3      1.0000 0.99780  0.24069  0.88060  Biso   1.000  Ca
  Ca4      1.0000 0.99740  0.73964  0.88160  Biso   1.000  Ca
  Ca5      1.0000 0.50220  0.74069  0.38060  Biso   1.000  Ca
  Ca6      1.0000 0.50260  0.23964  0.38160  Biso   1.000  Ca
  Ca7      1.0000 0.49780  0.25931  0.88060  Biso   1.000  Ca
  Ca8      1.0000 0.49740  0.76036  0.88160  Biso   1.000  Ca
  Zr1      1.0000 0.25130  0.50024  0.63100  Biso   1.000  Zr
  Zr2      1.0000 0.74870  0.49976  0.13100  Biso   1.000  Zr
  Zr3      1.0000 0.75130  0.99976  0.63100  Biso   1.000  Zr
  Zr4      1.0000 0.24870  0.00024  0.13100  Biso   1.000  Zr
  C1       1.0000 0.05250  0.61450  0.52050  Biso   1.000  C
  C2       1.0000 0.04520  0.38380  0.73770  Biso   1.000  C
  C3       1.0000 0.45720  0.38650  0.51810  Biso   1.000  C
  C4       1.0000 0.44980  0.60900  0.74520  Biso   1.000  C
  C5       1.0000 0.21340  0.36740  0.76600  Biso   1.000  C
  C6       1.0000 0.22860  0.64240  0.50020  Biso   1.000  C
  C7       1.0000 0.27770  0.36280  0.50180  Biso   1.000  C
  C8       1.0000 0.27670  0.63050  0.76750  Biso   1.000  C
  C9       1.0000 0.94750  0.38550  0.02050  Biso   1.000  C
  C10      1.0000 0.95480  0.61620  0.23770  Biso   1.000  C
  C11      1.0000 0.54280  0.61350  0.01810  Biso   1.000  C
  C12      1.0000 0.55020  0.39100  0.24520  Biso   1.000  C
  C13      1.0000 0.78660  0.63260  0.26600  Biso   1.000  C
  C14      1.0000 0.77140  0.35760  0.00020  Biso   1.000  C
  C15      1.0000 0.72230  0.63720  0.00180  Biso   1.000  C
  C16      1.0000 0.72330  0.36950  0.26750  Biso   1.000  C
  C17      1.0000 0.55250  0.88550  0.52050  Biso   1.000  C
  C18      1.0000 0.54520  0.11620  0.73770  Biso   1.000  C
  C19      1.0000 0.95720  0.11350  0.51810  Biso   1.000  C
  C20      1.0000 0.94980  0.89100  0.74520  Biso   1.000  C
  C21      1.0000 0.71340  0.13260  0.76600  Biso   1.000  C
  C22      1.0000 0.72860  0.85760  0.50020  Biso   1.000  C
  C23      1.0000 0.77770  0.13720  0.50180  Biso   1.000  C
  C24      1.0000 0.77670  0.86950  0.76750  Biso   1.000  C
  C25      1.0000 0.44750  0.11450  0.02050  Biso   1.000  C
  C26      1.0000 0.45480  0.88380  0.23770  Biso   1.000  C
  C27      1.0000 0.04280  0.88650  0.01810  Biso   1.000  C
  C28      1.0000 0.05020  0.10900  0.24520  Biso   1.000  C
  C29      1.0000 0.28660  0.86740  0.26600  Biso   1.000  C
  C30      1.0000 0.27140  0.14240  0.00020  Biso   1.000  C
  C31      1.0000 0.22230  0.86280  0.00180  Biso   1.000  C
  C32      1.0000 0.22330  0.13050  0.26750  Biso   1.000  C
  O1       1.0000 0.25540  0.30820  0.44950  Biso   1.000  O
  O2       1.0000 0.25240  0.69450  0.44820  Biso   1.000  O
  O3       1.0000 0.24970  0.68340  0.82690  Biso   1.000  O
  O4       1.0000 0.24680  0.31670  0.82540  Biso   1.000  O
  O5       1.0000 0.17940  0.60200  0.71490  Biso   1.000  O
  O6       1.0000 0.46880  0.43960  0.57810  Biso   1.000  O
  O7       1.0000 0.17760  0.40820  0.53780  Biso   1.000  O
  O8       1.0000 0.93680  0.63990  0.47290  Biso   1.000  O
  O9       1.0000 0.55910  0.65810  0.77490  Biso   1.000  O
  O10      1.0000 0.56390  0.35660  0.47490  Biso   1.000  O
  O11      1.0000 0.32210  0.58820  0.53310  Biso   1.000  O
  O12      1.0000 0.03630  0.56300  0.57980  Biso   1.000  O
  O13      1.0000 0.93720  0.34380  0.77560  Biso   1.000  O
  O14      1.0000 0.32060  0.39950  0.71820  Biso   1.000  O
  O15      1.0000 0.03410  0.44810  0.69410  Biso   1.000  O
  O16      1.0000 0.46220  0.54960  0.69640  Biso   1.000  O
  O17      1.0000 0.11000  0.35170  0.27600  Biso   1.000  O
  O18      1.0000 0.89540  0.84780  0.27350  Biso   1.000  O
  O19      1.0000 0.10380  0.86880  0.46730  Biso   1.000  O
  O20      1.0000 0.89710  0.36860  0.46790  Biso   1.000  O
  O21      1.0000 0.74460  0.69180  0.94950  Biso   1.000  O
  O22      1.0000 0.74760  0.30550  0.94820  Biso   1.000  O
  O23      1.0000 0.75030  0.31660  0.32690  Biso   1.000  O
  O24      1.0000 0.75320  0.68330  0.32540  Biso   1.000  O
  O25      1.0000 0.82060  0.39800  0.21490  Biso   1.000  O
  O26      1.0000 0.53120  0.56040  0.07810  Biso   1.000  O
  O27      1.0000 0.82240  0.59180  0.03780  Biso   1.000  O
  O28      1.0000 0.06320  0.36010  0.97290  Biso   1.000  O
  O29      1.0000 0.44090  0.34190  0.27490  Biso   1.000  O
  O30      1.0000 0.43610  0.64340  0.97490  Biso   1.000  O
  O31      1.0000 0.67790  0.41180  0.03310  Biso   1.000  O
  O32      1.0000 0.96370  0.43700  0.07980  Biso   1.000  O
  O33      1.0000 0.06280  0.65620  0.27560  Biso   1.000  O
  O34      1.0000 0.67940  0.60050  0.21820  Biso   1.000  O
  O35      1.0000 0.96590  0.55190  0.19410  Biso   1.000  O
  O36      1.0000 0.53780  0.45040  0.19640  Biso   1.000  O
  O37      1.0000 0.89000  0.64830  0.77600  Biso   1.000  O
  O38      1.0000 0.10460  0.15220  0.77350  Biso   1.000  O
  O39      1.0000 0.89620  0.13120  0.96730  Biso   1.000  O
  O40      1.0000 0.10290  0.63140  0.96790  Biso   1.000  O
  O41      1.0000 0.75540  0.19180  0.44950  Biso   1.000  O
  O42      1.0000 0.75240  0.80550  0.44820  Biso   1.000  O
  O43      1.0000 0.74970  0.81660  0.82690  Biso   1.000  O
  O44      1.0000 0.74680  0.18330  0.82540  Biso   1.000  O
  O45      1.0000 0.67940  0.89800  0.71490  Biso   1.000  O
  O46      1.0000 0.96880  0.06040  0.57810  Biso   1.000  O
  O47      1.0000 0.67760  0.09180  0.53780  Biso   1.000  O
  O48      1.0000 0.43680  0.86010  0.47290  Biso   1.000  O
  O49      1.0000 0.05910  0.84190  0.77490  Biso   1.000  O
  O50      1.0000 0.06390  0.14340  0.47490  Biso   1.000  O
  O51      1.0000 0.82210  0.91180  0.53310  Biso   1.000  O
  O52      1.0000 0.53630  0.93700  0.57980  Biso   1.000  O
  O53      1.0000 0.43720  0.15620  0.77560  Biso   1.000  O
  O54      1.0000 0.82060  0.10050  0.71820  Biso   1.000  O
  O55      1.0000 0.53410  0.05190  0.69410  Biso   1.000  O
  O56      1.0000 0.96220  0.95040  0.69640  Biso   1.000  O
  O57      1.0000 0.61000  0.14830  0.27600  Biso   1.000  O
  O58      1.0000 0.39540  0.65220  0.27350  Biso   1.000  O
  O59      1.0000 0.60380  0.63120  0.46730  Biso   1.000  O
  O60      1.0000 0.39710  0.13140  0.46790  Biso   1.000  O
  O61      1.0000 0.24460  0.80820  0.94950  Biso   1.000  O
  O62      1.0000 0.24760  0.19450  0.94820  Biso   1.000  O
  O63      1.0000 0.25030  0.18340  0.32690  Biso   1.000  O
  O64      1.0000 0.25320  0.81670  0.32540  Biso   1.000  O
  O65      1.0000 0.32060  0.10200  0.21490  Biso   1.000  O
  O66      1.0000 0.03120  0.93960  0.07810  Biso   1.000  O
  O67      1.0000 0.32240  0.90820  0.03780  Biso   1.000  O
  O68      1.0000 0.56320  0.13990  0.97290  Biso   1.000  O
  O69      1.0000 0.94090  0.15810  0.27490  Biso   1.000  O
  O70      1.0000 0.93610  0.85660  0.97490  Biso   1.000  O
  O71      1.0000 0.17790  0.08820  0.03310  Biso   1.000  O
  O72      1.0000 0.46370  0.06300  0.07980  Biso   1.000  O
  O73      1.0000 0.56280  0.84380  0.27560  Biso   1.000  O
  O74      1.0000 0.17940  0.89950  0.21820  Biso   1.000  O
  O75      1.0000 0.46590  0.94810  0.19410  Biso   1.000  O
  O76      1.0000 0.03780  0.04960  0.19640  Biso   1.000  O
  O77      1.0000 0.39000  0.85170  0.77600  Biso   1.000  O
  O78      1.0000 0.60460  0.34780  0.77350  Biso   1.000  O
  O79      1.0000 0.39620  0.36880  0.96730  Biso   1.000  O
  O80      1.0000 0.60290  0.86860  0.96790  Biso   1.000  O
