data_image0
_cell_length_a       7.542
_cell_length_b       17.899
_cell_length_c       23.6594
_cell_angle_alpha    92.6607
_cell_angle_beta     90
_cell_angle_gamma    90

_symmetry_space_group_name_H-M    P 1
_symmetry_int_tables_number       1

loop_
  _symmetry_equiv_pos_as_xyz
  'x, y, z'

loop_
  _atom_site_label
  _atom_site_occupancy
  _atom_site_fract_x
  _atom_site_fract_y
  _atom_site_fract_z
  _atom_site_thermal_displace_type
  _atom_site_B_iso_or_equiv
  _atom_site_type_symbol
  Zn1      1.0000 0.47332  0.42081  0.96959  Biso   1.000  Zn
  Zn2      1.0000 0.79009  0.49032  0.91268  Biso   1.000  Zn
  Zn3      1.0000 0.47332  0.07919  0.53041  Biso   1.000  Zn
  Zn4      1.0000 0.79009  0.00968  0.58732  Biso   1.000  Zn
  Zn5      1.0000 0.52668  0.57919  0.03041  Biso   1.000  Zn
  Zn6      1.0000 0.20991  0.50968  0.08732  Biso   1.000  Zn
  Zn7      1.0000 0.52668  0.92081  0.46959  Biso   1.000  Zn
  Zn8      1.0000 0.20991  0.99032  0.41268  Biso   1.000  Zn
  H1       1.0000 0.04980  0.60910  0.78540  Biso   1.000  H
  H2       1.0000 0.23050  0.67750  0.72950  Biso   1.000  H
  H3       1.0000 0.56240  0.71220  0.86020  Biso   1.000  H
  H4       1.0000 0.55750  0.99680  0.74140  Biso   1.000  H
  H5       1.0000 0.42630  0.99410  0.82860  Biso   1.000  H
  H6       1.0000 0.99490  0.09120  0.76750  Biso   1.000  H
  H7       1.0000 0.12410  0.09190  0.67980  Biso   1.000  H
  H8       1.0000 0.22840  0.17600  0.85810  Biso   1.000  H
  H9       1.0000 0.12150  0.29280  0.88200  Biso   1.000  H
  H10      1.0000 0.66280  0.20150  0.92790  Biso   1.000  H
  H11      1.0000 0.77420  0.08480  0.90620  Biso   1.000  H
  H12      1.0000 0.12940  0.35030  0.01720  Biso   1.000  H
  H13      1.0000 0.32450  0.17600  0.07560  Biso   1.000  H
  H14      1.0000 0.28400  0.15070  0.01260  Biso   1.000  H
  H15      1.0000 0.42600  0.21290  0.02620  Biso   1.000  H
  H16      1.0000 0.92310  0.27000  0.04060  Biso   1.000  H
  H17      1.0000 0.96800  0.18600  0.02490  Biso   1.000  H
  H18      1.0000 0.99290  0.21790  0.08720  Biso   1.000  H
  H19      1.0000 0.37610  0.64550  0.91560  Biso   1.000  H
  H20      1.0000 0.04980  0.89090  0.71460  Biso   1.000  H
  H21      1.0000 0.23050  0.82250  0.77050  Biso   1.000  H
  H22      1.0000 0.56240  0.78780  0.63980  Biso   1.000  H
  H23      1.0000 0.55750  0.50320  0.75860  Biso   1.000  H
  H24      1.0000 0.42630  0.50590  0.67140  Biso   1.000  H
  H25      1.0000 0.99490  0.40880  0.73250  Biso   1.000  H
  H26      1.0000 0.12410  0.40810  0.82020  Biso   1.000  H
  H27      1.0000 0.22840  0.32400  0.64190  Biso   1.000  H
  H28      1.0000 0.12150  0.20720  0.61800  Biso   1.000  H
  H29      1.0000 0.66280  0.29850  0.57210  Biso   1.000  H
  H30      1.0000 0.77420  0.41520  0.59380  Biso   1.000  H
  H31      1.0000 0.12940  0.14970  0.48280  Biso   1.000  H
  H32      1.0000 0.32450  0.32400  0.42440  Biso   1.000  H
  H33      1.0000 0.28400  0.34930  0.48740  Biso   1.000  H
  H34      1.0000 0.42600  0.28710  0.47380  Biso   1.000  H
  H35      1.0000 0.92310  0.23000  0.45940  Biso   1.000  H
  H36      1.0000 0.96800  0.31400  0.47510  Biso   1.000  H
  H37      1.0000 0.99290  0.28210  0.41280  Biso   1.000  H
  H38      1.0000 0.37610  0.85450  0.58440  Biso   1.000  H
  H39      1.0000 0.95020  0.39090  0.21460  Biso   1.000  H
  H40      1.0000 0.76950  0.32250  0.27050  Biso   1.000  H
  H41      1.0000 0.43760  0.28780  0.13980  Biso   1.000  H
  H42      1.0000 0.44250  0.00320  0.25860  Biso   1.000  H
  H43      1.0000 0.57370  0.00590  0.17140  Biso   1.000  H
  H44      1.0000 0.00510  0.90880  0.23250  Biso   1.000  H
  H45      1.0000 0.87590  0.90810  0.32020  Biso   1.000  H
  H46      1.0000 0.77160  0.82400  0.14190  Biso   1.000  H
  H47      1.0000 0.87850  0.70720  0.11800  Biso   1.000  H
  H48      1.0000 0.33720  0.79850  0.07210  Biso   1.000  H
  H49      1.0000 0.22580  0.91520  0.09380  Biso   1.000  H
  H50      1.0000 0.87060  0.64970  0.98280  Biso   1.000  H
  H51      1.0000 0.67550  0.82400  0.92440  Biso   1.000  H
  H52      1.0000 0.71600  0.84930  0.98740  Biso   1.000  H
  H53      1.0000 0.57400  0.78710  0.97380  Biso   1.000  H
  H54      1.0000 0.07690  0.73000  0.95940  Biso   1.000  H
  H55      1.0000 0.03200  0.81400  0.97510  Biso   1.000  H
  H56      1.0000 0.00710  0.78210  0.91280  Biso   1.000  H
  H57      1.0000 0.62390  0.35450  0.08440  Biso   1.000  H
  H58      1.0000 0.95020  0.10910  0.28540  Biso   1.000  H
  H59      1.0000 0.76950  0.17750  0.22950  Biso   1.000  H
  H60      1.0000 0.43760  0.21220  0.36020  Biso   1.000  H
  H61      1.0000 0.44250  0.49680  0.24140  Biso   1.000  H
  H62      1.0000 0.57370  0.49410  0.32860  Biso   1.000  H
  H63      1.0000 0.00510  0.59120  0.26750  Biso   1.000  H
  H64      1.0000 0.87590  0.59190  0.17980  Biso   1.000  H
  H65      1.0000 0.77160  0.67600  0.35810  Biso   1.000  H
  H66      1.0000 0.87850  0.79280  0.38200  Biso   1.000  H
  H67      1.0000 0.33720  0.70150  0.42790  Biso   1.000  H
  H68      1.0000 0.22580  0.58480  0.40620  Biso   1.000  H
  H69      1.0000 0.87060  0.85030  0.51720  Biso   1.000  H
  H70      1.0000 0.67550  0.67600  0.57560  Biso   1.000  H
  H71      1.0000 0.71600  0.65070  0.51260  Biso   1.000  H
  H72      1.0000 0.57400  0.71290  0.52620  Biso   1.000  H
  H73      1.0000 0.07690  0.77000  0.54060  Biso   1.000  H
  H74      1.0000 0.03200  0.68600  0.52490  Biso   1.000  H
  H75      1.0000 0.00710  0.71790  0.58720  Biso   1.000  H
  H76      1.0000 0.62390  0.14550  0.41560  Biso   1.000  H
  C1       1.0000 0.80220  0.33520  0.92020  Biso   1.000  C
  C2       1.0000 0.06710  0.58020  0.89350  Biso   1.000  C
  C3       1.0000 0.19030  0.62200  0.85700  Biso   1.000  C
  C4       1.0000 0.15160  0.63100  0.80090  Biso   1.000  C
  C5       1.0000 0.26020  0.67170  0.76720  Biso   1.000  C
  C6       1.0000 0.41340  0.70420  0.78900  Biso   1.000  C
  C7       1.0000 0.45750  0.69270  0.84510  Biso   1.000  C
  C8       1.0000 0.64990  0.80670  0.78300  Biso   1.000  C
  C9       1.0000 0.44120  0.04500  0.64480  Biso   1.000  C
  C10      1.0000 0.35450  0.04500  0.70090  Biso   1.000  C
  C11      1.0000 0.44360  0.01580  0.74650  Biso   1.000  C
  C12      1.0000 0.36550  0.01440  0.79880  Biso   1.000  C
  C13      1.0000 0.19710  0.04320  0.80750  Biso   1.000  C
  C14      1.0000 0.10860  0.07190  0.76230  Biso   1.000  C
  C15      1.0000 0.18630  0.07260  0.70980  Biso   1.000  C
  C16      1.0000 0.09920  0.04120  0.86500  Biso   1.000  C
  C17      1.0000 0.96080  0.97760  0.85900  Biso   1.000  C
  C18      1.0000 0.22340  0.02370  0.91420  Biso   1.000  C
  C19      1.0000 0.01460  0.11750  0.87970  Biso   1.000  C
  C20      1.0000 0.11420  0.18100  0.87260  Biso   1.000  C
  C21      1.0000 0.05030  0.25100  0.88630  Biso   1.000  C
  C22      1.0000 0.87760  0.25940  0.90670  Biso   1.000  C
  C23      1.0000 0.77760  0.19660  0.91390  Biso   1.000  C
  C24      1.0000 0.84420  0.12660  0.90080  Biso   1.000  C
  C25      1.0000 0.22070  0.31590  0.02050  Biso   1.000  C
  C26      1.0000 0.31470  0.19240  0.03760  Biso   1.000  C
  C27      1.0000 0.00120  0.22930  0.04810  Biso   1.000  C
  C28      1.0000 0.34580  0.65240  0.87810  Biso   1.000  C
  C29      1.0000 0.80220  0.16480  0.57980  Biso   1.000  C
  C30      1.0000 0.06710  0.91980  0.60650  Biso   1.000  C
  C31      1.0000 0.19030  0.87800  0.64300  Biso   1.000  C
  C32      1.0000 0.15160  0.86900  0.69910  Biso   1.000  C
  C33      1.0000 0.26020  0.82830  0.73280  Biso   1.000  C
  C34      1.0000 0.41340  0.79580  0.71100  Biso   1.000  C
  C35      1.0000 0.45750  0.80730  0.65490  Biso   1.000  C
  C36      1.0000 0.64990  0.69330  0.71700  Biso   1.000  C
  C37      1.0000 0.44120  0.45500  0.85520  Biso   1.000  C
  C38      1.0000 0.35450  0.45500  0.79910  Biso   1.000  C
  C39      1.0000 0.44360  0.48420  0.75350  Biso   1.000  C
  C40      1.0000 0.36550  0.48560  0.70120  Biso   1.000  C
  C41      1.0000 0.19710  0.45680  0.69250  Biso   1.000  C
  C42      1.0000 0.10860  0.42810  0.73770  Biso   1.000  C
  C43      1.0000 0.18630  0.42740  0.79020  Biso   1.000  C
  C44      1.0000 0.09920  0.45880  0.63500  Biso   1.000  C
  C45      1.0000 0.96080  0.52240  0.64100  Biso   1.000  C
  C46      1.0000 0.22340  0.47630  0.58580  Biso   1.000  C
  C47      1.0000 0.01460  0.38250  0.62030  Biso   1.000  C
  C48      1.0000 0.11420  0.31900  0.62740  Biso   1.000  C
  C49      1.0000 0.05030  0.24900  0.61370  Biso   1.000  C
  C50      1.0000 0.87760  0.24060  0.59330  Biso   1.000  C
  C51      1.0000 0.77760  0.30340  0.58610  Biso   1.000  C
  C52      1.0000 0.84420  0.37340  0.59920  Biso   1.000  C
  C53      1.0000 0.22070  0.18410  0.47950  Biso   1.000  C
  C54      1.0000 0.31470  0.30760  0.46240  Biso   1.000  C
  C55      1.0000 0.00120  0.27070  0.45190  Biso   1.000  C
  C56      1.0000 0.34580  0.84760  0.62190  Biso   1.000  C
  C57      1.0000 0.19780  0.66480  0.07980  Biso   1.000  C
  C58      1.0000 0.93290  0.41980  0.10650  Biso   1.000  C
  C59      1.0000 0.80970  0.37800  0.14300  Biso   1.000  C
  C60      1.0000 0.84840  0.36900  0.19910  Biso   1.000  C
  C61      1.0000 0.73980  0.32830  0.23280  Biso   1.000  C
  C62      1.0000 0.58660  0.29580  0.21100  Biso   1.000  C
  C63      1.0000 0.54250  0.30730  0.15490  Biso   1.000  C
  C64      1.0000 0.35010  0.19330  0.21700  Biso   1.000  C
  C65      1.0000 0.55880  0.95500  0.35520  Biso   1.000  C
  C66      1.0000 0.64550  0.95500  0.29910  Biso   1.000  C
  C67      1.0000 0.55640  0.98420  0.25350  Biso   1.000  C
  C68      1.0000 0.63450  0.98560  0.20120  Biso   1.000  C
  C69      1.0000 0.80290  0.95680  0.19250  Biso   1.000  C
  C70      1.0000 0.89140  0.92810  0.23770  Biso   1.000  C
  C71      1.0000 0.81370  0.92740  0.29020  Biso   1.000  C
  C72      1.0000 0.90080  0.95880  0.13500  Biso   1.000  C
  C73      1.0000 0.03920  0.02240  0.14100  Biso   1.000  C
  C74      1.0000 0.77660  0.97630  0.08580  Biso   1.000  C
  C75      1.0000 0.98540  0.88250  0.12030  Biso   1.000  C
  C76      1.0000 0.88580  0.81900  0.12740  Biso   1.000  C
  C77      1.0000 0.94970  0.74900  0.11370  Biso   1.000  C
  C78      1.0000 0.12240  0.74060  0.09330  Biso   1.000  C
  C79      1.0000 0.22240  0.80340  0.08610  Biso   1.000  C
  C80      1.0000 0.15580  0.87340  0.09920  Biso   1.000  C
  C81      1.0000 0.77930  0.68410  0.97950  Biso   1.000  C
  C82      1.0000 0.68530  0.80760  0.96240  Biso   1.000  C
  C83      1.0000 0.99880  0.77070  0.95190  Biso   1.000  C
  C84      1.0000 0.65420  0.34760  0.12190  Biso   1.000  C
  C85      1.0000 0.19780  0.83520  0.42020  Biso   1.000  C
  C86      1.0000 0.93290  0.08020  0.39350  Biso   1.000  C
  C87      1.0000 0.80970  0.12200  0.35700  Biso   1.000  C
  C88      1.0000 0.84840  0.13100  0.30090  Biso   1.000  C
  C89      1.0000 0.73980  0.17170  0.26720  Biso   1.000  C
  C90      1.0000 0.58660  0.20420  0.28900  Biso   1.000  C
  C91      1.0000 0.54250  0.19270  0.34510  Biso   1.000  C
  C92      1.0000 0.35010  0.30670  0.28300  Biso   1.000  C
  C93      1.0000 0.55880  0.54500  0.14480  Biso   1.000  C
  C94      1.0000 0.64550  0.54500  0.20090  Biso   1.000  C
  C95      1.0000 0.55640  0.51580  0.24650  Biso   1.000  C
  C96      1.0000 0.63450  0.51440  0.29880  Biso   1.000  C
  C97      1.0000 0.80290  0.54320  0.30750  Biso   1.000  C
  C98      1.0000 0.89140  0.57190  0.26230  Biso   1.000  C
  C99      1.0000 0.81370  0.57260  0.20980  Biso   1.000  C
  C100     1.0000 0.90080  0.54120  0.36500  Biso   1.000  C
  C101     1.0000 0.03920  0.47760  0.35900  Biso   1.000  C
  C102     1.0000 0.77660  0.52370  0.41420  Biso   1.000  C
  C103     1.0000 0.98540  0.61750  0.37970  Biso   1.000  C
  C104     1.0000 0.88580  0.68100  0.37260  Biso   1.000  C
  C105     1.0000 0.94970  0.75100  0.38630  Biso   1.000  C
  C106     1.0000 0.12240  0.75940  0.40670  Biso   1.000  C
  C107     1.0000 0.22240  0.69660  0.41390  Biso   1.000  C
  C108     1.0000 0.15580  0.62660  0.40080  Biso   1.000  C
  C109     1.0000 0.77930  0.81590  0.52050  Biso   1.000  C
  C110     1.0000 0.68530  0.69240  0.53760  Biso   1.000  C
  C111     1.0000 0.99880  0.72930  0.54810  Biso   1.000  C
  C112     1.0000 0.65420  0.15240  0.37810  Biso   1.000  C
  C113     1.0000 0.52900  0.75000  0.75000  Biso   1.000  C
  C114     1.0000 0.47100  0.25000  0.25000  Biso   1.000  C
  N1       1.0000 0.17730  0.24950  0.03540  Biso   1.000  N
  N2       1.0000 0.17730  0.25050  0.46460  Biso   1.000  N
  N3       1.0000 0.82270  0.75050  0.96460  Biso   1.000  N
  N4       1.0000 0.82270  0.74950  0.53540  Biso   1.000  N
  O1       1.0000 0.65490  0.33882  0.94342  Biso   1.000  O
  O2       1.0000 0.89490  0.39046  0.90716  Biso   1.000  O
  O3       1.0000 0.92360  0.55898  0.87078  Biso   1.000  O
  O4       1.0000 0.10500  0.57018  0.94328  Biso   1.000  O
  O5       1.0000 0.59050  0.01591  0.64101  Biso   1.000  O
  O6       1.0000 0.35970  0.07252  0.60472  Biso   1.000  O
  O7       1.0000 0.36820  0.33679  0.01049  Biso   1.000  O
  O8       1.0000 0.67300  0.49635  0.98705  Biso   1.000  O
  O9       1.0000 0.65490  0.16118  0.55658  Biso   1.000  O
  O10      1.0000 0.89490  0.10954  0.59284  Biso   1.000  O
  O11      1.0000 0.92360  0.94102  0.62922  Biso   1.000  O
  O12      1.0000 0.10500  0.92982  0.55672  Biso   1.000  O
  O13      1.0000 0.59050  0.48409  0.85899  Biso   1.000  O
  O14      1.0000 0.35970  0.42748  0.89528  Biso   1.000  O
  O15      1.0000 0.36820  0.16321  0.48951  Biso   1.000  O
  O16      1.0000 0.67300  0.00365  0.51295  Biso   1.000  O
  O17      1.0000 0.34510  0.66118  0.05658  Biso   1.000  O
  O18      1.0000 0.10510  0.60954  0.09284  Biso   1.000  O
  O19      1.0000 0.07640  0.44102  0.12922  Biso   1.000  O
  O20      1.0000 0.89500  0.42982  0.05672  Biso   1.000  O
  O21      1.0000 0.40950  0.98409  0.35899  Biso   1.000  O
  O22      1.0000 0.64030  0.92748  0.39528  Biso   1.000  O
  O23      1.0000 0.63180  0.66321  0.98951  Biso   1.000  O
  O24      1.0000 0.32700  0.50365  0.01295  Biso   1.000  O
  O25      1.0000 0.34510  0.83882  0.44342  Biso   1.000  O
  O26      1.0000 0.10510  0.89046  0.40716  Biso   1.000  O
  O27      1.0000 0.07640  0.05898  0.37078  Biso   1.000  O
  O28      1.0000 0.89500  0.07018  0.44328  Biso   1.000  O
  O29      1.0000 0.40950  0.51591  0.14101  Biso   1.000  O
  O30      1.0000 0.64030  0.57252  0.10472  Biso   1.000  O
  O31      1.0000 0.63180  0.83679  0.51049  Biso   1.000  O
  O32      1.0000 0.32700  0.99635  0.48705  Biso   1.000  O
  F1       1.0000 0.55770  0.84685  0.82115  Biso   1.000  F
  F2       1.0000 0.78190  0.77463  0.81053  Biso   1.000  F
  F3       1.0000 0.72370  0.85440  0.74930  Biso   1.000  F
  F4       1.0000 0.83010  0.99467  0.82417  Biso   1.000  F
  F5       1.0000 0.03450  0.91478  0.83788  Biso   1.000  F
  F6       1.0000 0.88700  0.96119  0.90789  Biso   1.000  F
  F7       1.0000 0.36440  0.06829  0.91669  Biso   1.000  F
  F8       1.0000 0.28450  0.95353  0.91173  Biso   1.000  F
  F9       1.0000 0.14290  0.03314  0.96384  Biso   1.000  F
  F10      1.0000 0.55770  0.65315  0.67885  Biso   1.000  F
  F11      1.0000 0.78190  0.72537  0.68947  Biso   1.000  F
  F12      1.0000 0.72370  0.64560  0.75070  Biso   1.000  F
  F13      1.0000 0.83010  0.50533  0.67583  Biso   1.000  F
  F14      1.0000 0.03450  0.58522  0.66212  Biso   1.000  F
  F15      1.0000 0.88700  0.53881  0.59211  Biso   1.000  F
  F16      1.0000 0.36440  0.43171  0.58331  Biso   1.000  F
  F17      1.0000 0.28450  0.54647  0.58827  Biso   1.000  F
  F18      1.0000 0.14290  0.46686  0.53616  Biso   1.000  F
  F19      1.0000 0.44230  0.15315  0.17885  Biso   1.000  F
  F20      1.0000 0.21810  0.22537  0.18947  Biso   1.000  F
  F21      1.0000 0.27630  0.14560  0.25070  Biso   1.000  F
  F22      1.0000 0.16990  0.00533  0.17583  Biso   1.000  F
  F23      1.0000 0.96550  0.08522  0.16212  Biso   1.000  F
  F24      1.0000 0.11300  0.03881  0.09211  Biso   1.000  F
  F25      1.0000 0.63560  0.93171  0.08331  Biso   1.000  F
  F26      1.0000 0.71550  0.04647  0.08827  Biso   1.000  F
  F27      1.0000 0.85710  0.96686  0.03616  Biso   1.000  F
  F28      1.0000 0.44230  0.34685  0.32115  Biso   1.000  F
  F29      1.0000 0.21810  0.27463  0.31053  Biso   1.000  F
  F30      1.0000 0.27630  0.35440  0.24930  Biso   1.000  F
  F31      1.0000 0.16990  0.49467  0.32417  Biso   1.000  F
  F32      1.0000 0.96550  0.41478  0.33788  Biso   1.000  F
  F33      1.0000 0.11300  0.46119  0.40789  Biso   1.000  F
  F34      1.0000 0.63560  0.56829  0.41669  Biso   1.000  F
  F35      1.0000 0.71550  0.45353  0.41173  Biso   1.000  F
  F36      1.0000 0.85710  0.53314  0.46384  Biso   1.000  F
