data_image0
_cell_length_a       10.19
_cell_length_b       11.232
_cell_length_c       22.14
_cell_angle_alpha    90
_cell_angle_beta     96.863
_cell_angle_gamma    90

_symmetry_space_group_name_H-M    P 1
_symmetry_int_tables_number       1

loop_
  _symmetry_equiv_pos_as_xyz
  'x, y, z'

loop_
  _atom_site_label
  _atom_site_occupancy
  _atom_site_fract_x
  _atom_site_fract_y
  _atom_site_fract_z
  _atom_site_thermal_displace_type
  _atom_site_B_iso_or_equiv
  _atom_site_type_symbol
  Gd1      1.0000 0.38895  0.68617  0.27453  Biso   1.000  Gd
  Gd2      1.0000 0.74112  0.41173  0.43609  Biso   1.000  Gd
  Gd3      1.0000 0.11105  0.18617  0.22547  Biso   1.000  Gd
  Gd4      1.0000 0.75888  0.91173  0.06391  Biso   1.000  Gd
  Gd5      1.0000 0.61105  0.31383  0.72547  Biso   1.000  Gd
  Gd6      1.0000 0.25888  0.58827  0.56391  Biso   1.000  Gd
  Gd7      1.0000 0.88895  0.81383  0.77453  Biso   1.000  Gd
  Gd8      1.0000 0.24112  0.08827  0.93609  Biso   1.000  Gd
  H1       1.0000 0.75010  0.38970  0.07430  Biso   1.000  H
  H2       1.0000 0.90310  0.36920  0.08720  Biso   1.000  H
  H3       1.0000 0.80590  0.26120  0.08790  Biso   1.000  H
  H4       1.0000 0.04020  0.66870  0.20380  Biso   1.000  H
  H5       1.0000 0.93010  0.58070  0.21970  Biso   1.000  H
  H6       1.0000 0.91090  0.71840  0.22640  Biso   1.000  H
  H7       1.0000 0.66200  0.47050  0.16480  Biso   1.000  H
  H8       1.0000 0.88200  0.61800  0.33860  Biso   1.000  H
  H9       1.0000 0.74990  0.88970  0.42570  Biso   1.000  H
  H10      1.0000 0.59690  0.86920  0.41280  Biso   1.000  H
  H11      1.0000 0.69410  0.76120  0.41210  Biso   1.000  H
  H12      1.0000 0.45980  0.16870  0.29620  Biso   1.000  H
  H13      1.0000 0.56990  0.08070  0.28030  Biso   1.000  H
  H14      1.0000 0.58910  0.21840  0.27360  Biso   1.000  H
  H15      1.0000 0.83800  0.97050  0.33520  Biso   1.000  H
  H16      1.0000 0.61800  0.11800  0.16140  Biso   1.000  H
  H17      1.0000 0.24990  0.61030  0.92570  Biso   1.000  H
  H18      1.0000 0.09690  0.63080  0.91280  Biso   1.000  H
  H19      1.0000 0.19410  0.73880  0.91210  Biso   1.000  H
  H20      1.0000 0.95980  0.33130  0.79620  Biso   1.000  H
  H21      1.0000 0.06990  0.41930  0.78030  Biso   1.000  H
  H22      1.0000 0.08910  0.28160  0.77360  Biso   1.000  H
  H23      1.0000 0.33800  0.52950  0.83520  Biso   1.000  H
  H24      1.0000 0.11800  0.38200  0.66140  Biso   1.000  H
  H25      1.0000 0.25010  0.11030  0.57430  Biso   1.000  H
  H26      1.0000 0.40310  0.13080  0.58720  Biso   1.000  H
  H27      1.0000 0.30590  0.23880  0.58790  Biso   1.000  H
  H28      1.0000 0.54020  0.83130  0.70380  Biso   1.000  H
  H29      1.0000 0.43010  0.91930  0.71970  Biso   1.000  H
  H30      1.0000 0.41090  0.78160  0.72640  Biso   1.000  H
  H31      1.0000 0.16200  0.02950  0.66480  Biso   1.000  H
  H32      1.0000 0.38200  0.88200  0.83860  Biso   1.000  H
  C1       1.0000 0.92110  0.31130  0.32060  Biso   1.000  C
  C2       1.0000 0.84940  0.35400  0.26250  Biso   1.000  C
  C3       1.0000 0.74270  0.42710  0.24850  Biso   1.000  C
  C4       1.0000 0.65940  0.50480  0.28370  Biso   1.000  C
  C5       1.0000 0.81210  0.36330  0.16440  Biso   1.000  C
  C6       1.0000 0.81840  0.34410  0.09740  Biso   1.000  C
  C7       1.0000 0.30780  0.65280  0.41240  Biso   1.000  C
  C8       1.0000 0.17430  0.64960  0.37620  Biso   1.000  C
  C9       1.0000 0.05060  0.62870  0.39430  Biso   1.000  C
  C10      1.0000 0.99440  0.61490  0.45260  Biso   1.000  C
  C11      1.0000 0.03750  0.64870  0.29390  Biso   1.000  C
  C12      1.0000 0.97410  0.65460  0.23040  Biso   1.000  C
  C13      1.0000 0.29590  0.40760  0.27850  Biso   1.000  C
  C14      1.0000 0.23670  0.45330  0.21500  Biso   1.000  C
  C15      1.0000 0.57890  0.81130  0.17940  Biso   1.000  C
  C16      1.0000 0.65060  0.85400  0.23750  Biso   1.000  C
  C17      1.0000 0.75730  0.92710  0.25150  Biso   1.000  C
  C18      1.0000 0.84060  0.00480  0.21630  Biso   1.000  C
  C19      1.0000 0.68790  0.86330  0.33560  Biso   1.000  C
  C20      1.0000 0.68160  0.84410  0.40260  Biso   1.000  C
  C21      1.0000 0.19220  0.15280  0.08760  Biso   1.000  C
  C22      1.0000 0.32570  0.14960  0.12380  Biso   1.000  C
  C23      1.0000 0.44940  0.12870  0.10570  Biso   1.000  C
  C24      1.0000 0.50560  0.11490  0.04740  Biso   1.000  C
  C25      1.0000 0.46250  0.14870  0.20610  Biso   1.000  C
  C26      1.0000 0.52590  0.15460  0.26960  Biso   1.000  C
  C27      1.0000 0.20410  0.90760  0.22150  Biso   1.000  C
  C28      1.0000 0.26330  0.95330  0.28500  Biso   1.000  C
  C29      1.0000 0.07890  0.68870  0.67940  Biso   1.000  C
  C30      1.0000 0.15060  0.64600  0.73750  Biso   1.000  C
  C31      1.0000 0.25730  0.57290  0.75150  Biso   1.000  C
  C32      1.0000 0.34060  0.49520  0.71630  Biso   1.000  C
  C33      1.0000 0.18790  0.63670  0.83560  Biso   1.000  C
  C34      1.0000 0.18160  0.65590  0.90260  Biso   1.000  C
  C35      1.0000 0.69220  0.34720  0.58760  Biso   1.000  C
  C36      1.0000 0.82570  0.35040  0.62380  Biso   1.000  C
  C37      1.0000 0.94940  0.37130  0.60570  Biso   1.000  C
  C38      1.0000 0.00560  0.38510  0.54740  Biso   1.000  C
  C39      1.0000 0.96250  0.35130  0.70610  Biso   1.000  C
  C40      1.0000 0.02590  0.34540  0.76960  Biso   1.000  C
  C41      1.0000 0.70410  0.59240  0.72150  Biso   1.000  C
  C42      1.0000 0.76330  0.54670  0.78500  Biso   1.000  C
  C43      1.0000 0.42110  0.18870  0.82060  Biso   1.000  C
  C44      1.0000 0.34940  0.14600  0.76250  Biso   1.000  C
  C45      1.0000 0.24270  0.07290  0.74850  Biso   1.000  C
  C46      1.0000 0.15940  0.99520  0.78370  Biso   1.000  C
  C47      1.0000 0.31210  0.13670  0.66440  Biso   1.000  C
  C48      1.0000 0.31840  0.15590  0.59740  Biso   1.000  C
  C49      1.0000 0.80780  0.84720  0.91240  Biso   1.000  C
  C50      1.0000 0.67430  0.85040  0.87620  Biso   1.000  C
  C51      1.0000 0.55060  0.87130  0.89430  Biso   1.000  C
  C52      1.0000 0.49440  0.88510  0.95260  Biso   1.000  C
  C53      1.0000 0.53750  0.85130  0.79390  Biso   1.000  C
  C54      1.0000 0.47410  0.84540  0.73040  Biso   1.000  C
  C55      1.0000 0.79590  0.09240  0.77850  Biso   1.000  C
  C56      1.0000 0.73670  0.04670  0.71500  Biso   1.000  C
  N1       1.0000 0.89480  0.31240  0.20840  Biso   1.000  N
  N2       1.0000 0.72290  0.43070  0.18620  Biso   1.000  N
  N3       1.0000 0.16460  0.65990  0.31400  Biso   1.000  N
  N4       1.0000 0.96600  0.62870  0.34150  Biso   1.000  N
  N5       1.0000 0.60520  0.81240  0.29160  Biso   1.000  N
  N6       1.0000 0.77710  0.93070  0.31380  Biso   1.000  N
  N7       1.0000 0.33540  0.15990  0.18600  Biso   1.000  N
  N8       1.0000 0.53400  0.12870  0.15850  Biso   1.000  N
  N9       1.0000 0.10520  0.68760  0.79160  Biso   1.000  N
  N10      1.0000 0.27710  0.56930  0.81380  Biso   1.000  N
  N11      1.0000 0.83540  0.34010  0.68600  Biso   1.000  N
  N12      1.0000 0.03400  0.37130  0.65850  Biso   1.000  N
  N13      1.0000 0.39480  0.18760  0.70840  Biso   1.000  N
  N14      1.0000 0.22290  0.06930  0.68620  Biso   1.000  N
  N15      1.0000 0.66460  0.84010  0.81400  Biso   1.000  N
  N16      1.0000 0.46600  0.87130  0.84150  Biso   1.000  N
  O1       1.0000 0.87890  0.33630  0.36900  Biso   1.000  O
  O2       1.0000 0.02490  0.25300  0.31780  Biso   1.000  O
  O3       1.0000 0.68580  0.51340  0.34120  Biso   1.000  O
  O4       1.0000 0.40290  0.67660  0.38380  Biso   1.000  O
  O5       1.0000 0.57090  0.56050  0.25260  Biso   1.000  O
  O6       1.0000 0.32050  0.62990  0.46810  Biso   1.000  O
  O7       1.0000 0.06000  0.63540  0.50170  Biso   1.000  O
  O8       1.0000 0.87220  0.58520  0.44680  Biso   1.000  O
  O9       1.0000 0.36630  0.47860  0.31180  Biso   1.000  O
  O10      1.0000 0.26860  0.30350  0.29140  Biso   1.000  O
  O11      1.0000 0.27270  0.55650  0.20050  Biso   1.000  O
  O12      1.0000 0.15930  0.38560  0.18400  Biso   1.000  O
  O13      1.0000 0.73160  0.19550  0.44120  Biso   1.000  O
  O14      1.0000 0.51740  0.35390  0.40080  Biso   1.000  O
  O15      1.0000 0.60570  0.57640  0.46560  Biso   1.000  O
  O16      1.0000 0.62110  0.83630  0.13100  Biso   1.000  O
  O17      1.0000 0.47510  0.75300  0.18220  Biso   1.000  O
  O18      1.0000 0.81420  0.01340  0.15880  Biso   1.000  O
  O19      1.0000 0.09710  0.17660  0.11620  Biso   1.000  O
  O20      1.0000 0.92910  0.06050  0.24740  Biso   1.000  O
  O21      1.0000 0.17950  0.12990  0.03190  Biso   1.000  O
  O22      1.0000 0.44000  0.13540  0.99830  Biso   1.000  O
  O23      1.0000 0.62780  0.08520  0.05320  Biso   1.000  O
  O24      1.0000 0.13370  0.97860  0.18820  Biso   1.000  O
  O25      1.0000 0.23140  0.80350  0.20860  Biso   1.000  O
  O26      1.0000 0.22730  0.05650  0.29950  Biso   1.000  O
  O27      1.0000 0.34070  0.88560  0.31600  Biso   1.000  O
  O28      1.0000 0.76840  0.69550  0.05880  Biso   1.000  O
  O29      1.0000 0.98260  0.85390  0.09920  Biso   1.000  O
  O30      1.0000 0.89430  0.07640  0.03440  Biso   1.000  O
  O31      1.0000 0.12110  0.66370  0.63100  Biso   1.000  O
  O32      1.0000 0.97510  0.74700  0.68220  Biso   1.000  O
  O33      1.0000 0.31420  0.48660  0.65880  Biso   1.000  O
  O34      1.0000 0.59710  0.32340  0.61620  Biso   1.000  O
  O35      1.0000 0.42910  0.43950  0.74740  Biso   1.000  O
  O36      1.0000 0.67950  0.37010  0.53190  Biso   1.000  O
  O37      1.0000 0.94000  0.36460  0.49830  Biso   1.000  O
  O38      1.0000 0.12780  0.41480  0.55320  Biso   1.000  O
  O39      1.0000 0.63370  0.52140  0.68820  Biso   1.000  O
  O40      1.0000 0.73140  0.69650  0.70860  Biso   1.000  O
  O41      1.0000 0.72730  0.44350  0.79950  Biso   1.000  O
  O42      1.0000 0.84070  0.61440  0.81600  Biso   1.000  O
  O43      1.0000 0.26840  0.80450  0.55880  Biso   1.000  O
  O44      1.0000 0.48260  0.64610  0.59920  Biso   1.000  O
  O45      1.0000 0.39430  0.42360  0.53440  Biso   1.000  O
  O46      1.0000 0.37890  0.16370  0.86900  Biso   1.000  O
  O47      1.0000 0.52490  0.24700  0.81780  Biso   1.000  O
  O48      1.0000 0.18580  0.98660  0.84120  Biso   1.000  O
  O49      1.0000 0.90290  0.82340  0.88380  Biso   1.000  O
  O50      1.0000 0.07090  0.93950  0.75260  Biso   1.000  O
  O51      1.0000 0.82050  0.87010  0.96810  Biso   1.000  O
  O52      1.0000 0.56000  0.86460  0.00170  Biso   1.000  O
  O53      1.0000 0.37220  0.91480  0.94680  Biso   1.000  O
  O54      1.0000 0.86630  0.02140  0.81180  Biso   1.000  O
  O55      1.0000 0.76860  0.19650  0.79140  Biso   1.000  O
  O56      1.0000 0.77270  0.94350  0.70050  Biso   1.000  O
  O57      1.0000 0.65930  0.11440  0.68400  Biso   1.000  O
  O58      1.0000 0.23160  0.30450  0.94120  Biso   1.000  O
  O59      1.0000 0.01740  0.14610  0.90080  Biso   1.000  O
  O60      1.0000 0.10570  0.92360  0.96560  Biso   1.000  O
