data_image0
_cell_length_a       10.255
_cell_length_b       11.268
_cell_length_c       22.194
_cell_angle_alpha    90
_cell_angle_beta     97.061
_cell_angle_gamma    90

_symmetry_space_group_name_H-M    P 1
_symmetry_int_tables_number       1

loop_
  _symmetry_equiv_pos_as_xyz
  'x, y, z'

loop_
  _atom_site_label
  _atom_site_occupancy
  _atom_site_fract_x
  _atom_site_fract_y
  _atom_site_fract_z
  _atom_site_thermal_displace_type
  _atom_site_B_iso_or_equiv
  _atom_site_type_symbol
  Sm1      1.0000 0.38992  0.18834  0.77449  Biso   1.000  Sm
  Sm2      1.0000 0.73977  0.91485  0.93583  Biso   1.000  Sm
  Sm3      1.0000 0.11008  0.68834  0.72551  Biso   1.000  Sm
  Sm4      1.0000 0.76023  0.41485  0.56417  Biso   1.000  Sm
  Sm5      1.0000 0.61008  0.81166  0.22551  Biso   1.000  Sm
  Sm6      1.0000 0.26023  0.08515  0.06417  Biso   1.000  Sm
  Sm7      1.0000 0.88992  0.31166  0.27449  Biso   1.000  Sm
  Sm8      1.0000 0.23977  0.58515  0.43583  Biso   1.000  Sm
  H1       1.0000 0.66270  0.97410  0.66500  Biso   1.000  H
  H2       1.0000 0.88460  0.12070  0.83800  Biso   1.000  H
  H3       1.0000 0.89050  0.79530  0.59270  Biso   1.000  H
  H4       1.0000 0.73860  0.81590  0.57910  Biso   1.000  H
  H5       1.0000 0.83520  0.92400  0.58060  Biso   1.000  H
  H6       1.0000 0.88270  0.14730  0.72890  Biso   1.000  H
  H7       1.0000 0.01230  0.09810  0.70740  Biso   1.000  H
  H8       1.0000 0.99370  0.23510  0.71490  Biso   1.000  H
  H9       1.0000 0.83730  0.47410  0.83500  Biso   1.000  H
  H10      1.0000 0.61540  0.62070  0.66200  Biso   1.000  H
  H11      1.0000 0.60950  0.29530  0.90730  Biso   1.000  H
  H12      1.0000 0.76140  0.31590  0.92090  Biso   1.000  H
  H13      1.0000 0.66480  0.42400  0.91940  Biso   1.000  H
  H14      1.0000 0.61730  0.64730  0.77110  Biso   1.000  H
  H15      1.0000 0.48770  0.59810  0.79260  Biso   1.000  H
  H16      1.0000 0.50630  0.73510  0.78510  Biso   1.000  H
  H17      1.0000 0.33730  0.02590  0.33500  Biso   1.000  H
  H18      1.0000 0.11540  0.87930  0.16200  Biso   1.000  H
  H19      1.0000 0.10950  0.20470  0.40730  Biso   1.000  H
  H20      1.0000 0.26140  0.18410  0.42090  Biso   1.000  H
  H21      1.0000 0.16480  0.07600  0.41940  Biso   1.000  H
  H22      1.0000 0.11730  0.85270  0.27110  Biso   1.000  H
  H23      1.0000 0.98770  0.90190  0.29260  Biso   1.000  H
  H24      1.0000 0.00630  0.76490  0.28510  Biso   1.000  H
  H25      1.0000 0.16270  0.52590  0.16500  Biso   1.000  H
  H26      1.0000 0.38460  0.37930  0.33800  Biso   1.000  H
  H27      1.0000 0.39050  0.70470  0.09270  Biso   1.000  H
  H28      1.0000 0.23860  0.68410  0.07910  Biso   1.000  H
  H29      1.0000 0.33520  0.57600  0.08060  Biso   1.000  H
  H30      1.0000 0.38270  0.35270  0.22890  Biso   1.000  H
  H31      1.0000 0.51230  0.40190  0.20740  Biso   1.000  H
  H32      1.0000 0.49370  0.26490  0.21490  Biso   1.000  H
  C1       1.0000 0.26520  0.45520  0.78560  Biso   1.000  C
  C2       1.0000 0.20420  0.40880  0.72250  Biso   1.000  C
  C3       1.0000 0.66000  0.00730  0.78360  Biso   1.000  C
  C4       1.0000 0.74050  0.92970  0.74770  Biso   1.000  C
  C5       1.0000 0.81190  0.86360  0.66420  Biso   1.000  C
  C6       1.0000 0.81980  0.84840  0.59830  Biso   1.000  C
  C7       1.0000 0.85010  0.85590  0.76180  Biso   1.000  C
  C8       1.0000 0.91940  0.81500  0.82030  Biso   1.000  C
  C9       1.0000 0.99290  0.11470  0.95150  Biso   1.000  C
  C10      1.0000 0.05090  0.13050  0.89360  Biso   1.000  C
  C11      1.0000 0.03550  0.15050  0.79370  Biso   1.000  C
  C12      1.0000 0.97600  0.15840  0.73090  Biso   1.000  C
  C13      1.0000 0.17380  0.14990  0.87700  Biso   1.000  C
  C14      1.0000 0.30620  0.15210  0.91270  Biso   1.000  C
  C15      1.0000 0.23480  0.95520  0.71440  Biso   1.000  C
  C16      1.0000 0.29580  0.90880  0.77750  Biso   1.000  C
  C17      1.0000 0.84000  0.50730  0.71640  Biso   1.000  C
  C18      1.0000 0.75950  0.42970  0.75230  Biso   1.000  C
  C19      1.0000 0.68810  0.36360  0.83580  Biso   1.000  C
  C20      1.0000 0.68020  0.34840  0.90170  Biso   1.000  C
  C21      1.0000 0.64990  0.35590  0.73820  Biso   1.000  C
  C22      1.0000 0.58060  0.31500  0.67970  Biso   1.000  C
  C23      1.0000 0.50710  0.61470  0.54850  Biso   1.000  C
  C24      1.0000 0.44910  0.63050  0.60640  Biso   1.000  C
  C25      1.0000 0.46450  0.65050  0.70630  Biso   1.000  C
  C26      1.0000 0.52400  0.65840  0.76910  Biso   1.000  C
  C27      1.0000 0.32620  0.64990  0.62300  Biso   1.000  C
  C28      1.0000 0.19380  0.65210  0.58730  Biso   1.000  C
  C29      1.0000 0.73480  0.54480  0.21440  Biso   1.000  C
  C30      1.0000 0.79580  0.59120  0.27750  Biso   1.000  C
  C31      1.0000 0.34000  0.99270  0.21640  Biso   1.000  C
  C32      1.0000 0.25950  0.07030  0.25230  Biso   1.000  C
  C33      1.0000 0.18810  0.13640  0.33580  Biso   1.000  C
  C34      1.0000 0.18020  0.15160  0.40170  Biso   1.000  C
  C35      1.0000 0.14990  0.14410  0.23820  Biso   1.000  C
  C36      1.0000 0.08060  0.18500  0.17970  Biso   1.000  C
  C37      1.0000 0.00710  0.88530  0.04850  Biso   1.000  C
  C38      1.0000 0.94910  0.86950  0.10640  Biso   1.000  C
  C39      1.0000 0.96450  0.84950  0.20630  Biso   1.000  C
  C40      1.0000 0.02400  0.84160  0.26910  Biso   1.000  C
  C41      1.0000 0.82620  0.85010  0.12300  Biso   1.000  C
  C42      1.0000 0.69380  0.84790  0.08730  Biso   1.000  C
  C43      1.0000 0.76520  0.04480  0.28560  Biso   1.000  C
  C44      1.0000 0.70420  0.09120  0.22250  Biso   1.000  C
  C45      1.0000 0.16000  0.49270  0.28360  Biso   1.000  C
  C46      1.0000 0.24050  0.57030  0.24770  Biso   1.000  C
  C47      1.0000 0.31190  0.63640  0.16420  Biso   1.000  C
  C48      1.0000 0.31980  0.65160  0.09830  Biso   1.000  C
  C49      1.0000 0.35010  0.64410  0.26180  Biso   1.000  C
  C50      1.0000 0.41940  0.68500  0.32030  Biso   1.000  C
  C51      1.0000 0.49290  0.38530  0.45150  Biso   1.000  C
  C52      1.0000 0.55090  0.36950  0.39360  Biso   1.000  C
  C53      1.0000 0.53550  0.34950  0.29370  Biso   1.000  C
  C54      1.0000 0.47600  0.34160  0.23090  Biso   1.000  C
  C55      1.0000 0.67380  0.35010  0.37700  Biso   1.000  C
  C56      1.0000 0.80620  0.34790  0.41270  Biso   1.000  C
  N1       1.0000 0.89280  0.81710  0.70940  Biso   1.000  N
  N2       1.0000 0.72230  0.93340  0.68650  Biso   1.000  N
  N3       1.0000 0.16320  0.16150  0.81530  Biso   1.000  N
  N4       1.0000 0.96820  0.13120  0.84080  Biso   1.000  N
  N5       1.0000 0.60720  0.31710  0.79060  Biso   1.000  N
  N6       1.0000 0.77770  0.43340  0.81350  Biso   1.000  N
  N7       1.0000 0.33680  0.66150  0.68470  Biso   1.000  N
  N8       1.0000 0.53180  0.63120  0.65920  Biso   1.000  N
  N9       1.0000 0.10720  0.18290  0.29060  Biso   1.000  N
  N10      1.0000 0.27770  0.06660  0.31350  Biso   1.000  N
  N11      1.0000 0.83680  0.83850  0.18470  Biso   1.000  N
  N12      1.0000 0.03180  0.86880  0.15920  Biso   1.000  N
  N13      1.0000 0.39280  0.68290  0.20940  Biso   1.000  N
  N14      1.0000 0.22230  0.56660  0.18650  Biso   1.000  N
  N15      1.0000 0.66320  0.33850  0.31530  Biso   1.000  N
  N16      1.0000 0.46820  0.36880  0.34080  Biso   1.000  N
  O1       1.0000 0.34130  0.38820  0.81580  Biso   1.000  O
  O2       1.0000 0.22830  0.55730  0.80070  Biso   1.000  O
  O3       1.0000 0.23080  0.30590  0.70900  Biso   1.000  O
  O4       1.0000 0.13300  0.47920  0.68960  Biso   1.000  O
  O5       1.0000 0.57230  0.06210  0.75180  Biso   1.000  O
  O6       1.0000 0.68630  0.01540  0.83980  Biso   1.000  O
  O7       1.0000 0.87570  0.84030  0.86890  Biso   1.000  O
  O8       1.0000 0.02450  0.75810  0.81760  Biso   1.000  O
  O9       1.0000 0.06140  0.13410  0.00150  Biso   1.000  O
  O10      1.0000 0.87460  0.08860  0.94560  Biso   1.000  O
  O11      1.0000 0.32030  0.12790  0.96780  Biso   1.000  O
  O12      1.0000 0.40230  0.17740  0.88380  Biso   1.000  O
  O13      1.0000 0.60580  0.08090  0.96660  Biso   1.000  O
  O14      1.0000 0.51270  0.85820  0.90190  Biso   1.000  O
  O15      1.0000 0.72760  0.69200  0.93990  Biso   1.000  O
  O16      1.0000 0.15870  0.88820  0.68420  Biso   1.000  O
  O17      1.0000 0.27170  0.05730  0.69930  Biso   1.000  O
  O18      1.0000 0.26920  0.80590  0.79100  Biso   1.000  O
  O19      1.0000 0.36700  0.97920  0.81040  Biso   1.000  O
  O20      1.0000 0.92770  0.56210  0.74820  Biso   1.000  O
  O21      1.0000 0.81370  0.51540  0.66020  Biso   1.000  O
  O22      1.0000 0.62430  0.34030  0.63110  Biso   1.000  O
  O23      1.0000 0.47550  0.25810  0.68240  Biso   1.000  O
  O24      1.0000 0.43860  0.63410  0.49850  Biso   1.000  O
  O25      1.0000 0.62540  0.58860  0.55440  Biso   1.000  O
  O26      1.0000 0.17970  0.62790  0.53220  Biso   1.000  O
  O27      1.0000 0.09770  0.67740  0.61620  Biso   1.000  O
  O28      1.0000 0.89420  0.58090  0.53340  Biso   1.000  O
  O29      1.0000 0.98730  0.35820  0.59810  Biso   1.000  O
  O30      1.0000 0.77240  0.19200  0.56010  Biso   1.000  O
  O31      1.0000 0.65870  0.61180  0.18420  Biso   1.000  O
  O32      1.0000 0.77170  0.44270  0.19930  Biso   1.000  O
  O33      1.0000 0.76920  0.69410  0.29100  Biso   1.000  O
  O34      1.0000 0.86700  0.52080  0.31040  Biso   1.000  O
  O35      1.0000 0.42770  0.93790  0.24820  Biso   1.000  O
  O36      1.0000 0.31370  0.98460  0.16020  Biso   1.000  O
  O37      1.0000 0.12430  0.15970  0.13110  Biso   1.000  O
  O38      1.0000 0.97550  0.24190  0.18240  Biso   1.000  O
  O39      1.0000 0.93860  0.86590  0.99850  Biso   1.000  O
  O40      1.0000 0.12540  0.91140  0.05440  Biso   1.000  O
  O41      1.0000 0.67970  0.87210  0.03220  Biso   1.000  O
  O42      1.0000 0.59770  0.82260  0.11620  Biso   1.000  O
  O43      1.0000 0.39420  0.91910  0.03340  Biso   1.000  O
  O44      1.0000 0.48730  0.14180  0.09810  Biso   1.000  O
  O45      1.0000 0.27240  0.30800  0.06010  Biso   1.000  O
  O46      1.0000 0.84130  0.11180  0.31580  Biso   1.000  O
  O47      1.0000 0.72830  0.94270  0.30070  Biso   1.000  O
  O48      1.0000 0.73080  0.19410  0.20900  Biso   1.000  O
  O49      1.0000 0.63300  0.02080  0.18960  Biso   1.000  O
  O50      1.0000 0.07230  0.43790  0.25180  Biso   1.000  O
  O51      1.0000 0.18630  0.48460  0.33980  Biso   1.000  O
  O52      1.0000 0.37570  0.65970  0.36890  Biso   1.000  O
  O53      1.0000 0.52450  0.74190  0.31760  Biso   1.000  O
  O54      1.0000 0.56140  0.36590  0.50150  Biso   1.000  O
  O55      1.0000 0.37460  0.41140  0.44560  Biso   1.000  O
  O56      1.0000 0.82030  0.37210  0.46780  Biso   1.000  O
  O57      1.0000 0.90230  0.32260  0.38380  Biso   1.000  O
  O58      1.0000 0.10580  0.41910  0.46660  Biso   1.000  O
  O59      1.0000 0.01270  0.64180  0.40190  Biso   1.000  O
  O60      1.0000 0.22760  0.80800  0.43990  Biso   1.000  O
