data_image0
_cell_length_a       10.416
_cell_length_b       11.44
_cell_length_c       22.457
_cell_angle_alpha    90
_cell_angle_beta     97.695
_cell_angle_gamma    90

_symmetry_space_group_name_H-M    P 1
_symmetry_int_tables_number       1

loop_
  _symmetry_equiv_pos_as_xyz
  'x, y, z'

loop_
  _atom_site_label
  _atom_site_occupancy
  _atom_site_fract_x
  _atom_site_fract_y
  _atom_site_fract_z
  _atom_site_thermal_displace_type
  _atom_site_B_iso_or_equiv
  _atom_site_type_symbol
  Ce1      1.0000 0.39228  0.30702  0.77481  Biso   1.000  Ce
  Ce2      1.0000 0.73688  0.58000  0.93495  Biso   1.000  Ce
  Ce3      1.0000 0.10772  0.80702  0.72519  Biso   1.000  Ce
  Ce4      1.0000 0.76312  0.08000  0.56505  Biso   1.000  Ce
  Ce5      1.0000 0.60772  0.69298  0.22519  Biso   1.000  Ce
  Ce6      1.0000 0.26312  0.42000  0.06505  Biso   1.000  Ce
  Ce7      1.0000 0.89228  0.19298  0.27481  Biso   1.000  Ce
  Ce8      1.0000 0.23688  0.92000  0.43495  Biso   1.000  Ce
  H1       1.0000 0.88630  0.37560  0.83790  Biso   1.000  H
  H2       1.0000 0.66360  0.52120  0.66320  Biso   1.000  H
  H3       1.0000 0.02300  0.28190  0.71050  Biso   1.000  H
  H4       1.0000 0.88780  0.31020  0.73040  Biso   1.000  H
  H5       1.0000 0.97620  0.41190  0.71270  Biso   1.000  H
  H6       1.0000 0.90560  0.63420  0.59070  Biso   1.000  H
  H7       1.0000 0.76200  0.59150  0.57560  Biso   1.000  H
  H8       1.0000 0.79170  0.72450  0.58700  Biso   1.000  H
  H9       1.0000 0.47600  0.70500  0.90400  Biso   1.000  H
  H10      1.0000 0.45700  0.60100  0.87400  Biso   1.000  H
  H11      1.0000 0.54000  0.38200  0.94670  Biso   1.000  H
  H12      1.0000 0.61000  0.38600  0.00320  Biso   1.000  H
  H13      1.0000 0.65900  0.84100  0.95200  Biso   1.000  H
  H14      1.0000 0.76900  0.85050  0.92400  Biso   1.000  H
  H15      1.0000 0.61370  0.87560  0.66210  Biso   1.000  H
  H16      1.0000 0.83640  0.02120  0.83680  Biso   1.000  H
  H17      1.0000 0.47700  0.78190  0.78950  Biso   1.000  H
  H18      1.0000 0.61220  0.81020  0.76960  Biso   1.000  H
  H19      1.0000 0.52380  0.91190  0.78730  Biso   1.000  H
  H20      1.0000 0.59440  0.13420  0.90930  Biso   1.000  H
  H21      1.0000 0.73800  0.09150  0.92440  Biso   1.000  H
  H22      1.0000 0.70830  0.22450  0.91300  Biso   1.000  H
  H23      1.0000 0.02400  0.20500  0.59600  Biso   1.000  H
  H24      1.0000 0.04300  0.10100  0.62600  Biso   1.000  H
  H25      1.0000 0.96000  0.88200  0.55330  Biso   1.000  H
  H26      1.0000 0.89000  0.88600  0.49680  Biso   1.000  H
  H27      1.0000 0.84100  0.34100  0.54800  Biso   1.000  H
  H28      1.0000 0.73100  0.35050  0.57600  Biso   1.000  H
  H29      1.0000 0.11370  0.62440  0.16210  Biso   1.000  H
  H30      1.0000 0.33640  0.47880  0.33680  Biso   1.000  H
  H31      1.0000 0.97700  0.71810  0.28950  Biso   1.000  H
  H32      1.0000 0.11220  0.68980  0.26960  Biso   1.000  H
  H33      1.0000 0.02380  0.58810  0.28730  Biso   1.000  H
  H34      1.0000 0.09440  0.36580  0.40930  Biso   1.000  H
  H35      1.0000 0.23800  0.40850  0.42440  Biso   1.000  H
  H36      1.0000 0.20830  0.27550  0.41300  Biso   1.000  H
  H37      1.0000 0.52400  0.29500  0.09600  Biso   1.000  H
  H38      1.0000 0.54300  0.39900  0.12600  Biso   1.000  H
  H39      1.0000 0.46000  0.61800  0.05330  Biso   1.000  H
  H40      1.0000 0.39000  0.61400  0.99680  Biso   1.000  H
  H41      1.0000 0.34100  0.15900  0.04800  Biso   1.000  H
  H42      1.0000 0.23100  0.14950  0.07600  Biso   1.000  H
  H43      1.0000 0.38630  0.12440  0.33790  Biso   1.000  H
  H44      1.0000 0.16360  0.97880  0.16320  Biso   1.000  H
  H45      1.0000 0.52300  0.21810  0.21050  Biso   1.000  H
  H46      1.0000 0.38780  0.18980  0.23040  Biso   1.000  H
  H47      1.0000 0.47620  0.08810  0.21270  Biso   1.000  H
  H48      1.0000 0.40560  0.86580  0.09070  Biso   1.000  H
  H49      1.0000 0.26200  0.90850  0.07560  Biso   1.000  H
  H50      1.0000 0.29170  0.77550  0.08700  Biso   1.000  H
  H51      1.0000 0.97600  0.79500  0.40400  Biso   1.000  H
  H52      1.0000 0.95700  0.89900  0.37400  Biso   1.000  H
  H53      1.0000 0.04000  0.11800  0.44670  Biso   1.000  H
  H54      1.0000 0.11000  0.11400  0.50320  Biso   1.000  H
  H55      1.0000 0.15900  0.65900  0.45200  Biso   1.000  H
  H56      1.0000 0.26900  0.64950  0.42400  Biso   1.000  H
  C1       1.0000 0.99580  0.38280  0.95125  Biso   1.000  C
  C2       1.0000 0.05240  0.36870  0.89424  Biso   1.000  C
  C3       1.0000 0.17300  0.35020  0.87750  Biso   1.000  C
  C4       1.0000 0.30420  0.34830  0.91304  Biso   1.000  C
  C5       1.0000 0.03730  0.34550  0.79546  Biso   1.000  C
  C6       1.0000 0.97560  0.33660  0.73153  Biso   1.000  C
  C7       1.0000 0.91660  0.67770  0.81930  Biso   1.000  C
  C8       1.0000 0.84600  0.63790  0.76076  Biso   1.000  C
  C9       1.0000 0.74170  0.56430  0.74685  Biso   1.000  C
  C10      1.0000 0.66040  0.48730  0.78051  Biso   1.000  C
  C11      1.0000 0.81090  0.62950  0.66374  Biso   1.000  C
  C12      1.0000 0.81820  0.64640  0.59844  Biso   1.000  C
  C13      1.0000 0.29610  0.58570  0.77676  Biso   1.000  C
  C14      1.0000 0.23440  0.53970  0.71416  Biso   1.000  C
  C15      1.0000 0.50420  0.88280  0.54875  Biso   1.000  C
  C16      1.0000 0.44760  0.86870  0.60576  Biso   1.000  C
  C17      1.0000 0.32700  0.85020  0.62250  Biso   1.000  C
  C18      1.0000 0.19580  0.84830  0.58696  Biso   1.000  C
  C19      1.0000 0.46270  0.84550  0.70454  Biso   1.000  C
  C20      1.0000 0.52440  0.83660  0.76847  Biso   1.000  C
  C21      1.0000 0.58340  0.17770  0.68070  Biso   1.000  C
  C22      1.0000 0.65400  0.13790  0.73924  Biso   1.000  C
  C23      1.0000 0.75830  0.06430  0.75315  Biso   1.000  C
  C24      1.0000 0.83960  0.98730  0.71949  Biso   1.000  C
  C25      1.0000 0.68910  0.12950  0.83626  Biso   1.000  C
  C26      1.0000 0.68180  0.14640  0.90156  Biso   1.000  C
  C27      1.0000 0.20390  0.08570  0.72324  Biso   1.000  C
  C28      1.0000 0.26560  0.03970  0.78584  Biso   1.000  C
  C29      1.0000 0.00420  0.61720  0.04875  Biso   1.000  C
  C30      1.0000 0.94760  0.63130  0.10576  Biso   1.000  C
  C31      1.0000 0.82700  0.64980  0.12250  Biso   1.000  C
  C32      1.0000 0.69580  0.65170  0.08696  Biso   1.000  C
  C33      1.0000 0.96270  0.65450  0.20454  Biso   1.000  C
  C34      1.0000 0.02440  0.66340  0.26847  Biso   1.000  C
  C35      1.0000 0.08340  0.32230  0.18070  Biso   1.000  C
  C36      1.0000 0.15400  0.36210  0.23924  Biso   1.000  C
  C37      1.0000 0.25830  0.43570  0.25315  Biso   1.000  C
  C38      1.0000 0.33960  0.51270  0.21949  Biso   1.000  C
  C39      1.0000 0.18910  0.37050  0.33626  Biso   1.000  C
  C40      1.0000 0.18180  0.35360  0.40156  Biso   1.000  C
  C41      1.0000 0.70390  0.41430  0.22324  Biso   1.000  C
  C42      1.0000 0.76560  0.46030  0.28584  Biso   1.000  C
  C43      1.0000 0.49580  0.11720  0.45125  Biso   1.000  C
  C44      1.0000 0.55240  0.13130  0.39424  Biso   1.000  C
  C45      1.0000 0.67300  0.14980  0.37750  Biso   1.000  C
  C46      1.0000 0.80420  0.15170  0.41304  Biso   1.000  C
  C47      1.0000 0.53730  0.15450  0.29546  Biso   1.000  C
  C48      1.0000 0.47560  0.16340  0.23153  Biso   1.000  C
  C49      1.0000 0.41660  0.82230  0.31930  Biso   1.000  C
  C50      1.0000 0.34600  0.86210  0.26076  Biso   1.000  C
  C51      1.0000 0.24170  0.93570  0.24685  Biso   1.000  C
  C52      1.0000 0.16040  0.01270  0.28051  Biso   1.000  C
  C53      1.0000 0.31090  0.87050  0.16374  Biso   1.000  C
  C54      1.0000 0.31820  0.85360  0.09844  Biso   1.000  C
  C55      1.0000 0.79610  0.91430  0.27676  Biso   1.000  C
  C56      1.0000 0.73440  0.96030  0.21416  Biso   1.000  C
  N1       1.0000 0.96880  0.36590  0.84122  Biso   1.000  N
  N2       1.0000 0.16210  0.33600  0.81572  Biso   1.000  N
  N3       1.0000 0.88870  0.67780  0.70871  Biso   1.000  N
  N4       1.0000 0.72260  0.56090  0.68486  Biso   1.000  N
  N5       1.0000 0.53120  0.86590  0.65878  Biso   1.000  N
  N6       1.0000 0.33790  0.83600  0.68428  Biso   1.000  N
  N7       1.0000 0.61130  0.17780  0.79129  Biso   1.000  N
  N8       1.0000 0.77740  0.06090  0.81514  Biso   1.000  N
  N9       1.0000 0.03120  0.63410  0.15878  Biso   1.000  N
  N10      1.0000 0.83790  0.66400  0.18428  Biso   1.000  N
  N11      1.0000 0.11130  0.32220  0.29129  Biso   1.000  N
  N12      1.0000 0.27740  0.43910  0.31514  Biso   1.000  N
  N13      1.0000 0.46880  0.13410  0.34122  Biso   1.000  N
  N14      1.0000 0.66210  0.16400  0.31572  Biso   1.000  N
  N15      1.0000 0.38870  0.82220  0.20871  Biso   1.000  N
  N16      1.0000 0.22260  0.93910  0.18486  Biso   1.000  N
  O1       1.0000 0.87680  0.40730  0.94510  Biso   1.000  O
  O2       1.0000 0.06330  0.36620  0.00050  Biso   1.000  O
  O3       1.0000 0.39800  0.31934  0.88568  Biso   1.000  O
  O4       1.0000 0.31920  0.37710  0.96689  Biso   1.000  O
  O5       1.0000 0.02060  0.73160  0.81759  Biso   1.000  O
  O6       1.0000 0.87090  0.65880  0.86663  Biso   1.000  O
  O7       1.0000 0.68510  0.47830  0.83664  Biso   1.000  O
  O8       1.0000 0.57380  0.43300  0.74833  Biso   1.000  O
  O9       1.0000 0.36880  0.51650  0.80887  Biso   1.000  O
  O10      1.0000 0.26980  0.68765  0.79018  Biso   1.000  O
  O11      1.0000 0.15680  0.60636  0.68384  Biso   1.000  O
  O12      1.0000 0.26710  0.43910  0.69915  Biso   1.000  O
  O13      1.0000 0.50550  0.63580  0.90212  Biso   1.000  O
  O14      1.0000 0.60600  0.41100  0.96753  Biso   1.000  O
  O15      1.0000 0.71960  0.80240  0.93870  Biso   1.000  O
  O16      1.0000 0.62320  0.90730  0.55490  Biso   1.000  O
  O17      1.0000 0.43670  0.86620  0.49950  Biso   1.000  O
  O18      1.0000 0.10200  0.81934  0.61432  Biso   1.000  O
  O19      1.0000 0.18080  0.87710  0.53311  Biso   1.000  O
  O20      1.0000 0.47940  0.23160  0.68241  Biso   1.000  O
  O21      1.0000 0.62910  0.15880  0.63337  Biso   1.000  O
  O22      1.0000 0.81490  0.97830  0.66336  Biso   1.000  O
  O23      1.0000 0.92620  0.93300  0.75167  Biso   1.000  O
  O24      1.0000 0.13120  0.01650  0.69113  Biso   1.000  O
  O25      1.0000 0.23020  0.18765  0.70982  Biso   1.000  O
  O26      1.0000 0.34320  0.10636  0.81616  Biso   1.000  O
  O27      1.0000 0.23290  0.93910  0.80085  Biso   1.000  O
  O28      1.0000 0.99450  0.13580  0.59788  Biso   1.000  O
  O29      1.0000 0.89400  0.91100  0.53247  Biso   1.000  O
  O30      1.0000 0.78040  0.30240  0.56130  Biso   1.000  O
  O31      1.0000 0.12320  0.59270  0.05490  Biso   1.000  O
  O32      1.0000 0.93670  0.63380  0.99950  Biso   1.000  O
  O33      1.0000 0.60200  0.68066  0.11432  Biso   1.000  O
  O34      1.0000 0.68080  0.62290  0.03311  Biso   1.000  O
  O35      1.0000 0.97940  0.26840  0.18241  Biso   1.000  O
  O36      1.0000 0.12910  0.34120  0.13337  Biso   1.000  O
  O37      1.0000 0.31490  0.52170  0.16336  Biso   1.000  O
  O38      1.0000 0.42620  0.56700  0.25167  Biso   1.000  O
  O39      1.0000 0.63120  0.48350  0.19113  Biso   1.000  O
  O40      1.0000 0.73020  0.31235  0.20982  Biso   1.000  O
  O41      1.0000 0.84320  0.39364  0.31616  Biso   1.000  O
  O42      1.0000 0.73290  0.56090  0.30085  Biso   1.000  O
  O43      1.0000 0.49450  0.36420  0.09788  Biso   1.000  O
  O44      1.0000 0.39400  0.58900  0.03247  Biso   1.000  O
  O45      1.0000 0.28040  0.19760  0.06130  Biso   1.000  O
  O46      1.0000 0.37680  0.09270  0.44510  Biso   1.000  O
  O47      1.0000 0.56330  0.13380  0.50050  Biso   1.000  O
  O48      1.0000 0.89800  0.18066  0.38568  Biso   1.000  O
  O49      1.0000 0.81920  0.12290  0.46689  Biso   1.000  O
  O50      1.0000 0.52060  0.76840  0.31759  Biso   1.000  O
  O51      1.0000 0.37090  0.84120  0.36663  Biso   1.000  O
  O52      1.0000 0.18510  0.02170  0.33664  Biso   1.000  O
  O53      1.0000 0.07380  0.06700  0.24833  Biso   1.000  O
  O54      1.0000 0.86880  0.98350  0.30887  Biso   1.000  O
  O55      1.0000 0.76980  0.81235  0.29018  Biso   1.000  O
  O56      1.0000 0.65680  0.89364  0.18384  Biso   1.000  O
  O57      1.0000 0.76710  0.06090  0.19915  Biso   1.000  O
  O58      1.0000 0.00550  0.86420  0.40212  Biso   1.000  O
  O59      1.0000 0.10600  0.08900  0.46753  Biso   1.000  O
  O60      1.0000 0.21960  0.69760  0.43870  Biso   1.000  O
