data_image0
_cell_length_a       11.575
_cell_length_b       12.634
_cell_length_c       14.335
_cell_angle_alpha    101.369
_cell_angle_beta     102.935
_cell_angle_gamma    96.457

_symmetry_space_group_name_H-M    P 1
_symmetry_int_tables_number       1

loop_
  _symmetry_equiv_pos_as_xyz
  'x, y, z'

loop_
  _atom_site_label
  _atom_site_occupancy
  _atom_site_fract_x
  _atom_site_fract_y
  _atom_site_fract_z
  _atom_site_thermal_displace_type
  _atom_site_B_iso_or_equiv
  _atom_site_type_symbol
  Cu1      1.0000 0.90035  0.93702  0.28558  Biso   1.000  Cu
  Cu2      1.0000 0.10615  0.95002  0.48356  Biso   1.000  Cu
  Cu3      1.0000 0.09965  0.06298  0.71442  Biso   1.000  Cu
  Cu4      1.0000 0.89385  0.04998  0.51644  Biso   1.000  Cu
  H1       1.0000 0.56160  0.69500  0.46930  Biso   1.000  H
  H2       1.0000 0.57230  0.59120  0.71380  Biso   1.000  H
  H3       1.0000 0.25610  0.56560  0.52320  Biso   1.000  H
  H4       1.0000 0.18060  0.68290  0.23410  Biso   1.000  H
  H5       1.0000 0.06780  0.61580  0.25100  Biso   1.000  H
  H6       1.0000 0.94740  0.71330  0.65620  Biso   1.000  H
  H7       1.0000 0.94670  0.71190  0.54640  Biso   1.000  H
  H8       1.0000 0.40770  0.33920  0.82100  Biso   1.000  H
  H9       1.0000 0.30150  0.40570  0.82060  Biso   1.000  H
  H10      1.0000 0.33640  0.10620  0.52980  Biso   1.000  H
  H11      1.0000 0.52760  0.12120  0.60710  Biso   1.000  H
  H12      1.0000 0.44860  0.84420  0.69400  Biso   1.000  H
  H13      1.0000 0.25480  0.83220  0.60810  Biso   1.000  H
  H14      1.0000 0.68040  0.94660  0.66200  Biso   1.000  H
  H15      1.0000 0.68610  0.07090  0.70880  Biso   1.000  H
  H16      1.0000 0.63050  0.90230  0.79950  Biso   1.000  H
  H17      1.0000 0.64190  0.02740  0.84650  Biso   1.000  H
  H18      1.0000 0.84350  0.92110  0.81070  Biso   1.000  H
  H19      1.0000 0.85830  0.04930  0.84380  Biso   1.000  H
  H20      1.0000 0.84450  0.13130  0.01570  Biso   1.000  H
  H21      1.0000 0.86270  0.11000  0.17220  Biso   1.000  H
  H22      1.0000 0.86530  0.80080  0.08970  Biso   1.000  H
  H23      1.0000 0.83280  0.81120  0.93030  Biso   1.000  H
  H24      1.0000 0.17820  0.60340  0.39550  Biso   1.000  H
  H25      1.0000 0.74690  0.68390  0.50800  Biso   1.000  H
  H26      1.0000 0.46800  0.43110  0.71840  Biso   1.000  H
  H27      1.0000 0.43840  0.30500  0.53070  Biso   1.000  H
  H28      1.0000 0.42770  0.40880  0.28620  Biso   1.000  H
  H29      1.0000 0.74390  0.43440  0.47680  Biso   1.000  H
  H30      1.0000 0.81940  0.31710  0.76590  Biso   1.000  H
  H31      1.0000 0.93220  0.38420  0.74900  Biso   1.000  H
  H32      1.0000 0.05260  0.28670  0.34380  Biso   1.000  H
  H33      1.0000 0.05330  0.28810  0.45360  Biso   1.000  H
  H34      1.0000 0.59230  0.66080  0.17900  Biso   1.000  H
  H35      1.0000 0.69850  0.59430  0.17940  Biso   1.000  H
  H36      1.0000 0.66360  0.89380  0.47020  Biso   1.000  H
  H37      1.0000 0.47240  0.87880  0.39290  Biso   1.000  H
  H38      1.0000 0.55140  0.15580  0.30600  Biso   1.000  H
  H39      1.0000 0.74520  0.16780  0.39190  Biso   1.000  H
  H40      1.0000 0.31960  0.05340  0.33800  Biso   1.000  H
  H41      1.0000 0.31390  0.92910  0.29120  Biso   1.000  H
  H42      1.0000 0.36950  0.09770  0.20050  Biso   1.000  H
  H43      1.0000 0.35810  0.97260  0.15350  Biso   1.000  H
  H44      1.0000 0.15650  0.07890  0.18930  Biso   1.000  H
  H45      1.0000 0.14170  0.95070  0.15620  Biso   1.000  H
  H46      1.0000 0.15550  0.86870  0.98430  Biso   1.000  H
  H47      1.0000 0.13730  0.89000  0.82780  Biso   1.000  H
  H48      1.0000 0.13470  0.19920  0.91030  Biso   1.000  H
  H49      1.0000 0.16720  0.18880  0.06970  Biso   1.000  H
  H50      1.0000 0.82180  0.39660  0.60450  Biso   1.000  H
  H51      1.0000 0.25310  0.31610  0.49200  Biso   1.000  H
  H52      1.0000 0.53200  0.56890  0.28160  Biso   1.000  H
  C1       1.0000 0.39700  0.63050  0.47820  Biso   1.000  C
  C2       1.0000 0.52230  0.66320  0.50930  Biso   1.000  C
  C3       1.0000 0.58750  0.64970  0.59640  Biso   1.000  C
  C4       1.0000 0.52810  0.60090  0.65430  Biso   1.000  C
  C5       1.0000 0.40760  0.56680  0.62770  Biso   1.000  C
  C6       1.0000 0.33940  0.58440  0.54020  Biso   1.000  C
  C7       1.0000 0.33110  0.64870  0.38070  Biso   1.000  C
  C8       1.0000 0.13710  0.67240  0.28290  Biso   1.000  C
  C9       1.0000 0.09470  0.77680  0.31950  Biso   1.000  C
  C10      1.0000 0.71780  0.68370  0.63160  Biso   1.000  C
  C11      1.0000 0.91100  0.73990  0.59930  Biso   1.000  C
  C12      1.0000 0.93710  0.86340  0.62440  Biso   1.000  C
  C13      1.0000 0.33790  0.50780  0.68450  Biso   1.000  C
  C14      1.0000 0.34340  0.36360  0.77870  Biso   1.000  C
  C15      1.0000 0.25660  0.26420  0.71340  Biso   1.000  C
  C16      1.0000 0.36020  0.05300  0.56310  Biso   1.000  C
  C17      1.0000 0.47320  0.06200  0.60910  Biso   1.000  C
  C18      1.0000 0.51330  0.98760  0.65940  Biso   1.000  C
  C19      1.0000 0.42640  0.89720  0.66000  Biso   1.000  C
  C20      1.0000 0.31110  0.89160  0.60960  Biso   1.000  C
  C21      1.0000 0.64690  0.99740  0.70450  Biso   1.000  C
  C22      1.0000 0.67210  0.97460  0.80300  Biso   1.000  C
  C23      1.0000 0.81460  0.98090  0.84770  Biso   1.000  C
  C24      1.0000 0.83330  0.97300  0.95260  Biso   1.000  C
  C25      1.0000 0.84580  0.06200  0.02840  Biso   1.000  C
  C26      1.0000 0.86030  0.04920  0.12280  Biso   1.000  C
  C27      1.0000 0.86000  0.86880  0.07480  Biso   1.000  C
  C28      1.0000 0.84080  0.87450  0.97870  Biso   1.000  C
  C29      1.0000 0.60300  0.36950  0.52180  Biso   1.000  C
  C30      1.0000 0.47770  0.33680  0.49070  Biso   1.000  C
  C31      1.0000 0.41250  0.35030  0.40360  Biso   1.000  C
  C32      1.0000 0.47190  0.39910  0.34570  Biso   1.000  C
  C33      1.0000 0.59240  0.43320  0.37230  Biso   1.000  C
  C34      1.0000 0.66060  0.41560  0.45980  Biso   1.000  C
  C35      1.0000 0.66890  0.35130  0.61930  Biso   1.000  C
  C36      1.0000 0.86290  0.32760  0.71710  Biso   1.000  C
  C37      1.0000 0.90530  0.22320  0.68050  Biso   1.000  C
  C38      1.0000 0.28220  0.31630  0.36840  Biso   1.000  C
  C39      1.0000 0.08900  0.26010  0.40070  Biso   1.000  C
  C40      1.0000 0.06290  0.13660  0.37560  Biso   1.000  C
  C41      1.0000 0.66210  0.49220  0.31550  Biso   1.000  C
  C42      1.0000 0.65660  0.63640  0.22130  Biso   1.000  C
  C43      1.0000 0.74340  0.73580  0.28660  Biso   1.000  C
  C44      1.0000 0.63980  0.94700  0.43690  Biso   1.000  C
  C45      1.0000 0.52680  0.93800  0.39090  Biso   1.000  C
  C46      1.0000 0.48670  0.01240  0.34060  Biso   1.000  C
  C47      1.0000 0.57360  0.10280  0.34000  Biso   1.000  C
  C48      1.0000 0.68890  0.10840  0.39040  Biso   1.000  C
  C49      1.0000 0.35310  0.00260  0.29550  Biso   1.000  C
  C50      1.0000 0.32790  0.02540  0.19700  Biso   1.000  C
  C51      1.0000 0.18540  0.01910  0.15230  Biso   1.000  C
  C52      1.0000 0.16670  0.02700  0.04740  Biso   1.000  C
  C53      1.0000 0.15420  0.93800  0.97160  Biso   1.000  C
  C54      1.0000 0.13970  0.95080  0.87720  Biso   1.000  C
  C55      1.0000 0.14000  0.13120  0.92520  Biso   1.000  C
  C56      1.0000 0.15920  0.12550  0.02130  Biso   1.000  C
  N1       1.0000 0.21310  0.63640  0.35960  Biso   1.000  N
  N2       1.0000 0.78240  0.69890  0.56970  Biso   1.000  N
  N3       1.0000 0.39640  0.43570  0.72450  Biso   1.000  N
  N4       1.0000 0.27510  0.96690  0.56250  Biso   1.000  N
  N5       1.0000 0.87120  0.95330  0.14720  Biso   1.000  N
  N6       1.0000 0.78690  0.36360  0.64040  Biso   1.000  N
  N7       1.0000 0.21760  0.30110  0.43030  Biso   1.000  N
  N8       1.0000 0.60360  0.56430  0.27550  Biso   1.000  N
  N9       1.0000 0.72490  0.03310  0.43750  Biso   1.000  N
  N10      1.0000 0.12880  0.04670  0.85280  Biso   1.000  N
  O1       1.0000 0.38940  0.67500  0.32340  Biso   1.000  O
  O2       1.0000 0.12500  0.81220  0.40900  Biso   1.000  O
  O3       1.0000 0.03350  0.81650  0.25667  Biso   1.000  O
  O4       1.0000 0.76820  0.69690  0.72238  Biso   1.000  O
  O5       1.0000 0.85740  0.91900  0.60306  Biso   1.000  O
  O6       1.0000 0.04850  0.90320  0.66470  Biso   1.000  O
  O7       1.0000 0.23950  0.52190  0.69315  Biso   1.000  O
  O8       1.0000 0.21900  0.25860  0.62477  Biso   1.000  O
  O9       1.0000 0.23080  0.19260  0.75820  Biso   1.000  O
  O10      1.0000 0.93170  0.92770  0.42318  Biso   1.000  O
  O11      1.0000 0.61060  0.32500  0.67660  Biso   1.000  O
  O12      1.0000 0.87500  0.18780  0.59100  Biso   1.000  O
  O13      1.0000 0.96650  0.18350  0.74333  Biso   1.000  O
  O14      1.0000 0.23180  0.30310  0.27762  Biso   1.000  O
  O15      1.0000 0.14260  0.08100  0.39694  Biso   1.000  O
  O16      1.0000 0.95150  0.09680  0.33530  Biso   1.000  O
  O17      1.0000 0.76050  0.47810  0.30685  Biso   1.000  O
  O18      1.0000 0.78100  0.74140  0.37523  Biso   1.000  O
  O19      1.0000 0.76920  0.80740  0.24180  Biso   1.000  O
  O20      1.0000 0.06830  0.07230  0.57682  Biso   1.000  O
