data_image0
_cell_length_a       6.5647
_cell_length_b       6.5647
_cell_length_c       11.347
_cell_angle_alpha    99.8167
_cell_angle_beta     99.8167
_cell_angle_gamma    102.913

_symmetry_space_group_name_H-M    P 1
_symmetry_int_tables_number       1

loop_
  _symmetry_equiv_pos_as_xyz
  'x, y, z'

loop_
  _atom_site_label
  _atom_site_occupancy
  _atom_site_fract_x
  _atom_site_fract_y
  _atom_site_fract_z
  _atom_site_thermal_displace_type
  _atom_site_B_iso_or_equiv
  _atom_site_type_symbol
  Ag1      1.0000 0.73801  0.01231  0.74605  Biso   1.000  Ag
  Ag2      1.0000 0.01231  0.73801  0.24605  Biso   1.000  Ag
  H1       1.0000 0.66520  0.68120  0.51870  Biso   1.000  H
  H2       1.0000 0.72630  0.66110  0.39760  Biso   1.000  H
  H3       1.0000 0.18590  0.99910  0.88070  Biso   1.000  H
  H4       1.0000 0.41480  0.05900  0.87230  Biso   1.000  H
  H5       1.0000 0.41470  0.98610  0.37410  Biso   1.000  H
  H6       1.0000 0.58460  0.07140  0.48840  Biso   1.000  H
  H7       1.0000 0.68120  0.66520  0.01870  Biso   1.000  H
  H8       1.0000 0.66110  0.72630  0.89760  Biso   1.000  H
  H9       1.0000 0.99910  0.18590  0.38070  Biso   1.000  H
  H10      1.0000 0.05900  0.41480  0.37230  Biso   1.000  H
  H11      1.0000 0.98610  0.41470  0.87410  Biso   1.000  H
  H12      1.0000 0.07140  0.58460  0.98840  Biso   1.000  H
  C1       1.0000 0.96310  0.80790  0.53130  Biso   1.000  C
  C2       1.0000 0.21740  0.94720  0.70420  Biso   1.000  C
  C3       1.0000 0.30810  0.94790  0.51950  Biso   1.000  C
  C4       1.0000 0.80790  0.96310  0.03130  Biso   1.000  C
  C5       1.0000 0.94720  0.21740  0.20420  Biso   1.000  C
  C6       1.0000 0.94790  0.30810  0.01950  Biso   1.000  C
  N1       1.0000 0.01170  0.87290  0.65230  Biso   1.000  N
  N2       1.0000 0.37620  0.98400  0.64250  Biso   1.000  N
  N3       1.0000 0.10810  0.85270  0.46070  Biso   1.000  N
  N4       1.0000 0.76080  0.70440  0.47600  Biso   1.000  N
  N5       1.0000 0.28150  0.01050  0.83720  Biso   1.000  N
  N6       1.0000 0.45340  0.00920  0.45250  Biso   1.000  N
  N7       1.0000 0.87290  0.01170  0.15230  Biso   1.000  N
  N8       1.0000 0.98400  0.37620  0.14250  Biso   1.000  N
  N9       1.0000 0.85270  0.10810  0.96070  Biso   1.000  N
  N10      1.0000 0.70440  0.76080  0.97600  Biso   1.000  N
  N11      1.0000 0.01050  0.28150  0.33720  Biso   1.000  N
  N12      1.0000 0.00920  0.45340  0.95250  Biso   1.000  N
