data_image0
_cell_length_a       20.049
_cell_length_b       20.287
_cell_length_c       20.8323
_cell_angle_alpha    60.8622
_cell_angle_beta     77.3212
_cell_angle_gamma    63.2069

_symmetry_space_group_name_H-M    P 1
_symmetry_int_tables_number       1

loop_
  _symmetry_equiv_pos_as_xyz
  'x, y, z'

loop_
  _atom_site_label
  _atom_site_occupancy
  _atom_site_fract_x
  _atom_site_fract_y
  _atom_site_fract_z
  _atom_site_thermal_displace_type
  _atom_site_B_iso_or_equiv
  _atom_site_type_symbol
  Zn1      1.0000 0.88033  0.84024  0.02982  Biso   1.000  Zn
  Zn2      1.0000 0.64996  0.03294  0.80052  Biso   1.000  Zn
  Zn3      1.0000 0.61967  0.12994  0.02982  Biso   1.000  Zn
  Zn4      1.0000 0.85004  0.16654  0.80052  Biso   1.000  Zn
  Zn5      1.0000 0.75000  0.04176  0.91648  Biso   1.000  Zn
  H1       1.0000 0.35600  0.10230  0.90240  Biso   1.000  H
  H2       1.0000 0.51890  0.00570  0.66440  Biso   1.000  H
  H3       1.0000 0.06810  0.66780  0.21060  Biso   1.000  H
  H4       1.0000 0.43590  0.15680  0.02340  Biso   1.000  H
  H5       1.0000 0.46870  0.06260  0.84700  Biso   1.000  H
  H6       1.0000 0.63800  0.00870  0.21540  Biso   1.000  H
  H7       1.0000 0.46420  0.23650  0.62780  Biso   1.000  H
  H8       1.0000 0.33920  0.14940  0.98220  Biso   1.000  H
  H9       1.0000 0.37630  0.28440  0.54280  Biso   1.000  H
  H10      1.0000 0.89030  0.69030  0.99260  Biso   1.000  H
  H11      1.0000 0.70690  0.84590  0.80920  Biso   1.000  H
  H12      1.0000 0.86080  0.62590  0.94380  Biso   1.000  H
  H13      1.0000 0.77260  0.70600  0.84720  Biso   1.000  H
  H14      1.0000 0.69660  0.89260  0.32400  Biso   1.000  H
  H15      1.0000 0.45200  0.93030  0.58360  Biso   1.000  H
  H16      1.0000 0.51930  0.94550  0.59140  Biso   1.000  H
  H17      1.0000 0.46020  0.93420  0.65460  Biso   1.000  H
  H18      1.0000 0.27820  0.31090  0.49060  Biso   1.000  H
  H19      1.0000 0.33820  0.31150  0.42740  Biso   1.000  H
  H20      1.0000 0.14770  0.54060  0.29120  Biso   1.000  H
  H21      1.0000 0.24370  0.41050  0.33380  Biso   1.000  H
  H22      1.0000 0.18170  0.41410  0.39480  Biso   1.000  H
  H23      1.0000 0.98170  0.56410  0.15260  Biso   1.000  H
  H24      1.0000 0.66180  0.13050  0.61940  Biso   1.000  H
  H25      1.0000 0.73050  0.20340  0.50740  Biso   1.000  H
  H26      1.0000 0.02400  0.35300  0.21180  Biso   1.000  H
  H27      1.0000 0.96470  0.43430  0.21560  Biso   1.000  H
  H28      1.0000 0.01960  0.43880  0.14860  Biso   1.000  H
  H29      1.0000 0.14400  0.99530  0.90240  Biso   1.000  H
  H30      1.0000 0.98110  0.32990  0.66440  Biso   1.000  H
  H31      1.0000 0.43190  0.12160  0.21060  Biso   1.000  H
  H32      1.0000 0.06410  0.81980  0.02340  Biso   1.000  H
  H33      1.0000 0.03130  0.09040  0.84700  Biso   1.000  H
  H34      1.0000 0.86200  0.77590  0.21540  Biso   1.000  H
  H35      1.0000 0.03580  0.13570  0.62780  Biso   1.000  H
  H36      1.0000 0.16080  0.86840  0.98220  Biso   1.000  H
  H37      1.0000 0.12370  0.17280  0.54280  Biso   1.000  H
  H38      1.0000 0.60970  0.31710  0.99260  Biso   1.000  H
  H39      1.0000 0.79310  0.34490  0.80920  Biso   1.000  H
  H40      1.0000 0.63920  0.43030  0.94380  Biso   1.000  H
  H41      1.0000 0.72740  0.44680  0.84720  Biso   1.000  H
  H42      1.0000 0.80340  0.78340  0.32400  Biso   1.000  H
  H43      1.0000 0.04800  0.48610  0.58360  Biso   1.000  H
  H44      1.0000 0.98070  0.46310  0.59140  Biso   1.000  H
  H45      1.0000 0.03980  0.41120  0.65460  Biso   1.000  H
  H46      1.0000 0.22180  0.19850  0.49060  Biso   1.000  H
  H47      1.0000 0.16180  0.26110  0.42740  Biso   1.000  H
  H48      1.0000 0.35230  0.16820  0.29120  Biso   1.000  H
  H49      1.0000 0.25630  0.25570  0.33380  Biso   1.000  H
  H50      1.0000 0.31830  0.19110  0.39480  Biso   1.000  H
  H51      1.0000 0.51830  0.28330  0.15260  Biso   1.000  H
  H52      1.0000 0.83820  0.25010  0.61940  Biso   1.000  H
  H53      1.0000 0.76950  0.28920  0.50740  Biso   1.000  H
  H54      1.0000 0.47600  0.43520  0.21180  Biso   1.000  H
  H55      1.0000 0.53530  0.35010  0.21560  Biso   1.000  H
  H56      1.0000 0.48040  0.41260  0.14860  Biso   1.000  H
  C1       1.0000 0.39640  0.10510  0.91440  Biso   1.000  C
  C2       1.0000 0.51220  0.11300  0.95480  Biso   1.000  C
  C3       1.0000 0.52220  0.08440  0.90320  Biso   1.000  C
  C4       1.0000 0.49040  0.06197  0.63946  Biso   1.000  C
  C5       1.0000 0.06700  0.62037  0.21526  Biso   1.000  C
  C6       1.0000 0.44380  0.13820  0.98840  Biso   1.000  C
  C7       1.0000 0.71920  0.95896  0.15128  Biso   1.000  C
  C8       1.0000 0.46260  0.08080  0.88200  Biso   1.000  C
  C9       1.0000 0.81180  0.80230  0.93620  Biso   1.000  C
  C10      1.0000 0.49930  0.11750  0.65340  Biso   1.000  C
  C11      1.0000 0.43850  0.09133  0.58794  Biso   1.000  C
  C12      1.0000 0.68150  0.96421  0.21538  Biso   1.000  C
  C13      1.0000 0.45770  0.19975  0.61790  Biso   1.000  C
  C14      1.0000 0.38690  0.13250  0.96280  Biso   1.000  C
  C15      1.0000 0.40550  0.22813  0.56654  Biso   1.000  C
  C16      1.0000 0.75920  0.84880  0.87920  Biso   1.000  C
  C17      1.0000 0.85250  0.72020  0.95780  Biso   1.000  C
  C18      1.0000 0.74280  0.81450  0.84600  Biso   1.000  C
  C19      1.0000 0.83650  0.68270  0.92720  Biso   1.000  C
  C20      1.0000 0.78160  0.73160  0.86920  Biso   1.000  C
  C21      1.0000 0.71720  0.89440  0.27900  Biso   1.000  C
  C22      1.0000 0.46740  0.95610  0.60240  Biso   1.000  C
  C23      1.0000 0.96460  0.70900  0.12120  Biso   1.000  C
  C24      1.0000 0.30480  0.28541  0.45818  Biso   1.000  C
  C25      1.0000 0.39570  0.17601  0.54958  Biso   1.000  C
  C26      1.0000 0.11460  0.54419  0.26342  Biso   1.000  C
  C27      1.0000 0.20870  0.38649  0.36402  Biso   1.000  C
  C28      1.0000 0.11400  0.47423  0.27114  Biso   1.000  C
  C29      1.0000 0.55330  0.08960  0.71160  Biso   1.000  C
  C30      1.0000 0.01830  0.62675  0.17430  Biso   1.000  C
  C31      1.0000 0.01550  0.55940  0.18060  Biso   1.000  C
  C32      1.0000 0.06460  0.48070  0.23020  Biso   1.000  C
  C33      1.0000 0.72910  0.13850  0.68740  Biso   1.000  C
  C34      1.0000 0.69570  0.15000  0.61960  Biso   1.000  C
  C35      1.0000 0.73270  0.20230  0.55200  Biso   1.000  C
  C36      1.0000 0.01450  0.40820  0.20060  Biso   1.000  C
  C37      1.0000 0.10360  0.98050  0.91440  Biso   1.000  C
  C38      1.0000 0.98780  0.93220  0.95480  Biso   1.000  C
  C39      1.0000 0.97780  0.01240  0.90320  Biso   1.000  C
  C40      1.0000 0.00960  0.29857  0.63946  Biso   1.000  C
  C41      1.0000 0.43300  0.16437  0.21526  Biso   1.000  C
  C42      1.0000 0.05620  0.87340  0.98840  Biso   1.000  C
  C43      1.0000 0.78080  0.88976  0.15128  Biso   1.000  C
  C44      1.0000 0.03740  0.03720  0.88200  Biso   1.000  C
  C45      1.0000 0.68820  0.26150  0.93620  Biso   1.000  C
  C46      1.0000 0.00070  0.22910  0.65340  Biso   1.000  C
  C47      1.0000 0.06150  0.32073  0.58794  Biso   1.000  C
  C48      1.0000 0.81850  0.82041  0.21538  Biso   1.000  C
  C49      1.0000 0.04230  0.18235  0.61790  Biso   1.000  C
  C50      1.0000 0.11310  0.90470  0.96280  Biso   1.000  C
  C51      1.0000 0.09450  0.20533  0.56654  Biso   1.000  C
  C52      1.0000 0.74080  0.27200  0.87920  Biso   1.000  C
  C53      1.0000 0.64750  0.32200  0.95780  Biso   1.000  C
  C54      1.0000 0.75720  0.33950  0.84600  Biso   1.000  C
  C55      1.0000 0.66350  0.39010  0.92720  Biso   1.000  C
  C56      1.0000 0.71840  0.39920  0.86920  Biso   1.000  C
  C57      1.0000 0.78280  0.82660  0.27900  Biso   1.000  C
  C58      1.0000 0.03260  0.44150  0.60240  Biso   1.000  C
  C59      1.0000 0.53540  0.16980  0.12120  Biso   1.000  C
  C60      1.0000 0.19520  0.25641  0.45818  Biso   1.000  C
  C61      1.0000 0.10430  0.27441  0.54958  Biso   1.000  C
  C62      1.0000 0.38540  0.19239  0.26342  Biso   1.000  C
  C63      1.0000 0.29130  0.24949  0.36402  Biso   1.000  C
  C64      1.0000 0.38600  0.25463  0.27114  Biso   1.000  C
  C65      1.0000 0.94670  0.19880  0.71160  Biso   1.000  C
  C66      1.0000 0.48170  0.19895  0.17430  Biso   1.000  C
  C67      1.0000 0.48450  0.26000  0.18060  Biso   1.000  C
  C68      1.0000 0.43540  0.28910  0.23020  Biso   1.000  C
  C69      1.0000 0.77090  0.17410  0.68740  Biso   1.000  C
  C70      1.0000 0.80430  0.23040  0.61960  Biso   1.000  C
  C71      1.0000 0.76730  0.24570  0.55200  Biso   1.000  C
  C72      1.0000 0.48550  0.39120  0.20060  Biso   1.000  C
  C73      1.0000 0.25000  0.29445  0.41110  Biso   1.000  C
  N1       1.0000 0.62890  0.07817  0.91886  Biso   1.000  N
  N2       1.0000 0.81560  0.85445  0.95610  Biso   1.000  N
  N3       1.0000 0.76570  0.92962  0.91376  Biso   1.000  N
  N4       1.0000 0.59530  0.06374  0.88192  Biso   1.000  N
  N5       1.0000 0.58110  0.10879  0.96422  Biso   1.000  N
  N6       1.0000 0.70280  0.01495  0.07770  Biso   1.000  N
  N7       1.0000 0.73200  0.92639  0.86782  Biso   1.000  N
  N8       1.0000 0.71260  0.09450  0.75560  Biso   1.000  N
  N9       1.0000 0.87110  0.00297  0.91886  Biso   1.000  N
  N10      1.0000 0.68440  0.18945  0.95610  Biso   1.000  N
  N11      1.0000 0.73430  0.15662  0.91376  Biso   1.000  N
  N12      1.0000 0.90470  0.05434  0.88192  Biso   1.000  N
  N13      1.0000 0.91890  0.92699  0.96422  Biso   1.000  N
  N14      1.0000 0.79720  0.90735  0.07770  Biso   1.000  N
  N15      1.0000 0.76800  0.20579  0.86782  Biso   1.000  N
  N16      1.0000 0.78740  0.14990  0.75560  Biso   1.000  N
  N17      1.0000 0.75000  0.98213  0.03574  Biso   1.000  N
  N18      1.0000 0.75000  0.10177  0.79646  Biso   1.000  N
  O1       1.0000 0.59560  0.01548  0.74344  Biso   1.000  O
  O2       1.0000 0.92140  0.71637  0.08486  Biso   1.000  O
  O3       1.0000 0.55660  0.14170  0.72380  Biso   1.000  O
  O4       1.0000 0.42400  0.04265  0.56910  Biso   1.000  O
  O5       1.0000 0.15775  0.39558  0.31864  Biso   1.000  O
  O6       1.0000 0.34610  0.19851  0.50018  Biso   1.000  O
  O7       1.0000 0.96590  0.77171  0.11358  Biso   1.000  O
  O8       1.0000 0.06950  0.40638  0.24044  Biso   1.000  O
  O9       1.0000 0.90440  0.24108  0.74344  Biso   1.000  O
  O10      1.0000 0.57860  0.19877  0.08486  Biso   1.000  O
  O11      1.0000 0.94340  0.13450  0.72380  Biso   1.000  O
  O12      1.0000 0.07600  0.38825  0.56910  Biso   1.000  O
  O13      1.0000 0.34225  0.28578  0.31864  Biso   1.000  O
  O14      1.0000 0.15390  0.30131  0.50018  Biso   1.000  O
  O15      1.0000 0.53410  0.11471  0.11358  Biso   1.000  O
  O16      1.0000 0.43050  0.35318  0.24044  Biso   1.000  O
  Zn6      1.0000 0.11967  0.15976  0.97018  Biso   1.000  Zn
  Zn7      1.0000 0.35004  0.96706  0.19948  Biso   1.000  Zn
  Zn8      1.0000 0.38033  0.87006  0.97018  Biso   1.000  Zn
  Zn9      1.0000 0.14996  0.83346  0.19948  Biso   1.000  Zn
  Zn10     1.0000 0.25000  0.95824  0.08352  Biso   1.000  Zn
  H57      1.0000 0.64400  0.89770  0.09760  Biso   1.000  H
  H58      1.0000 0.48110  0.99430  0.33560  Biso   1.000  H
  H59      1.0000 0.93190  0.33220  0.78940  Biso   1.000  H
  H60      1.0000 0.56410  0.84320  0.97660  Biso   1.000  H
  H61      1.0000 0.53130  0.93740  0.15300  Biso   1.000  H
  H62      1.0000 0.36200  0.99130  0.78460  Biso   1.000  H
  H63      1.0000 0.53580  0.76350  0.37220  Biso   1.000  H
  H64      1.0000 0.66080  0.85060  0.01780  Biso   1.000  H
  H65      1.0000 0.62370  0.71560  0.45720  Biso   1.000  H
  H66      1.0000 0.10970  0.30970  0.00740  Biso   1.000  H
  H67      1.0000 0.29310  0.15410  0.19080  Biso   1.000  H
  H68      1.0000 0.13920  0.37410  0.05620  Biso   1.000  H
  H69      1.0000 0.22740  0.29400  0.15280  Biso   1.000  H
  H70      1.0000 0.30340  0.10740  0.67600  Biso   1.000  H
  H71      1.0000 0.54800  0.06970  0.41640  Biso   1.000  H
  H72      1.0000 0.48070  0.05450  0.40860  Biso   1.000  H
  H73      1.0000 0.53980  0.06580  0.34540  Biso   1.000  H
  H74      1.0000 0.72180  0.68910  0.50940  Biso   1.000  H
  H75      1.0000 0.66180  0.68850  0.57260  Biso   1.000  H
  H76      1.0000 0.85230  0.45940  0.70880  Biso   1.000  H
  H77      1.0000 0.75630  0.58950  0.66620  Biso   1.000  H
  H78      1.0000 0.81830  0.58590  0.60520  Biso   1.000  H
  H79      1.0000 0.01830  0.43590  0.84740  Biso   1.000  H
  H80      1.0000 0.33820  0.86950  0.38060  Biso   1.000  H
  H81      1.0000 0.26950  0.79660  0.49260  Biso   1.000  H
  H82      1.0000 0.97600  0.64700  0.78820  Biso   1.000  H
  H83      1.0000 0.03530  0.56570  0.78440  Biso   1.000  H
  H84      1.0000 0.98040  0.56120  0.85140  Biso   1.000  H
  H85      1.0000 0.85600  0.00470  0.09760  Biso   1.000  H
  H86      1.0000 0.01890  0.67010  0.33560  Biso   1.000  H
  H87      1.0000 0.56810  0.87840  0.78940  Biso   1.000  H
  H88      1.0000 0.93590  0.18020  0.97660  Biso   1.000  H
  H89      1.0000 0.96870  0.90960  0.15300  Biso   1.000  H
  H90      1.0000 0.13800  0.22410  0.78460  Biso   1.000  H
  H91      1.0000 0.96420  0.86430  0.37220  Biso   1.000  H
  H92      1.0000 0.83920  0.13160  0.01780  Biso   1.000  H
  H93      1.0000 0.87630  0.82720  0.45720  Biso   1.000  H
  H94      1.0000 0.39030  0.68290  0.00740  Biso   1.000  H
  H95      1.0000 0.20690  0.65510  0.19080  Biso   1.000  H
  H96      1.0000 0.36080  0.56970  0.05620  Biso   1.000  H
  H97      1.0000 0.27260  0.55320  0.15280  Biso   1.000  H
  H98      1.0000 0.19660  0.21660  0.67600  Biso   1.000  H
  H99      1.0000 0.95200  0.51390  0.41640  Biso   1.000  H
  H100     1.0000 0.01930  0.53690  0.40860  Biso   1.000  H
  H101     1.0000 0.96020  0.58880  0.34540  Biso   1.000  H
  H102     1.0000 0.77820  0.80150  0.50940  Biso   1.000  H
  H103     1.0000 0.83820  0.73890  0.57260  Biso   1.000  H
  H104     1.0000 0.64770  0.83180  0.70880  Biso   1.000  H
  H105     1.0000 0.74370  0.74430  0.66620  Biso   1.000  H
  H106     1.0000 0.68170  0.80890  0.60520  Biso   1.000  H
  H107     1.0000 0.48170  0.71670  0.84740  Biso   1.000  H
  H108     1.0000 0.16180  0.74990  0.38060  Biso   1.000  H
  H109     1.0000 0.23050  0.71080  0.49260  Biso   1.000  H
  H110     1.0000 0.52400  0.56480  0.78820  Biso   1.000  H
  H111     1.0000 0.46470  0.64990  0.78440  Biso   1.000  H
  H112     1.0000 0.51960  0.58740  0.85140  Biso   1.000  H
  C74      1.0000 0.60360  0.89490  0.08560  Biso   1.000  C
  C75      1.0000 0.48780  0.88700  0.04520  Biso   1.000  C
  C76      1.0000 0.47780  0.91560  0.09680  Biso   1.000  C
  C77      1.0000 0.50960  0.93803  0.36054  Biso   1.000  C
  C78      1.0000 0.93300  0.37963  0.78474  Biso   1.000  C
  C79      1.0000 0.55620  0.86180  0.01160  Biso   1.000  C
  C80      1.0000 0.28080  0.04104  0.84872  Biso   1.000  C
  C81      1.0000 0.53740  0.91920  0.11800  Biso   1.000  C
  C82      1.0000 0.18820  0.19770  0.06380  Biso   1.000  C
  C83      1.0000 0.50070  0.88250  0.34660  Biso   1.000  C
  C84      1.0000 0.56150  0.90867  0.41206  Biso   1.000  C
  C85      1.0000 0.31850  0.03579  0.78462  Biso   1.000  C
  C86      1.0000 0.54230  0.80025  0.38210  Biso   1.000  C
  C87      1.0000 0.61310  0.86750  0.03720  Biso   1.000  C
  C88      1.0000 0.59450  0.77187  0.43346  Biso   1.000  C
  C89      1.0000 0.24080  0.15120  0.12080  Biso   1.000  C
  C90      1.0000 0.14750  0.27980  0.04220  Biso   1.000  C
  C91      1.0000 0.25720  0.18550  0.15400  Biso   1.000  C
  C92      1.0000 0.16350  0.31730  0.07280  Biso   1.000  C
  C93      1.0000 0.21840  0.26840  0.13080  Biso   1.000  C
  C94      1.0000 0.28280  0.10560  0.72100  Biso   1.000  C
  C95      1.0000 0.53260  0.04390  0.39760  Biso   1.000  C
  C96      1.0000 0.03540  0.29100  0.87880  Biso   1.000  C
  C97      1.0000 0.69520  0.71459  0.54182  Biso   1.000  C
  C98      1.0000 0.60430  0.82399  0.45042  Biso   1.000  C
  C99      1.0000 0.88540  0.45581  0.73658  Biso   1.000  C
  C100     1.0000 0.79130  0.61351  0.63598  Biso   1.000  C
  C101     1.0000 0.88600  0.52577  0.72886  Biso   1.000  C
  C102     1.0000 0.44670  0.91040  0.28840  Biso   1.000  C
  C103     1.0000 0.98170  0.37325  0.82570  Biso   1.000  C
  C104     1.0000 0.98450  0.44060  0.81940  Biso   1.000  C
  C105     1.0000 0.93540  0.51930  0.76980  Biso   1.000  C
  C106     1.0000 0.27090  0.86150  0.31260  Biso   1.000  C
  C107     1.0000 0.30430  0.85000  0.38040  Biso   1.000  C
  C108     1.0000 0.26730  0.79770  0.44800  Biso   1.000  C
  C109     1.0000 0.98550  0.59180  0.79940  Biso   1.000  C
  C110     1.0000 0.89640  0.01950  0.08560  Biso   1.000  C
  C111     1.0000 0.01220  0.06780  0.04520  Biso   1.000  C
  C112     1.0000 0.02220  0.98760  0.09680  Biso   1.000  C
  C113     1.0000 0.99040  0.70143  0.36054  Biso   1.000  C
  C114     1.0000 0.56700  0.83563  0.78474  Biso   1.000  C
  C115     1.0000 0.94380  0.12660  0.01160  Biso   1.000  C
  C116     1.0000 0.21920  0.11024  0.84872  Biso   1.000  C
  C117     1.0000 0.96260  0.96280  0.11800  Biso   1.000  C
  C118     1.0000 0.31180  0.73850  0.06380  Biso   1.000  C
  C119     1.0000 0.99930  0.77090  0.34660  Biso   1.000  C
  C120     1.0000 0.93850  0.67927  0.41206  Biso   1.000  C
  C121     1.0000 0.18150  0.17959  0.78462  Biso   1.000  C
  C122     1.0000 0.95770  0.81765  0.38210  Biso   1.000  C
  C123     1.0000 0.88690  0.09530  0.03720  Biso   1.000  C
  C124     1.0000 0.90550  0.79467  0.43346  Biso   1.000  C
  C125     1.0000 0.25920  0.72800  0.12080  Biso   1.000  C
  C126     1.0000 0.35250  0.67800  0.04220  Biso   1.000  C
  C127     1.0000 0.24280  0.66050  0.15400  Biso   1.000  C
  C128     1.0000 0.33650  0.60990  0.07280  Biso   1.000  C
  C129     1.0000 0.28160  0.60080  0.13080  Biso   1.000  C
  C130     1.0000 0.21720  0.17340  0.72100  Biso   1.000  C
  C131     1.0000 0.96740  0.55850  0.39760  Biso   1.000  C
  C132     1.0000 0.46460  0.83020  0.87880  Biso   1.000  C
  C133     1.0000 0.80480  0.74359  0.54182  Biso   1.000  C
  C134     1.0000 0.89570  0.72559  0.45042  Biso   1.000  C
  C135     1.0000 0.61460  0.80761  0.73658  Biso   1.000  C
  C136     1.0000 0.70870  0.75051  0.63598  Biso   1.000  C
  C137     1.0000 0.61400  0.74537  0.72886  Biso   1.000  C
  C138     1.0000 0.05330  0.80120  0.28840  Biso   1.000  C
  C139     1.0000 0.51830  0.80105  0.82570  Biso   1.000  C
  C140     1.0000 0.51550  0.74000  0.81940  Biso   1.000  C
  C141     1.0000 0.56460  0.71090  0.76980  Biso   1.000  C
  C142     1.0000 0.22910  0.82590  0.31260  Biso   1.000  C
  C143     1.0000 0.19570  0.76960  0.38040  Biso   1.000  C
  C144     1.0000 0.23270  0.75430  0.44800  Biso   1.000  C
  C145     1.0000 0.51450  0.60880  0.79940  Biso   1.000  C
  C146     1.0000 0.75000  0.70555  0.58890  Biso   1.000  C
  N19      1.0000 0.37110  0.92183  0.08114  Biso   1.000  N
  N20      1.0000 0.18440  0.14555  0.04390  Biso   1.000  N
  N21      1.0000 0.23430  0.07038  0.08624  Biso   1.000  N
  N22      1.0000 0.40470  0.93626  0.11808  Biso   1.000  N
  N23      1.0000 0.41890  0.89121  0.03578  Biso   1.000  N
  N24      1.0000 0.29720  0.98505  0.92230  Biso   1.000  N
  N25      1.0000 0.26800  0.07361  0.13218  Biso   1.000  N
  N26      1.0000 0.28740  0.90550  0.24440  Biso   1.000  N
  N27      1.0000 0.12890  0.99703  0.08114  Biso   1.000  N
  N28      1.0000 0.31560  0.81055  0.04390  Biso   1.000  N
  N29      1.0000 0.26570  0.84338  0.08624  Biso   1.000  N
  N30      1.0000 0.09530  0.94566  0.11808  Biso   1.000  N
  N31      1.0000 0.08110  0.07301  0.03578  Biso   1.000  N
  N32      1.0000 0.20280  0.09265  0.92230  Biso   1.000  N
  N33      1.0000 0.23200  0.79421  0.13218  Biso   1.000  N
  N34      1.0000 0.21260  0.85010  0.24440  Biso   1.000  N
  N35      1.0000 0.25000  0.01787  0.96426  Biso   1.000  N
  N36      1.0000 0.25000  0.89823  0.20354  Biso   1.000  N
  O17      1.0000 0.40440  0.98452  0.25656  Biso   1.000  O
  O18      1.0000 0.07860  0.28363  0.91514  Biso   1.000  O
  O19      1.0000 0.44340  0.85830  0.27620  Biso   1.000  O
  O20      1.0000 0.57600  0.95735  0.43090  Biso   1.000  O
  O21      1.0000 0.84225  0.60442  0.68136  Biso   1.000  O
  O22      1.0000 0.65390  0.80149  0.49982  Biso   1.000  O
  O23      1.0000 0.03410  0.22829  0.88642  Biso   1.000  O
  O24      1.0000 0.93050  0.59362  0.75956  Biso   1.000  O
  O25      1.0000 0.09560  0.75892  0.25656  Biso   1.000  O
  O26      1.0000 0.42140  0.80123  0.91514  Biso   1.000  O
  O27      1.0000 0.05660  0.86550  0.27620  Biso   1.000  O
  O28      1.0000 0.92400  0.61175  0.43090  Biso   1.000  O
  O29      1.0000 0.65775  0.71422  0.68136  Biso   1.000  O
  O30      1.0000 0.84610  0.69869  0.49982  Biso   1.000  O
  O31      1.0000 0.46590  0.88529  0.88642  Biso   1.000  O
  O32      1.0000 0.56950  0.64682  0.75956  Biso   1.000  O
