data_image0
_cell_length_a       19.562
_cell_length_b       20.85
_cell_length_c       23.573
_cell_angle_alpha    115.321
_cell_angle_beta     112.654
_cell_angle_gamma    92.849

_symmetry_space_group_name_H-M    P 1
_symmetry_int_tables_number       1

loop_
  _symmetry_equiv_pos_as_xyz
  'x, y, z'

loop_
  _atom_site_label
  _atom_site_occupancy
  _atom_site_fract_x
  _atom_site_fract_y
  _atom_site_fract_z
  _atom_site_thermal_displace_type
  _atom_site_B_iso_or_equiv
  _atom_site_type_symbol
  Zn1      1.0000 0.21920  0.58580  0.41820  Biso   1.000  Zn
  Zn2      1.0000 0.01510  0.52740  0.31970  Biso   1.000  Zn
  Zn3      1.0000 0.28130  0.50950  0.53320  Biso   1.000  Zn
  Zn4      1.0000 0.30090  0.52360  0.29860  Biso   1.000  Zn
  Zn5      1.0000 0.28160  0.78570  0.51970  Biso   1.000  Zn
  H1       1.0000 0.92630  0.66470  0.36470  Biso   1.000  H
  H2       1.0000 0.91140  0.78170  0.42010  Biso   1.000  H
  H3       1.0000 0.14020  0.86270  0.52150  Biso   1.000  H
  H4       1.0000 0.06270  0.94540  0.53020  Biso   1.000  H
  H5       1.0000 0.99010  0.91660  0.45790  Biso   1.000  H
  H6       1.0000 0.98150  0.91790  0.52180  Biso   1.000  H
  H7       1.0000 0.94380  0.42560  0.14400  Biso   1.000  H
  H8       1.0000 0.94350  0.35500  0.03650  Biso   1.000  H
  H9       1.0000 0.17360  0.41920  0.12970  Biso   1.000  H
  H10      1.0000 0.41320  0.86210  0.49250  Biso   1.000  H
  H11      1.0000 0.49550  0.87450  0.44640  Biso   1.000  H
  H12      1.0000 0.42790  0.65680  0.31600  Biso   1.000  H
  H13      1.0000 0.55090  0.82450  0.37070  Biso   1.000  H
  H14      1.0000 0.56210  0.74670  0.35910  Biso   1.000  H
  H15      1.0000 0.49780  0.75440  0.29890  Biso   1.000  H
  H16      1.0000 0.41040  0.40500  0.51200  Biso   1.000  H
  H17      1.0000 0.50580  0.36350  0.38060  Biso   1.000  H
  H18      1.0000 0.43180  0.42660  0.33130  Biso   1.000  H
  H19      1.0000 0.51080  0.33700  0.51800  Biso   1.000  H
  H20      1.0000 0.50730  0.28870  0.44410  Biso   1.000  H
  H21      1.0000 0.57050  0.36300  0.49810  Biso   1.000  H
  H22      1.0000 0.38580  0.85080  0.68260  Biso   1.000  H
  H23      1.0000 0.46870  0.86300  0.79040  Biso   1.000  H
  H24      1.0000 0.41220  0.64380  0.70870  Biso   1.000  H
  H25      1.0000 0.32580  0.50920  0.09400  Biso   1.000  H
  H26      1.0000 0.37470  0.46030  0.01390  Biso   1.000  H
  H27      1.0000 0.44040  0.32070  0.08080  Biso   1.000  H
  H28      1.0000 0.38840  0.36830  0.16300  Biso   1.000  H
  H29      1.0000 0.37670  0.36670  0.91350  Biso   1.000  H
  H30      1.0000 0.45470  0.42540  0.97210  Biso   1.000  H
  H31      1.0000 0.47490  0.46620  0.71340  Biso   1.000  H
  H32      1.0000 0.50530  0.42810  0.79490  Biso   1.000  H
  H33      1.0000 0.27940  0.35000  0.72490  Biso   1.000  H
  H34      1.0000 0.25500  0.40310  0.64990  Biso   1.000  H
  H35      1.0000 0.79110  0.55820  0.20060  Biso   1.000  H
  H36      1.0000 0.67450  0.52880  0.10490  Biso   1.000  H
  H37      1.0000 0.67600  0.31590  0.02480  Biso   1.000  H
  H38      1.0000 0.79260  0.34530  0.12050  Biso   1.000  H
  H39      1.0000 0.58090  0.31240  0.92520  Biso   1.000  H
  H40      1.0000 0.55060  0.30590  0.97580  Biso   1.000  H
  H41      1.0000 0.50610  0.34000  0.83270  Biso   1.000  H
  H42      1.0000 0.50720  0.41640  0.88950  Biso   1.000  H
  H43      1.0000 0.37370  0.24780  0.82500  Biso   1.000  H
  H44      1.0000 0.42010  0.23000  0.88550  Biso   1.000  H
  H45      1.0000 0.46570  0.00750  0.65960  Biso   1.000  H
  H46      1.0000 0.51600  0.13030  0.74460  Biso   1.000  H
  H47      1.0000 0.33480  0.12420  0.78510  Biso   1.000  H
  H48      1.0000 0.28460  0.00140  0.70010  Biso   1.000  H
  H49      1.0000 0.13580  0.40880  0.53410  Biso   1.000  H
  H50      1.0000 0.01320  0.35360  0.50670  Biso   1.000  H
  H51      1.0000 0.92380  0.42560  0.36740  Biso   1.000  H
  H52      1.0000 0.84030  0.35320  0.38410  Biso   1.000  H
  H53      1.0000 0.87600  0.29480  0.40230  Biso   1.000  H
  H54      1.0000 0.87360  0.36650  0.46140  Biso   1.000  H
  H55      1.0000 0.52420  0.81370  0.86070  Biso   1.000  H
  H56      1.0000 0.46910  0.74440  0.84480  Biso   1.000  H
  H57      1.0000 0.53620  0.73540  0.82360  Biso   1.000  H
  H58      1.0000 0.10990  0.33850  0.00950  Biso   1.000  H
  H59      1.0000 0.03730  0.28180  0.98870  Biso   1.000  H
  H60      1.0000 0.02770  0.34520  0.96950  Biso   1.000  H
  C1       1.0000 0.10620  0.75300  0.45680  Biso   1.000  C
  C2       1.0000 0.04200  0.69350  0.40990  Biso   1.000  C
  C3       1.0000 0.96900  0.70400  0.39600  Biso   1.000  C
  C4       1.0000 0.96020  0.77400  0.42900  Biso   1.000  C
  C5       1.0000 0.02400  0.83380  0.47600  Biso   1.000  C
  C6       1.0000 0.09700  0.82300  0.49010  Biso   1.000  C
  C7       1.0000 0.01400  0.91000  0.49900  Biso   1.000  C
  C8       1.0000 0.12800  0.46300  0.19700  Biso   1.000  C
  C9       1.0000 0.05900  0.46500  0.20100  Biso   1.000  C
  C10      1.0000 0.99000  0.42400  0.14100  Biso   1.000  C
  C11      1.0000 0.99000  0.38200  0.07700  Biso   1.000  C
  C12      1.0000 0.05900  0.38000  0.07200  Biso   1.000  C
  C13      1.0000 0.12800  0.42000  0.13300  Biso   1.000  C
  C14      1.0000 0.37600  0.69000  0.37900  Biso   1.000  C
  C15      1.0000 0.37100  0.75200  0.43200  Biso   1.000  C
  C16      1.0000 0.41600  0.82100  0.45700  Biso   1.000  C
  C17      1.0000 0.46500  0.82800  0.43000  Biso   1.000  C
  C18      1.0000 0.47000  0.76700  0.37700  Biso   1.000  C
  C19      1.0000 0.42500  0.69800  0.35100  Biso   1.000  C
  C20      1.0000 0.52500  0.77400  0.34900  Biso   1.000  C
  C21      1.0000 0.37700  0.45360  0.39200  Biso   1.000  C
  C22      1.0000 0.37030  0.44720  0.44620  Biso   1.000  C
  C23      1.0000 0.41500  0.40900  0.47580  Biso   1.000  C
  C24      1.0000 0.46500  0.37800  0.45100  Biso   1.000  C
  C25      1.0000 0.47200  0.38400  0.39700  Biso   1.000  C
  C26      1.0000 0.42800  0.42200  0.36750  Biso   1.000  C
  C27      1.0000 0.51800  0.33800  0.48100  Biso   1.000  C
  C28      1.0000 0.34900  0.74000  0.63110  Biso   1.000  C
  C29      1.0000 0.39100  0.80900  0.68800  Biso   1.000  C
  C30      1.0000 0.44100  0.81700  0.75200  Biso   1.000  C
  C31      1.0000 0.44900  0.75500  0.76020  Biso   1.000  C
  C32      1.0000 0.40700  0.68500  0.70350  Biso   1.000  C
  C33      1.0000 0.35700  0.67800  0.63890  Biso   1.000  C
  C34      1.0000 0.34100  0.48100  0.19600  Biso   1.000  C
  C35      1.0000 0.36000  0.44800  0.14000  Biso   1.000  C
  C36      1.0000 0.35100  0.47200  0.09300  Biso   1.000  C
  C37      1.0000 0.37700  0.44200  0.04400  Biso   1.000  C
  C38      1.0000 0.40700  0.38500  0.04000  Biso   1.000  C
  C39      1.0000 0.41600  0.35800  0.08300  Biso   1.000  C
  C40      1.0000 0.38800  0.38900  0.13500  Biso   1.000  C
  C41      1.0000 0.42900  0.37300  0.94500  Biso   1.000  C
  C42      1.0000 0.34100  0.46800  0.62300  Biso   1.000  C
  C43      1.0000 0.36400  0.43900  0.67400  Biso   1.000  C
  C44      1.0000 0.43500  0.44500  0.71700  Biso   1.000  C
  C45      1.0000 0.45400  0.42200  0.76500  Biso   1.000  C
  C46      1.0000 0.39400  0.38900  0.76800  Biso   1.000  C
  C47      1.0000 0.31900  0.37600  0.72500  Biso   1.000  C
  C48      1.0000 0.30500  0.40600  0.67800  Biso   1.000  C
  C49      1.0000 0.80340  0.45470  0.17000  Biso   1.000  C
  C50      1.0000 0.76810  0.50960  0.16530  Biso   1.000  C
  C51      1.0000 0.69820  0.49200  0.10800  Biso   1.000  C
  C52      1.0000 0.66370  0.41940  0.05530  Biso   1.000  C
  C53      1.0000 0.69910  0.36450  0.06000  Biso   1.000  C
  C54      1.0000 0.76900  0.38210  0.11740  Biso   1.000  C
  C55      1.0000 0.55300  0.33400  0.95200  Biso   1.000  C
  C56      1.0000 0.47200  0.33000  0.90300  Biso   1.000  C
  C57      1.0000 0.47900  0.36500  0.85900  Biso   1.000  C
  C58      1.0000 0.42500  0.25100  0.85700  Biso   1.000  C
  C59      1.0000 0.33600  0.91300  0.61500  Biso   1.000  C
  C60      1.0000 0.37000  0.99230  0.67140  Biso   1.000  C
  C61      1.0000 0.43900  0.03100  0.68470  Biso   1.000  C
  C62      1.0000 0.46960  0.10400  0.73600  Biso   1.000  C
  C63      1.0000 0.43000  0.13950  0.77330  Biso   1.000  C
  C64      1.0000 0.36100  0.10100  0.76000  Biso   1.000  C
  C65      1.0000 0.33100  0.02700  0.70900  Biso   1.000  C
  C66      1.0000 0.04000  0.45530  0.41720  Biso   1.000  C
  C67      1.0000 0.10320  0.45030  0.46700  Biso   1.000  C
  C68      1.0000 0.09300  0.41200  0.50070  Biso   1.000  C
  C69      1.0000 0.02000  0.37910  0.48400  Biso   1.000  C
  C70      1.0000 0.95600  0.38410  0.43400  Biso   1.000  C
  C71      1.0000 0.96630  0.42200  0.40080  Biso   1.000  C
  C72      1.0000 0.88000  0.34600  0.41900  Biso   1.000  C
  C73      1.0000 0.88400  0.48300  0.23100  Biso   1.000  C
  C74      1.0000 0.49900  0.76300  0.82800  Biso   1.000  C
  C75      1.0000 0.05800  0.33200  0.00400  Biso   1.000  C
  N1       1.0000 0.16700  0.73000  0.46600  Biso   1.000  N
  N2       1.0000 0.14400  0.65700  0.42060  Biso   1.000  N
  N3       1.0000 0.07100  0.63650  0.38700  Biso   1.000  N
  N4       1.0000 0.07500  0.50000  0.26600  Biso   1.000  N
  N5       1.0000 0.15300  0.52300  0.30200  Biso   1.000  N
  N6       1.0000 0.18500  0.49800  0.26200  Biso   1.000  N
  N7       1.0000 0.32800  0.63300  0.36500  Biso   1.000  N
  N8       1.0000 0.29600  0.65700  0.40900  Biso   1.000  N
  N9       1.0000 0.32000  0.72900  0.44800  Biso   1.000  N
  N10      1.0000 0.31910  0.48440  0.46080  Biso   1.000  N
  N11      1.0000 0.29340  0.51030  0.41300  Biso   1.000  N
  N12      1.0000 0.32800  0.49200  0.37100  Biso   1.000  N
  N13      1.0000 0.16200  0.48600  0.46960  Biso   1.000  N
  N14      1.0000 0.14370  0.51650  0.42890  Biso   1.000  N
  N15      1.0000 0.06700  0.49600  0.39510  Biso   1.000  N
  N16      1.0000 0.30900  0.62000  0.57300  Biso   1.000  N
  N17      1.0000 0.28540  0.65100  0.53460  Biso   1.000  N
  N18      1.0000 0.30500  0.72200  0.55900  Biso   1.000  N
  O1       1.0000 0.27400  0.46100  0.58600  Biso   1.000  O
  O2       1.0000 0.39100  0.50000  0.62000  Biso   1.000  O
  O3       1.0000 0.40230  0.35830  0.81230  Biso   1.000  O
  O4       1.0000 0.90900  0.42800  0.23630  Biso   1.000  O
  O5       1.0000 0.91300  0.54100  0.27200  Biso   1.000  O
  O6       1.0000 0.59210  0.40700  0.00210  Biso   1.000  O
  O7       1.0000 0.27100  0.88140  0.60030  Biso   1.000  O
  O8       1.0000 0.37400  0.88100  0.58760  Biso   1.000  O
  O9       1.0000 0.46320  0.21260  0.81920  Biso   1.000  O
  O10      1.0000 0.43090  0.34610  0.99060  Biso   1.000  O
  O11      1.0000 0.31200  0.53800  0.20500  Biso   1.000  O
  O12      1.0000 0.34400  0.45900  0.23900  Biso   1.000  O
  Zn6      1.0000 0.78080  0.41420  0.58180  Biso   1.000  Zn
  Zn7      1.0000 0.98490  0.47260  0.68030  Biso   1.000  Zn
  Zn8      1.0000 0.71870  0.49050  0.46680  Biso   1.000  Zn
  Zn9      1.0000 0.69910  0.47640  0.70140  Biso   1.000  Zn
  Zn10     1.0000 0.71840  0.21430  0.48030  Biso   1.000  Zn
  H61      1.0000 0.07370  0.33530  0.63530  Biso   1.000  H
  H62      1.0000 0.08860  0.21830  0.57990  Biso   1.000  H
  H63      1.0000 0.85980  0.13730  0.47850  Biso   1.000  H
  H64      1.0000 0.93730  0.05460  0.46980  Biso   1.000  H
  H65      1.0000 0.00990  0.08340  0.54210  Biso   1.000  H
  H66      1.0000 0.01850  0.08210  0.47820  Biso   1.000  H
  H67      1.0000 0.05620  0.57440  0.85600  Biso   1.000  H
  H68      1.0000 0.05650  0.64500  0.96350  Biso   1.000  H
  H69      1.0000 0.82640  0.58080  0.87030  Biso   1.000  H
  H70      1.0000 0.58680  0.13790  0.50750  Biso   1.000  H
  H71      1.0000 0.50450  0.12550  0.55360  Biso   1.000  H
  H72      1.0000 0.57210  0.34320  0.68400  Biso   1.000  H
  H73      1.0000 0.44910  0.17550  0.62930  Biso   1.000  H
  H74      1.0000 0.43790  0.25330  0.64090  Biso   1.000  H
  H75      1.0000 0.50220  0.24560  0.70110  Biso   1.000  H
  H76      1.0000 0.58960  0.59500  0.48800  Biso   1.000  H
  H77      1.0000 0.49420  0.63650  0.61940  Biso   1.000  H
  H78      1.0000 0.56820  0.57340  0.66870  Biso   1.000  H
  H79      1.0000 0.48920  0.66300  0.48200  Biso   1.000  H
  H80      1.0000 0.49270  0.71130  0.55590  Biso   1.000  H
  H81      1.0000 0.42950  0.63700  0.50190  Biso   1.000  H
  H82      1.0000 0.61420  0.14920  0.31740  Biso   1.000  H
  H83      1.0000 0.53130  0.13700  0.20960  Biso   1.000  H
  H84      1.0000 0.58780  0.35620  0.29130  Biso   1.000  H
  H85      1.0000 0.67420  0.49080  0.90600  Biso   1.000  H
  H86      1.0000 0.62530  0.53970  0.98610  Biso   1.000  H
  H87      1.0000 0.55960  0.67930  0.91920  Biso   1.000  H
  H88      1.0000 0.61160  0.63170  0.83700  Biso   1.000  H
  H89      1.0000 0.62330  0.63330  0.08650  Biso   1.000  H
  H90      1.0000 0.54530  0.57460  0.02790  Biso   1.000  H
  H91      1.0000 0.52510  0.53380  0.28660  Biso   1.000  H
  H92      1.0000 0.49470  0.57190  0.20510  Biso   1.000  H
  H93      1.0000 0.72060  0.65000  0.27510  Biso   1.000  H
  H94      1.0000 0.74500  0.59690  0.35010  Biso   1.000  H
  H95      1.0000 0.20890  0.44180  0.79940  Biso   1.000  H
  H96      1.0000 0.32550  0.47120  0.89510  Biso   1.000  H
  H97      1.0000 0.32400  0.68410  0.97520  Biso   1.000  H
  H98      1.0000 0.20740  0.65470  0.87950  Biso   1.000  H
  H99      1.0000 0.41910  0.68760  0.07480  Biso   1.000  H
  H100     1.0000 0.44940  0.69410  0.02420  Biso   1.000  H
  H101     1.0000 0.49390  0.66000  0.16730  Biso   1.000  H
  H102     1.0000 0.49280  0.58360  0.11050  Biso   1.000  H
  H103     1.0000 0.62630  0.75220  0.17500  Biso   1.000  H
  H104     1.0000 0.57990  0.77000  0.11450  Biso   1.000  H
  H105     1.0000 0.53430  0.99250  0.34040  Biso   1.000  H
  H106     1.0000 0.48400  0.86970  0.25540  Biso   1.000  H
  H107     1.0000 0.66520  0.87580  0.21490  Biso   1.000  H
  H108     1.0000 0.71540  0.99860  0.29990  Biso   1.000  H
  H109     1.0000 0.86420  0.59120  0.46590  Biso   1.000  H
  H110     1.0000 0.98680  0.64640  0.49330  Biso   1.000  H
  H111     1.0000 0.07620  0.57440  0.63260  Biso   1.000  H
  H112     1.0000 0.15970  0.64680  0.61590  Biso   1.000  H
  H113     1.0000 0.12400  0.70520  0.59770  Biso   1.000  H
  H114     1.0000 0.12640  0.63350  0.53860  Biso   1.000  H
  H115     1.0000 0.47580  0.18630  0.13930  Biso   1.000  H
  H116     1.0000 0.53090  0.25560  0.15520  Biso   1.000  H
  H117     1.0000 0.46380  0.26460  0.17640  Biso   1.000  H
  H118     1.0000 0.89010  0.66150  0.99050  Biso   1.000  H
  H119     1.0000 0.96270  0.71820  0.01130  Biso   1.000  H
  H120     1.0000 0.97230  0.65480  0.03050  Biso   1.000  H
  C76      1.0000 0.89380  0.24700  0.54320  Biso   1.000  C
  C77      1.0000 0.95800  0.30650  0.59010  Biso   1.000  C
  C78      1.0000 0.03100  0.29600  0.60400  Biso   1.000  C
  C79      1.0000 0.03980  0.22600  0.57100  Biso   1.000  C
  C80      1.0000 0.97600  0.16620  0.52400  Biso   1.000  C
  C81      1.0000 0.90300  0.17700  0.50990  Biso   1.000  C
  C82      1.0000 0.98600  0.09000  0.50100  Biso   1.000  C
  C83      1.0000 0.87200  0.53700  0.80300  Biso   1.000  C
  C84      1.0000 0.94100  0.53500  0.79900  Biso   1.000  C
  C85      1.0000 0.01000  0.57600  0.85900  Biso   1.000  C
  C86      1.0000 0.01000  0.61800  0.92300  Biso   1.000  C
  C87      1.0000 0.94100  0.62000  0.92800  Biso   1.000  C
  C88      1.0000 0.87200  0.58000  0.86700  Biso   1.000  C
  C89      1.0000 0.62400  0.31000  0.62100  Biso   1.000  C
  C90      1.0000 0.62900  0.24800  0.56800  Biso   1.000  C
  C91      1.0000 0.58400  0.17900  0.54300  Biso   1.000  C
  C92      1.0000 0.53500  0.17200  0.57000  Biso   1.000  C
  C93      1.0000 0.53000  0.23300  0.62300  Biso   1.000  C
  C94      1.0000 0.57500  0.30200  0.64900  Biso   1.000  C
  C95      1.0000 0.47500  0.22600  0.65100  Biso   1.000  C
  C96      1.0000 0.62300  0.54640  0.60800  Biso   1.000  C
  C97      1.0000 0.62970  0.55280  0.55380  Biso   1.000  C
  C98      1.0000 0.58500  0.59100  0.52420  Biso   1.000  C
  C99      1.0000 0.53500  0.62200  0.54900  Biso   1.000  C
  C100     1.0000 0.52800  0.61600  0.60300  Biso   1.000  C
  C101     1.0000 0.57200  0.57800  0.63250  Biso   1.000  C
  C102     1.0000 0.48200  0.66200  0.51900  Biso   1.000  C
  C103     1.0000 0.65100  0.26000  0.36890  Biso   1.000  C
  C104     1.0000 0.60900  0.19100  0.31200  Biso   1.000  C
  C105     1.0000 0.55900  0.18300  0.24800  Biso   1.000  C
  C106     1.0000 0.55100  0.24500  0.23980  Biso   1.000  C
  C107     1.0000 0.59300  0.31500  0.29650  Biso   1.000  C
  C108     1.0000 0.64300  0.32200  0.36110  Biso   1.000  C
  C109     1.0000 0.65900  0.51900  0.80400  Biso   1.000  C
  C110     1.0000 0.64000  0.55200  0.86000  Biso   1.000  C
  C111     1.0000 0.64900  0.52800  0.90700  Biso   1.000  C
  C112     1.0000 0.62300  0.55800  0.95600  Biso   1.000  C
  C113     1.0000 0.59300  0.61500  0.96000  Biso   1.000  C
  C114     1.0000 0.58400  0.64200  0.91700  Biso   1.000  C
  C115     1.0000 0.61200  0.61100  0.86500  Biso   1.000  C
  C116     1.0000 0.57100  0.62700  0.05500  Biso   1.000  C
  C117     1.0000 0.65900  0.53200  0.37700  Biso   1.000  C
  C118     1.0000 0.63600  0.56100  0.32600  Biso   1.000  C
  C119     1.0000 0.56500  0.55500  0.28300  Biso   1.000  C
  C120     1.0000 0.54600  0.57800  0.23500  Biso   1.000  C
  C121     1.0000 0.60600  0.61100  0.23200  Biso   1.000  C
  C122     1.0000 0.68100  0.62400  0.27500  Biso   1.000  C
  C123     1.0000 0.69500  0.59400  0.32200  Biso   1.000  C
  C124     1.0000 0.19660  0.54530  0.83000  Biso   1.000  C
  C125     1.0000 0.23190  0.49040  0.83470  Biso   1.000  C
  C126     1.0000 0.30180  0.50800  0.89200  Biso   1.000  C
  C127     1.0000 0.33630  0.58060  0.94470  Biso   1.000  C
  C128     1.0000 0.30090  0.63550  0.94000  Biso   1.000  C
  C129     1.0000 0.23100  0.61790  0.88260  Biso   1.000  C
  C130     1.0000 0.44700  0.66600  0.04800  Biso   1.000  C
  C131     1.0000 0.52800  0.67000  0.09700  Biso   1.000  C
  C132     1.0000 0.52100  0.63500  0.14100  Biso   1.000  C
  C133     1.0000 0.57500  0.74900  0.14300  Biso   1.000  C
  C134     1.0000 0.66400  0.08700  0.38500  Biso   1.000  C
  C135     1.0000 0.63000  0.00770  0.32860  Biso   1.000  C
  C136     1.0000 0.56100  0.96900  0.31530  Biso   1.000  C
  C137     1.0000 0.53040  0.89600  0.26400  Biso   1.000  C
  C138     1.0000 0.57000  0.86050  0.22670  Biso   1.000  C
  C139     1.0000 0.63900  0.89900  0.24000  Biso   1.000  C
  C140     1.0000 0.66900  0.97300  0.29100  Biso   1.000  C
  C141     1.0000 0.96000  0.54470  0.58280  Biso   1.000  C
  C142     1.0000 0.89680  0.54970  0.53300  Biso   1.000  C
  C143     1.0000 0.90700  0.58800  0.49930  Biso   1.000  C
  C144     1.0000 0.98000  0.62090  0.51600  Biso   1.000  C
  C145     1.0000 0.04400  0.61590  0.56600  Biso   1.000  C
  C146     1.0000 0.03370  0.57800  0.59920  Biso   1.000  C
  C147     1.0000 0.12000  0.65400  0.58100  Biso   1.000  C
  C148     1.0000 0.11600  0.51700  0.76900  Biso   1.000  C
  C149     1.0000 0.50100  0.23700  0.17200  Biso   1.000  C
  C150     1.0000 0.94200  0.66800  0.99600  Biso   1.000  C
  N19      1.0000 0.83300  0.27000  0.53400  Biso   1.000  N
  N20      1.0000 0.85600  0.34300  0.57940  Biso   1.000  N
  N21      1.0000 0.92900  0.36350  0.61300  Biso   1.000  N
  N22      1.0000 0.92500  0.50000  0.73400  Biso   1.000  N
  N23      1.0000 0.84700  0.47700  0.69800  Biso   1.000  N
  N24      1.0000 0.81500  0.50200  0.73800  Biso   1.000  N
  N25      1.0000 0.67200  0.36700  0.63500  Biso   1.000  N
  N26      1.0000 0.70400  0.34300  0.59100  Biso   1.000  N
  N27      1.0000 0.68000  0.27100  0.55200  Biso   1.000  N
  N28      1.0000 0.68090  0.51560  0.53920  Biso   1.000  N
  N29      1.0000 0.70660  0.48970  0.58700  Biso   1.000  N
  N30      1.0000 0.67200  0.50800  0.62900  Biso   1.000  N
  N31      1.0000 0.83800  0.51400  0.53040  Biso   1.000  N
  N32      1.0000 0.85630  0.48350  0.57110  Biso   1.000  N
  N33      1.0000 0.93300  0.50400  0.60490  Biso   1.000  N
  N34      1.0000 0.69100  0.38000  0.42700  Biso   1.000  N
  N35      1.0000 0.71460  0.34900  0.46540  Biso   1.000  N
  N36      1.0000 0.69500  0.27800  0.44100  Biso   1.000  N
  O13      1.0000 0.72600  0.53900  0.41400  Biso   1.000  O
  O14      1.0000 0.60900  0.50000  0.38000  Biso   1.000  O
  O15      1.0000 0.59770  0.64170  0.18770  Biso   1.000  O
  O16      1.0000 0.09100  0.57200  0.76370  Biso   1.000  O
  O17      1.0000 0.08700  0.45900  0.72800  Biso   1.000  O
  O18      1.0000 0.40790  0.59300  0.99790  Biso   1.000  O
  O19      1.0000 0.72900  0.11860  0.39970  Biso   1.000  O
  O20      1.0000 0.62600  0.11900  0.41240  Biso   1.000  O
  O21      1.0000 0.53680  0.78740  0.18080  Biso   1.000  O
  O22      1.0000 0.56910  0.65390  0.00940  Biso   1.000  O
  O23      1.0000 0.68800  0.46200  0.79500  Biso   1.000  O
  O24      1.0000 0.65600  0.54100  0.76100  Biso   1.000  O
