data_image0
_cell_length_a       21.317
_cell_length_b       23.1479
_cell_length_c       38.6588
_cell_angle_alpha    79.5682
_cell_angle_beta     73.9958
_cell_angle_gamma    62.5837

_symmetry_space_group_name_H-M    P 1
_symmetry_int_tables_number       1

loop_
  _symmetry_equiv_pos_as_xyz
  'x, y, z'

loop_
  _atom_site_label
  _atom_site_occupancy
  _atom_site_fract_x
  _atom_site_fract_y
  _atom_site_fract_z
  _atom_site_thermal_displace_type
  _atom_site_B_iso_or_equiv
  _atom_site_type_symbol
  Zn1      1.0000 0.34884  0.48474  0.42220  Biso   1.000  Zn
  Zn2      1.0000 0.30684  0.45794  0.51772  Biso   1.000  Zn
  Zn3      1.0000 0.46927  0.32719  0.38331  Biso   1.000  Zn
  Zn4      1.0000 0.43752  0.58951  0.39772  Biso   1.000  Zn
  Zn5      1.0000 0.18034  0.55974  0.39026  Biso   1.000  Zn
  Zn6      1.0000 0.74422  0.98474  0.92220  Biso   1.000  Zn
  Zn7      1.0000 0.71750  0.95794  0.01772  Biso   1.000  Zn
  Zn8      1.0000 0.82023  0.82719  0.88331  Biso   1.000  Zn
  Zn9      1.0000 0.57525  0.08951  0.89772  Biso   1.000  Zn
  Zn10     1.0000 0.86966  0.05974  0.89026  Biso   1.000  Zn
  H1       1.0000 0.18510  0.48910  0.32310  Biso   1.000  H
  H2       1.0000 0.22300  0.40770  0.28470  Biso   1.000  H
  H3       1.0000 0.14980  0.71480  0.34380  Biso   1.000  H
  H4       1.0000 0.22850  0.28190  0.88910  Biso   1.000  H
  H5       1.0000 0.32610  0.31060  0.28460  Biso   1.000  H
  H6       1.0000 0.16470  0.80930  0.32350  Biso   1.000  H
  H7       1.0000 0.40780  0.29720  0.31960  Biso   1.000  H
  H8       1.0000 0.26280  0.81860  0.33240  Biso   1.000  H
  H9       1.0000 0.43780  0.17700  0.81040  Biso   1.000  H
  H10      1.0000 0.34560  0.73410  0.36170  Biso   1.000  H
  H11      1.0000 0.71330  0.44450  0.30910  Biso   1.000  H
  H12      1.0000 0.33590  0.23530  0.78890  Biso   1.000  H
  H13      1.0000 0.14610  0.43930  0.79230  Biso   1.000  H
  H14      1.0000 0.10490  0.41930  0.82930  Biso   1.000  H
  H15      1.0000 0.50680  0.13520  0.49340  Biso   1.000  H
  H16      1.0000 0.45150  0.18560  0.54740  Biso   1.000  H
  H17      1.0000 0.07750  0.40080  0.74420  Biso   1.000  H
  H18      1.0000 0.14210  0.33090  0.73790  Biso   1.000  H
  H19      1.0000 0.33640  0.22120  0.90640  Biso   1.000  H
  H20      1.0000 0.07000  0.32840  0.83440  Biso   1.000  H
  H21      1.0000 0.01950  0.37330  0.80790  Biso   1.000  H
  H22      1.0000 0.17800  0.37580  0.61940  Biso   1.000  H
  H23      1.0000 0.23700  0.32600  0.77800  Biso   1.000  H
  H24      1.0000 0.21230  0.27000  0.78340  Biso   1.000  H
  H25      1.0000 0.36600  0.52940  0.56500  Biso   1.000  H
  H26      1.0000 0.08760  0.52230  0.83390  Biso   1.000  H
  H27      1.0000 0.01060  0.13060  0.80060  Biso   1.000  H
  H28      1.0000 0.07220  0.19370  0.77270  Biso   1.000  H
  H29      1.0000 0.98320  0.30410  0.85670  Biso   1.000  H
  H30      1.0000 0.14000  0.36190  0.68010  Biso   1.000  H
  H31      1.0000 0.02490  0.62050  0.86150  Biso   1.000  H
  H32      1.0000 0.29190  0.46060  0.63340  Biso   1.000  H
  H33      1.0000 0.47260  0.64140  0.52680  Biso   1.000  H
  H34      1.0000 0.42040  0.58890  0.57310  Biso   1.000  H
  H35      1.0000 0.92340  0.56730  0.78970  Biso   1.000  H
  H36      1.0000 0.37740  0.29770  0.55110  Biso   1.000  H
  H37      1.0000 0.63160  0.31410  0.33170  Biso   1.000  H
  H38      1.0000 0.92180  0.24090  0.88330  Biso   1.000  H
  H39      1.0000 0.72100  0.34570  0.30290  Biso   1.000  H
  H40      1.0000 0.60760  0.52610  0.34050  Biso   1.000  H
  H41      1.0000 0.85920  0.66900  0.81500  Biso   1.000  H
  H42      1.0000 0.50560  0.19940  0.44080  Biso   1.000  H
  H43      1.0000 0.47480  0.63220  0.46660  Biso   1.000  H
  H44      1.0000 0.25330  0.45010  0.69590  Biso   1.000  H
  H45      1.0000 0.02970  0.60510  0.45250  Biso   1.000  H
  H46      1.0000 0.95300  0.61600  0.50920  Biso   1.000  H
  H47      1.0000 0.00100  0.57530  0.56030  Biso   1.000  H
  H48      1.0000 0.12560  0.52400  0.55460  Biso   1.000  H
  H49      1.0000 0.00270  0.98910  0.82310  Biso   1.000  H
  H50      1.0000 0.08460  0.90770  0.78470  Biso   1.000  H
  H51      1.0000 0.79160  0.21480  0.84380  Biso   1.000  H
  H52      1.0000 0.60050  0.78190  0.38910  Biso   1.000  H
  H53      1.0000 0.07870  0.81060  0.78460  Biso   1.000  H
  H54      1.0000 0.70250  0.30930  0.82350  Biso   1.000  H
  H55      1.0000 0.97540  0.79720  0.81960  Biso   1.000  H
  H56      1.0000 0.58620  0.31860  0.83240  Biso   1.000  H
  H57      1.0000 0.57480  0.67700  0.31040  Biso   1.000  H
  H58      1.0000 0.55860  0.23410  0.86170  Biso   1.000  H
  H59      1.0000 0.53310  0.94450  0.80910  Biso   1.000  H
  H60      1.0000 0.63990  0.73530  0.28890  Biso   1.000  H
  H61      1.0000 0.62230  0.93930  0.29230  Biso   1.000  H
  H62      1.0000 0.64650  0.91930  0.32930  Biso   1.000  H
  H63      1.0000 0.86460  0.63520  0.99340  Biso   1.000  H
  H64      1.0000 0.81550  0.68560  0.04740  Biso   1.000  H
  H65      1.0000 0.77750  0.90080  0.24420  Biso   1.000  H
  H66      1.0000 0.78910  0.83090  0.23790  Biso   1.000  H
  H67      1.0000 0.53600  0.72120  0.40640  Biso   1.000  H
  H68      1.0000 0.76720  0.82840  0.33440  Biso   1.000  H
  H69      1.0000 0.79930  0.87330  0.30790  Biso   1.000  H
  H70      1.0000 0.82680  0.87580  0.11940  Biso   1.000  H
  H71      1.0000 0.65900  0.82600  0.27800  Biso   1.000  H
  H72      1.0000 0.73430  0.77000  0.28340  Biso   1.000  H
  H73      1.0000 0.53960  0.02940  0.06500  Biso   1.000  H
  H74      1.0000 0.55620  0.02230  0.33390  Biso   1.000  H
  H75      1.0000 0.05820  0.63060  0.30060  Biso   1.000  H
  H76      1.0000 0.96140  0.69370  0.27270  Biso   1.000  H
  H77      1.0000 0.85600  0.80410  0.35670  Biso   1.000  H
  H78      1.0000 0.81800  0.86190  0.18010  Biso   1.000  H
  H79      1.0000 0.49310  0.12050  0.36150  Biso   1.000  H
  H80      1.0000 0.61410  0.96060  0.13340  Biso   1.000  H
  H81      1.0000 0.35920  0.14140  0.02680  Biso   1.000  H
  H82      1.0000 0.41760  0.08890  0.07310  Biso   1.000  H
  H83      1.0000 0.71960  0.06730  0.28970  Biso   1.000  H
  H84      1.0000 0.77380  0.79770  0.05110  Biso   1.000  H
  H85      1.0000 0.72260  0.81410  0.83170  Biso   1.000  H
  H86      1.0000 0.95400  0.74090  0.38330  Biso   1.000  H
  H87      1.0000 0.63040  0.84570  0.80290  Biso   1.000  H
  H88      1.0000 0.52580  0.02610  0.84050  Biso   1.000  H
  H89      1.0000 0.65680  0.16900  0.31500  Biso   1.000  H
  H90      1.0000 0.85420  0.69940  0.94080  Biso   1.000  H
  H91      1.0000 0.42640  0.13220  0.96660  Biso   1.000  H
  H92      1.0000 0.60070  0.95010  0.19590  Biso   1.000  H
  H93      1.0000 0.91270  0.10510  0.95250  Biso   1.000  H
  H94      1.0000 0.92180  0.11600  0.00920  Biso   1.000  H
  H95      1.0000 0.86340  0.07530  0.06030  Biso   1.000  H
  H96      1.0000 0.79580  0.02400  0.05460  Biso   1.000  H
  C1       1.0000 0.12549  0.36136  0.78846  Biso   1.000  C
  C2       1.0000 0.22820  0.45127  0.32293  Biso   1.000  C
  C3       1.0000 0.29985  0.67290  0.36980  Biso   1.000  C
  C4       1.0000 0.25170  0.40170  0.30050  Biso   1.000  C
  C5       1.0000 0.23908  0.66744  0.36480  Biso   1.000  C
  C6       1.0000 0.18917  0.71845  0.34735  Biso   1.000  C
  C7       1.0000 0.27089  0.26107  0.87215  Biso   1.000  C
  C8       1.0000 0.31570  0.34280  0.29940  Biso   1.000  C
  C9       1.0000 0.19806  0.77508  0.33520  Biso   1.000  C
  C10      1.0000 0.36340  0.33350  0.32090  Biso   1.000  C
  C11      1.0000 0.27490  0.43941  0.34539  Biso   1.000  C
  C12      1.0000 0.25690  0.78069  0.34051  Biso   1.000  C
  C13      1.0000 0.39486  0.19938  0.82670  Biso   1.000  C
  C14      1.0000 0.30681  0.72964  0.35796  Biso   1.000  C
  C15      1.0000 0.67360  0.43584  0.32036  Biso   1.000  C
  C16      1.0000 0.33432  0.23346  0.81330  Biso   1.000  C
  C17      1.0000 0.10789  0.42574  0.80350  Biso   1.000  C
  C18      1.0000 0.48236  0.18028  0.49360  Biso   1.000  C
  C19      1.0000 0.44630  0.21170  0.52610  Biso   1.000  C
  C20      1.0000 0.93320  0.65828  0.84172  Biso   1.000  C
  C21      1.0000 0.12603  0.37218  0.74788  Biso   1.000  C
  C22      1.0000 0.33650  0.22480  0.88200  Biso   1.000  C
  C23      1.0000 0.55810  0.46367  0.35693  Biso   1.000  C
  C24      1.0000 0.39015  0.54366  0.50964  Biso   1.000  C
  C25      1.0000 0.19118  0.40541  0.69343  Biso   1.000  C
  C26      1.0000 0.06722  0.33872  0.80924  Biso   1.000  C
  C27      1.0000 0.19326  0.39056  0.63492  Biso   1.000  C
  C28      1.0000 0.27094  0.26485  0.83727  Biso   1.000  C
  C29      1.0000 0.20143  0.31103  0.79213  Biso   1.000  C
  C30      1.0000 0.00886  0.53380  0.81108  Biso   1.000  C
  C31      1.0000 0.38785  0.54910  0.54560  Biso   1.000  C
  C32      1.0000 0.23805  0.41929  0.62101  Biso   1.000  C
  C33      1.0000 0.26333  0.42508  0.58026  Biso   1.000  C
  C34      1.0000 0.42126  0.57560  0.48108  Biso   1.000  C
  C35      1.0000 0.04099  0.55054  0.83088  Biso   1.000  C
  C36      1.0000 0.56780  0.40063  0.35337  Biso   1.000  C
  C37      1.0000 0.92100  0.13810  0.86410  Biso   1.000  C
  C38      1.0000 0.89449  0.72425  0.85837  Biso   1.000  C
  C39      1.0000 0.00473  0.16503  0.81231  Biso   1.000  C
  C40      1.0000 0.95930  0.17890  0.84570  Biso   1.000  C
  C41      1.0000 0.04261  0.20270  0.79568  Biso   1.000  C
  C42      1.0000 0.98999  0.26890  0.84532  Biso   1.000  C
  C43      1.0000 0.46730  0.15370  0.87470  Biso   1.000  C
  C44      1.0000 0.17009  0.38269  0.67093  Biso   1.000  C
  C45      1.0000 0.00318  0.61096  0.84688  Biso   1.000  C
  C46      1.0000 0.40430  0.31340  0.49520  Biso   1.000  C
  C47      1.0000 0.26057  0.44120  0.64326  Biso   1.000  C
  C48      1.0000 0.45209  0.61699  0.52163  Biso   1.000  C
  C49      1.0000 0.41966  0.58497  0.54971  Biso   1.000  C
  C50      1.0000 0.94360  0.57797  0.80463  Biso   1.000  C
  C51      1.0000 0.40329  0.27854  0.52928  Biso   1.000  C
  C52      1.0000 0.62709  0.35531  0.33371  Biso   1.000  C
  C53      1.0000 0.95307  0.23040  0.86086  Biso   1.000  C
  C54      1.0000 0.67901  0.37478  0.31720  Biso   1.000  C
  C55      1.0000 0.61235  0.48446  0.33944  Biso   1.000  C
  C56      1.0000 0.39839  0.19532  0.85990  Biso   1.000  C
  C57      1.0000 0.90420  0.64052  0.81988  Biso   1.000  C
  C58      1.0000 0.48010  0.21837  0.46263  Biso   1.000  C
  C59      1.0000 0.33960  0.38291  0.34469  Biso   1.000  C
  C60      1.0000 0.44021  0.28568  0.46290  Biso   1.000  C
  C61      1.0000 0.45334  0.61204  0.48588  Biso   1.000  C
  C62      1.0000 0.03664  0.25181  0.81251  Biso   1.000  C
  C63      1.0000 0.23810  0.43517  0.68043  Biso   1.000  C
  C64      1.0000 0.15228  0.53373  0.50019  Biso   1.000  C
  C65      1.0000 0.12356  0.55808  0.46960  Biso   1.000  C
  C66      1.0000 0.04886  0.58889  0.47299  Biso   1.000  C
  C67      1.0000 0.00297  0.59534  0.50696  Biso   1.000  C
  C68      1.0000 0.03173  0.57099  0.53755  Biso   1.000  C
  C69      1.0000 0.10642  0.54020  0.53416  Biso   1.000  C
  C70      1.0000 0.72469  0.86136  0.28846  Biso   1.000  C
  C71      1.0000 0.99760  0.95127  0.82293  Biso   1.000  C
  C72      1.0000 0.65745  0.17290  0.86980  Biso   1.000  C
  C73      1.0000 0.04610  0.90170  0.80050  Biso   1.000  C
  C74      1.0000 0.72868  0.16744  0.86480  Biso   1.000  C
  C75      1.0000 0.74503  0.21845  0.84735  Biso   1.000  C
  C76      1.0000 0.59589  0.76107  0.37215  Biso   1.000  C
  C77      1.0000 0.04210  0.84280  0.79940  Biso   1.000  C
  C78      1.0000 0.69166  0.27508  0.83520  Biso   1.000  C
  C79      1.0000 0.98220  0.83350  0.82090  Biso   1.000  C
  C80      1.0000 0.94030  0.93941  0.84539  Biso   1.000  C
  C81      1.0000 0.62190  0.28069  0.84051  Biso   1.000  C
  C82      1.0000 0.57906  0.69938  0.32670  Biso   1.000  C
  C83      1.0000 0.60559  0.22964  0.85796  Biso   1.000  C
  C84      1.0000 0.57020  0.93584  0.82036  Biso   1.000  C
  C85      1.0000 0.61892  0.73346  0.31330  Biso   1.000  C
  C86      1.0000 0.66287  0.92574  0.30350  Biso   1.000  C
  C87      1.0000 0.84376  0.68028  0.99360  Biso   1.000  C
  C88      1.0000 0.81590  0.71170  0.02610  Biso   1.000  C
  C89      1.0000 0.56680  0.15828  0.34172  Biso   1.000  C
  C90      1.0000 0.75391  0.87218  0.24788  Biso   1.000  C
  C91      1.0000 0.55670  0.72480  0.38200  Biso   1.000  C
  C92      1.0000 0.62130  0.96367  0.85693  Biso   1.000  C
  C93      1.0000 0.55655  0.04366  0.00964  Biso   1.000  C
  C94      1.0000 0.70998  0.90541  0.19343  Biso   1.000  C
  C95      1.0000 0.78482  0.83872  0.30924  Biso   1.000  C
  C96      1.0000 0.78126  0.89056  0.13492  Biso   1.000  C
  C97      1.0000 0.62694  0.76485  0.33727  Biso   1.000  C
  C98      1.0000 0.69541  0.81103  0.29213  Biso   1.000  C
  C99      1.0000 0.64626  0.03380  0.31108  Biso   1.000  C
  C100     1.0000 0.51745  0.04910  0.04560  Biso   1.000  C
  C101     1.0000 0.72165  0.91929  0.12101  Biso   1.000  C
  C102     1.0000 0.73133  0.92508  0.08026  Biso   1.000  C
  C103     1.0000 0.52206  0.07560  0.98108  Biso   1.000  C
  C104     1.0000 0.57759  0.05054  0.33088  Biso   1.000  C
  C105     1.0000 0.67820  0.90063  0.85337  Biso   1.000  C
  C106     1.0000 0.07680  0.63810  0.36410  Biso   1.000  C
  C107     1.0000 0.52289  0.22425  0.35837  Biso   1.000  C
  C108     1.0000 0.01793  0.66503  0.31231  Biso   1.000  C
  C109     1.0000 0.01610  0.67890  0.34570  Biso   1.000  C
  C110     1.0000 0.95901  0.70270  0.29568  Biso   1.000  C
  C111     1.0000 0.89579  0.76890  0.34532  Biso   1.000  C
  C112     1.0000 0.50430  0.65370  0.37470  Biso   1.000  C
  C113     1.0000 0.77629  0.88269  0.17093  Biso   1.000  C
  C114     1.0000 0.53898  0.11096  0.34688  Biso   1.000  C
  C115     1.0000 0.78710  0.81340  0.99520  Biso   1.000  C
  C116     1.0000 0.65497  0.94120  0.14326  Biso   1.000  C
  C117     1.0000 0.40929  0.11699  0.02163  Biso   1.000  C
  C118     1.0000 0.44566  0.08497  0.04971  Biso   1.000  C
  C119     1.0000 0.67380  0.07797  0.30463  Biso   1.000  C
  C120     1.0000 0.78889  0.77854  0.02928  Biso   1.000  C
  C121     1.0000 0.68389  0.85531  0.83371  Biso   1.000  C
  C122     1.0000 0.95567  0.73040  0.36086  Biso   1.000  C
  C123     1.0000 0.62901  0.87478  0.81720  Biso   1.000  C
  C124     1.0000 0.56375  0.98446  0.83944  Biso   1.000  C
  C125     1.0000 0.54639  0.69532  0.35990  Biso   1.000  C
  C126     1.0000 0.63540  0.14052  0.31988  Biso   1.000  C
  C127     1.0000 0.83890  0.71837  0.96263  Biso   1.000  C
  C128     1.0000 0.93280  0.88291  0.84469  Biso   1.000  C
  C129     1.0000 0.81121  0.78568  0.96290  Biso   1.000  C
  C130     1.0000 0.44874  0.11204  0.98588  Biso   1.000  C
  C131     1.0000 0.89904  0.75181  0.31251  Biso   1.000  C
  C132     1.0000 0.64630  0.93517  0.18043  Biso   1.000  C
  C133     1.0000 0.81380  0.03373  0.00019  Biso   1.000  C
  C134     1.0000 0.84876  0.05808  0.96960  Biso   1.000  C
  C135     1.0000 0.88926  0.08889  0.97299  Biso   1.000  C
  C136     1.0000 0.89473  0.09534  0.00696  Biso   1.000  C
  C137     1.0000 0.85973  0.07099  0.03755  Biso   1.000  C
  C138     1.0000 0.81922  0.04020  0.03416  Biso   1.000  C
  N1       1.0000 0.18103  0.54515  0.44279  Biso   1.000  N
  N2       1.0000 0.36287  0.51273  0.49557  Biso   1.000  N
  N3       1.0000 0.24088  0.51206  0.45668  Biso   1.000  N
  N4       1.0000 0.22542  0.50426  0.49230  Biso   1.000  N
  N5       1.0000 0.37710  0.52436  0.45948  Biso   1.000  N
  N6       1.0000 0.41250  0.56108  0.45026  Biso   1.000  N
  N7       1.0000 0.49180  0.49919  0.37841  Biso   1.000  N
  N8       1.0000 0.46088  0.45862  0.38754  Biso   1.000  N
  N9       1.0000 0.50428  0.39907  0.37317  Biso   1.000  N
  N10      1.0000 0.37301  0.38600  0.36898  Biso   1.000  N
  N11      1.0000 0.32782  0.44229  0.38387  Biso   1.000  N
  N12      1.0000 0.26754  0.47523  0.37069  Biso   1.000  N
  N13      1.0000 0.24571  0.60925  0.38173  Biso   1.000  N
  N14      1.0000 0.30939  0.58082  0.39280  Biso   1.000  N
  N15      1.0000 0.34283  0.61842  0.38552  Biso   1.000  N
  N16      1.0000 0.37044  0.37860  0.48802  Biso   1.000  N
  N17      1.0000 0.38933  0.38693  0.45261  Biso   1.000  N
  N18      1.0000 0.43075  0.33166  0.43700  Biso   1.000  N
  N19      1.0000 0.83103  0.04515  0.94279  Biso   1.000  N
  N20      1.0000 0.62883  0.01273  0.99557  Biso   1.000  N
  N21      1.0000 0.79038  0.01206  0.95668  Biso   1.000  N
  N22      1.0000 0.77802  0.00426  0.99230  Biso   1.000  N
  N23      1.0000 0.63906  0.02436  0.95948  Biso   1.000  N
  N24      1.0000 0.57616  0.06108  0.95026  Biso   1.000  N
  N25      1.0000 0.63060  0.99919  0.87841  Biso   1.000  N
  N26      1.0000 0.69296  0.95862  0.88754  Biso   1.000  N
  N27      1.0000 0.72348  0.89907  0.87317  Biso   1.000  N
  N28      1.0000 0.87201  0.88600  0.86898  Biso   1.000  N
  N29      1.0000 0.84602  0.94229  0.88387  Biso   1.000  N
  N30      1.0000 0.88654  0.97523  0.87069  Biso   1.000  N
  N31      1.0000 0.76331  0.10925  0.88173  Biso   1.000  N
  N32      1.0000 0.71699  0.08082  0.89280  Biso   1.000  N
  N33      1.0000 0.65323  0.11842  0.88552  Biso   1.000  N
  N34      1.0000 0.76294  0.87860  0.98802  Biso   1.000  N
  N35      1.0000 0.77113  0.88693  0.95261  Biso   1.000  N
  N36      1.0000 0.80059  0.83166  0.93700  Biso   1.000  N
  O1       1.0000 0.92604  0.09397  0.84615  Biso   1.000  O
  O2       1.0000 0.88539  0.14746  0.89336  Biso   1.000  O
  O3       1.0000 0.24668  0.40240  0.56104  Biso   1.000  O
  O4       1.0000 0.29930  0.45919  0.56903  Biso   1.000  O
  O5       1.0000 0.47038  0.14973  0.90331  Biso   1.000  O
  O6       1.0000 0.52250  0.13562  0.85018  Biso   1.000  O
  O7       1.0000 0.92076  0.73255  0.87953  Biso   1.000  O
  O8       1.0000 0.84140  0.76356  0.84884  Biso   1.000  O
  O9       1.0000 0.03969  0.47573  0.79615  Biso   1.000  O
  O10      1.0000 0.17368  0.40076  0.73050  Biso   1.000  O
  O11      1.0000 0.20378  0.30259  0.82849  Biso   1.000  O
  O12      1.0000 0.07909  0.28207  0.79355  Biso   1.000  O
  O13      1.0000 0.13384  0.59397  0.34615  Biso   1.000  O
  O14      1.0000 0.07379  0.64746  0.39336  Biso   1.000  O
  O15      1.0000 0.78988  0.90240  0.06104  Biso   1.000  O
  O16      1.0000 0.67248  0.95919  0.06903  Biso   1.000  O
  O17      1.0000 0.47658  0.64973  0.40331  Biso   1.000  O
  O18      1.0000 0.49170  0.63562  0.35018  Biso   1.000  O
  O19      1.0000 0.46716  0.23255  0.37953  Biso   1.000  O
  O20      1.0000 0.54620  0.26356  0.34884  Biso   1.000  O
  O21      1.0000 0.68843  0.97573  0.29615  Biso   1.000  O
  O22      1.0000 0.69506  0.90076  0.23050  Biso   1.000  O
  O23      1.0000 0.66514  0.80259  0.32849  Biso   1.000  O
  O24      1.0000 0.84529  0.78207  0.29355  Biso   1.000  O
  Zn11     1.0000 0.25578  0.01526  0.07780  Biso   1.000  Zn
  Zn12     1.0000 0.28250  0.04206  0.98228  Biso   1.000  Zn
  Zn13     1.0000 0.17977  0.17281  0.11669  Biso   1.000  Zn
  Zn14     1.0000 0.42475  0.91049  0.10228  Biso   1.000  Zn
  Zn15     1.0000 0.13034  0.94026  0.10974  Biso   1.000  Zn
  Zn16     1.0000 0.65116  0.51526  0.57780  Biso   1.000  Zn
  Zn17     1.0000 0.69316  0.54206  0.48228  Biso   1.000  Zn
  Zn18     1.0000 0.53073  0.67281  0.61669  Biso   1.000  Zn
  Zn19     1.0000 0.56248  0.41049  0.60228  Biso   1.000  Zn
  Zn20     1.0000 0.81966  0.44026  0.60974  Biso   1.000  Zn
  H97      1.0000 0.99730  0.01090  0.17690  Biso   1.000  H
  H98      1.0000 0.91540  0.09230  0.21530  Biso   1.000  H
  H99      1.0000 0.20840  0.78520  0.15620  Biso   1.000  H
  H100     1.0000 0.39950  0.21810  0.61090  Biso   1.000  H
  H101     1.0000 0.92130  0.18940  0.21540  Biso   1.000  H
  H102     1.0000 0.29750  0.69070  0.17650  Biso   1.000  H
  H103     1.0000 0.02460  0.20280  0.18040  Biso   1.000  H
  H104     1.0000 0.41380  0.68140  0.16760  Biso   1.000  H
  H105     1.0000 0.42520  0.32300  0.68960  Biso   1.000  H
  H106     1.0000 0.44140  0.76590  0.13830  Biso   1.000  H
  H107     1.0000 0.46690  0.05550  0.19090  Biso   1.000  H
  H108     1.0000 0.36010  0.26470  0.71110  Biso   1.000  H
  H109     1.0000 0.37770  0.06070  0.70770  Biso   1.000  H
  H110     1.0000 0.35350  0.08070  0.67070  Biso   1.000  H
  H111     1.0000 0.13540  0.36480  0.00660  Biso   1.000  H
  H112     1.0000 0.18450  0.31440  0.95260  Biso   1.000  H
  H113     1.0000 0.22250  0.09920  0.75580  Biso   1.000  H
  H114     1.0000 0.21090  0.16910  0.76210  Biso   1.000  H
  H115     1.0000 0.46400  0.27880  0.59360  Biso   1.000  H
  H116     1.0000 0.23280  0.17160  0.66560  Biso   1.000  H
  H117     1.0000 0.20070  0.12670  0.69210  Biso   1.000  H
  H118     1.0000 0.17320  0.12420  0.88060  Biso   1.000  H
  H119     1.0000 0.34100  0.17400  0.72200  Biso   1.000  H
  H120     1.0000 0.26570  0.23000  0.71660  Biso   1.000  H
  H121     1.0000 0.46040  0.97060  0.93500  Biso   1.000  H
  H122     1.0000 0.44380  0.97770  0.66610  Biso   1.000  H
  H123     1.0000 0.94180  0.36940  0.69940  Biso   1.000  H
  H124     1.0000 0.03860  0.30630  0.72730  Biso   1.000  H
  H125     1.0000 0.14400  0.19590  0.64330  Biso   1.000  H
  H126     1.0000 0.18200  0.13810  0.81990  Biso   1.000  H
  H127     1.0000 0.50690  0.87950  0.63850  Biso   1.000  H
  H128     1.0000 0.38590  0.03940  0.86660  Biso   1.000  H
  H129     1.0000 0.64080  0.85860  0.97320  Biso   1.000  H
  H130     1.0000 0.58240  0.91110  0.92690  Biso   1.000  H
  H131     1.0000 0.28040  0.93270  0.71030  Biso   1.000  H
  H132     1.0000 0.22620  0.20230  0.94890  Biso   1.000  H
  H133     1.0000 0.27740  0.18590  0.16830  Biso   1.000  H
  H134     1.0000 0.04600  0.25910  0.61670  Biso   1.000  H
  H135     1.0000 0.36960  0.15430  0.19710  Biso   1.000  H
  H136     1.0000 0.47420  0.97390  0.15950  Biso   1.000  H
  H137     1.0000 0.34320  0.83100  0.68500  Biso   1.000  H
  H138     1.0000 0.14580  0.30060  0.05920  Biso   1.000  H
  H139     1.0000 0.57360  0.86780  0.03340  Biso   1.000  H
  H140     1.0000 0.39930  0.04990  0.80410  Biso   1.000  H
  H141     1.0000 0.08730  0.89490  0.04750  Biso   1.000  H
  H142     1.0000 0.07820  0.88400  0.99080  Biso   1.000  H
  H143     1.0000 0.13660  0.92470  0.93970  Biso   1.000  H
  H144     1.0000 0.20420  0.97600  0.94540  Biso   1.000  H
  H145     1.0000 0.81490  0.51090  0.67690  Biso   1.000  H
  H146     1.0000 0.77700  0.59230  0.71530  Biso   1.000  H
  H147     1.0000 0.85020  0.28520  0.65620  Biso   1.000  H
  H148     1.0000 0.77150  0.71810  0.11090  Biso   1.000  H
  H149     1.0000 0.67390  0.68940  0.71540  Biso   1.000  H
  H150     1.0000 0.83530  0.19070  0.67650  Biso   1.000  H
  H151     1.0000 0.59220  0.70280  0.68040  Biso   1.000  H
  H152     1.0000 0.73720  0.18140  0.66760  Biso   1.000  H
  H153     1.0000 0.56220  0.82300  0.18960  Biso   1.000  H
  H154     1.0000 0.65440  0.26590  0.63830  Biso   1.000  H
  H155     1.0000 0.28670  0.55550  0.69090  Biso   1.000  H
  H156     1.0000 0.66410  0.76470  0.21110  Biso   1.000  H
  H157     1.0000 0.85390  0.56070  0.20770  Biso   1.000  H
  H158     1.0000 0.89510  0.58070  0.17070  Biso   1.000  H
  H159     1.0000 0.49320  0.86480  0.50660  Biso   1.000  H
  H160     1.0000 0.54850  0.81440  0.45260  Biso   1.000  H
  H161     1.0000 0.92250  0.59920  0.25580  Biso   1.000  H
  H162     1.0000 0.85790  0.66910  0.26210  Biso   1.000  H
  H163     1.0000 0.66360  0.77880  0.09360  Biso   1.000  H
  H164     1.0000 0.93000  0.67160  0.16560  Biso   1.000  H
  H165     1.0000 0.98050  0.62670  0.19210  Biso   1.000  H
  H166     1.0000 0.82200  0.62420  0.38060  Biso   1.000  H
  H167     1.0000 0.76300  0.67400  0.22200  Biso   1.000  H
  H168     1.0000 0.78770  0.73000  0.21660  Biso   1.000  H
  H169     1.0000 0.63400  0.47060  0.43500  Biso   1.000  H
  H170     1.0000 0.91240  0.47770  0.16610  Biso   1.000  H
  H171     1.0000 0.98940  0.86940  0.19940  Biso   1.000  H
  H172     1.0000 0.92780  0.80630  0.22730  Biso   1.000  H
  H173     1.0000 0.01680  0.69590  0.14330  Biso   1.000  H
  H174     1.0000 0.86000  0.63810  0.31990  Biso   1.000  H
  H175     1.0000 0.97510  0.37950  0.13850  Biso   1.000  H
  H176     1.0000 0.70810  0.53940  0.36660  Biso   1.000  H
  H177     1.0000 0.52740  0.35860  0.47320  Biso   1.000  H
  H178     1.0000 0.57960  0.41110  0.42690  Biso   1.000  H
  H179     1.0000 0.07660  0.43270  0.21030  Biso   1.000  H
  H180     1.0000 0.62260  0.70230  0.44890  Biso   1.000  H
  H181     1.0000 0.36840  0.68590  0.66830  Biso   1.000  H
  H182     1.0000 0.07820  0.75910  0.11670  Biso   1.000  H
  H183     1.0000 0.27900  0.65430  0.69710  Biso   1.000  H
  H184     1.0000 0.39240  0.47390  0.65950  Biso   1.000  H
  H185     1.0000 0.14080  0.33100  0.18500  Biso   1.000  H
  H186     1.0000 0.49440  0.80060  0.55920  Biso   1.000  H
  H187     1.0000 0.52520  0.36780  0.53340  Biso   1.000  H
  H188     1.0000 0.74670  0.54990  0.30410  Biso   1.000  H
  H189     1.0000 0.97030  0.39490  0.54750  Biso   1.000  H
  H190     1.0000 0.04700  0.38400  0.49080  Biso   1.000  H
  H191     1.0000 0.99900  0.42470  0.43970  Biso   1.000  H
  H192     1.0000 0.87440  0.47600  0.44540  Biso   1.000  H
  C139     1.0000 0.27531  0.13864  0.71154  Biso   1.000  C
  C140     1.0000 0.00240  0.04873  0.17707  Biso   1.000  C
  C141     1.0000 0.34255  0.82710  0.13020  Biso   1.000  C
  C142     1.0000 0.95390  0.09830  0.19950  Biso   1.000  C
  C143     1.0000 0.27132  0.83256  0.13520  Biso   1.000  C
  C144     1.0000 0.25497  0.78155  0.15265  Biso   1.000  C
  C145     1.0000 0.40411  0.23893  0.62785  Biso   1.000  C
  C146     1.0000 0.95790  0.15720  0.20060  Biso   1.000  C
  C147     1.0000 0.30834  0.72492  0.16480  Biso   1.000  C
  C148     1.0000 0.01780  0.16650  0.17910  Biso   1.000  C
  C149     1.0000 0.05970  0.06059  0.15461  Biso   1.000  C
  C150     1.0000 0.37810  0.71931  0.15949  Biso   1.000  C
  C151     1.0000 0.42094  0.30062  0.67330  Biso   1.000  C
  C152     1.0000 0.39441  0.77036  0.14204  Biso   1.000  C
  C153     1.0000 0.42980  0.06416  0.17964  Biso   1.000  C
  C154     1.0000 0.38108  0.26654  0.68670  Biso   1.000  C
  C155     1.0000 0.33713  0.07426  0.69650  Biso   1.000  C
  C156     1.0000 0.15624  0.31972  0.00640  Biso   1.000  C
  C157     1.0000 0.18410  0.28830  0.97390  Biso   1.000  C
  C158     1.0000 0.43320  0.84172  0.65828  Biso   1.000  C
  C159     1.0000 0.24609  0.12782  0.75212  Biso   1.000  C
  C160     1.0000 0.44330  0.27520  0.61800  Biso   1.000  C
  C161     1.0000 0.37870  0.03633  0.14307  Biso   1.000  C
  C162     1.0000 0.44345  0.95634  0.99036  Biso   1.000  C
  C163     1.0000 0.29002  0.09459  0.80657  Biso   1.000  C
  C164     1.0000 0.21518  0.16128  0.69076  Biso   1.000  C
  C165     1.0000 0.21874  0.10944  0.86508  Biso   1.000  C
  C166     1.0000 0.37306  0.23515  0.66273  Biso   1.000  C
  C167     1.0000 0.30459  0.18897  0.70787  Biso   1.000  C
  C168     1.0000 0.35374  0.96620  0.68892  Biso   1.000  C
  C169     1.0000 0.48255  0.95090  0.95440  Biso   1.000  C
  C170     1.0000 0.27835  0.08071  0.87899  Biso   1.000  C
  C171     1.0000 0.26867  0.07492  0.91974  Biso   1.000  C
  C172     1.0000 0.47794  0.92440  0.01892  Biso   1.000  C
  C173     1.0000 0.42241  0.94946  0.66912  Biso   1.000  C
  C174     1.0000 0.32180  0.09937  0.14663  Biso   1.000  C
  C175     1.0000 0.92320  0.36190  0.63590  Biso   1.000  C
  C176     1.0000 0.47711  0.77575  0.64163  Biso   1.000  C
  C177     1.0000 0.98207  0.33497  0.68769  Biso   1.000  C
  C178     1.0000 0.98390  0.32110  0.65430  Biso   1.000  C
  C179     1.0000 0.04099  0.29730  0.70432  Biso   1.000  C
  C180     1.0000 0.10421  0.23110  0.65468  Biso   1.000  C
  C181     1.0000 0.49570  0.34630  0.62530  Biso   1.000  C
  C182     1.0000 0.22371  0.11731  0.82907  Biso   1.000  C
  C183     1.0000 0.46102  0.88904  0.65312  Biso   1.000  C
  C184     1.0000 0.21290  0.18660  0.00480  Biso   1.000  C
  C185     1.0000 0.34503  0.05880  0.85674  Biso   1.000  C
  C186     1.0000 0.59071  0.88301  0.97837  Biso   1.000  C
  C187     1.0000 0.55434  0.91503  0.95029  Biso   1.000  C
  C188     1.0000 0.32620  0.92203  0.69537  Biso   1.000  C
  C189     1.0000 0.21111  0.22146  0.97072  Biso   1.000  C
  C190     1.0000 0.31611  0.14469  0.16629  Biso   1.000  C
  C191     1.0000 0.04433  0.26960  0.63914  Biso   1.000  C
  C192     1.0000 0.37099  0.12522  0.18280  Biso   1.000  C
  C193     1.0000 0.43625  0.01554  0.16056  Biso   1.000  C
  C194     1.0000 0.45361  0.30468  0.64010  Biso   1.000  C
  C195     1.0000 0.36460  0.85948  0.68012  Biso   1.000  C
  C196     1.0000 0.16110  0.28163  0.03737  Biso   1.000  C
  C197     1.0000 0.06720  0.11709  0.15531  Biso   1.000  C
  C198     1.0000 0.18879  0.21432  0.03710  Biso   1.000  C
  C199     1.0000 0.55126  0.88796  0.01412  Biso   1.000  C
  C200     1.0000 0.10096  0.24819  0.68749  Biso   1.000  C
  C201     1.0000 0.35370  0.06483  0.81957  Biso   1.000  C
  C202     1.0000 0.18620  0.96627  0.99981  Biso   1.000  C
  C203     1.0000 0.15124  0.94192  0.03040  Biso   1.000  C
  C204     1.0000 0.11074  0.91111  0.02701  Biso   1.000  C
  C205     1.0000 0.10527  0.90466  0.99304  Biso   1.000  C
  C206     1.0000 0.14027  0.92901  0.96245  Biso   1.000  C
  C207     1.0000 0.18078  0.95980  0.96584  Biso   1.000  C
  C208     1.0000 0.87451  0.63864  0.21154  Biso   1.000  C
  C209     1.0000 0.77180  0.54873  0.67707  Biso   1.000  C
  C210     1.0000 0.70015  0.32710  0.63020  Biso   1.000  C
  C211     1.0000 0.74830  0.59830  0.69950  Biso   1.000  C
  C212     1.0000 0.76092  0.33256  0.63520  Biso   1.000  C
  C213     1.0000 0.81083  0.28155  0.65265  Biso   1.000  C
  C214     1.0000 0.72911  0.73893  0.12785  Biso   1.000  C
  C215     1.0000 0.68430  0.65720  0.70060  Biso   1.000  C
  C216     1.0000 0.80194  0.22492  0.66480  Biso   1.000  C
  C217     1.0000 0.63660  0.66650  0.67910  Biso   1.000  C
  C218     1.0000 0.72510  0.56059  0.65461  Biso   1.000  C
  C219     1.0000 0.74310  0.21931  0.65949  Biso   1.000  C
  C220     1.0000 0.60514  0.80062  0.17330  Biso   1.000  C
  C221     1.0000 0.69319  0.27036  0.64204  Biso   1.000  C
  C222     1.0000 0.32640  0.56416  0.67964  Biso   1.000  C
  C223     1.0000 0.66568  0.76654  0.18670  Biso   1.000  C
  C224     1.0000 0.89211  0.57426  0.19650  Biso   1.000  C
  C225     1.0000 0.51764  0.81972  0.50640  Biso   1.000  C
  C226     1.0000 0.55370  0.78830  0.47390  Biso   1.000  C
  C227     1.0000 0.06680  0.34172  0.15828  Biso   1.000  C
  C228     1.0000 0.87397  0.62782  0.25212  Biso   1.000  C
  C229     1.0000 0.66350  0.77520  0.11800  Biso   1.000  C
  C230     1.0000 0.44190  0.53633  0.64307  Biso   1.000  C
  C231     1.0000 0.60985  0.45634  0.49036  Biso   1.000  C
  C232     1.0000 0.80882  0.59459  0.30657  Biso   1.000  C
  C233     1.0000 0.93278  0.66128  0.19076  Biso   1.000  C
  C234     1.0000 0.80674  0.60944  0.36508  Biso   1.000  C
  C235     1.0000 0.72906  0.73515  0.16273  Biso   1.000  C
  C236     1.0000 0.79857  0.68897  0.20787  Biso   1.000  C
  C237     1.0000 0.99114  0.46620  0.18892  Biso   1.000  C
  C238     1.0000 0.61215  0.45090  0.45440  Biso   1.000  C
  C239     1.0000 0.76195  0.58071  0.37899  Biso   1.000  C
  C240     1.0000 0.73667  0.57492  0.41974  Biso   1.000  C
  C241     1.0000 0.57874  0.42440  0.51892  Biso   1.000  C
  C242     1.0000 0.95901  0.44946  0.16912  Biso   1.000  C
  C243     1.0000 0.43220  0.59937  0.64663  Biso   1.000  C
  C244     1.0000 0.07900  0.86190  0.13590  Biso   1.000  C
  C245     1.0000 0.10551  0.27575  0.14163  Biso   1.000  C
  C246     1.0000 0.99527  0.83497  0.18769  Biso   1.000  C
  C247     1.0000 0.04070  0.82110  0.15430  Biso   1.000  C
  C248     1.0000 0.95739  0.79730  0.20432  Biso   1.000  C
  C249     1.0000 0.01001  0.73110  0.15468  Biso   1.000  C
  C250     1.0000 0.53270  0.84630  0.12530  Biso   1.000  C
  C251     1.0000 0.82991  0.61731  0.32907  Biso   1.000  C
  C252     1.0000 0.99682  0.38904  0.15312  Biso   1.000  C
  C253     1.0000 0.59570  0.68660  0.50480  Biso   1.000  C
  C254     1.0000 0.73943  0.55880  0.35674  Biso   1.000  C
  C255     1.0000 0.54791  0.38301  0.47837  Biso   1.000  C
  C256     1.0000 0.58034  0.41503  0.45029  Biso   1.000  C
  C257     1.0000 0.05640  0.42203  0.19537  Biso   1.000  C
  C258     1.0000 0.59671  0.72146  0.47072  Biso   1.000  C
  C259     1.0000 0.37291  0.64469  0.66629  Biso   1.000  C
  C260     1.0000 0.04693  0.76960  0.13914  Biso   1.000  C
  C261     1.0000 0.32099  0.62522  0.68280  Biso   1.000  C
  C262     1.0000 0.38765  0.51554  0.66056  Biso   1.000  C
  C263     1.0000 0.60161  0.80468  0.14010  Biso   1.000  C
  C264     1.0000 0.09580  0.35948  0.18012  Biso   1.000  C
  C265     1.0000 0.51990  0.78163  0.53737  Biso   1.000  C
  C266     1.0000 0.66040  0.61709  0.65531  Biso   1.000  C
  C267     1.0000 0.55979  0.71432  0.53710  Biso   1.000  C
  C268     1.0000 0.54666  0.38796  0.51412  Biso   1.000  C
  C269     1.0000 0.96336  0.74819  0.18749  Biso   1.000  C
  C270     1.0000 0.76190  0.56483  0.31957  Biso   1.000  C
  C271     1.0000 0.84772  0.46627  0.49981  Biso   1.000  C
  C272     1.0000 0.87644  0.44192  0.53040  Biso   1.000  C
  C273     1.0000 0.95114  0.41111  0.52701  Biso   1.000  C
  C274     1.0000 0.99703  0.40466  0.49304  Biso   1.000  C
  C275     1.0000 0.96827  0.42901  0.46245  Biso   1.000  C
  C276     1.0000 0.89358  0.45980  0.46584  Biso   1.000  C
  N37      1.0000 0.16897  0.95485  0.05721  Biso   1.000  N
  N38      1.0000 0.37117  0.98727  0.00443  Biso   1.000  N
  N39      1.0000 0.20962  0.98794  0.04332  Biso   1.000  N
  N40      1.0000 0.22198  0.99574  0.00770  Biso   1.000  N
  N41      1.0000 0.36094  0.97564  0.04052  Biso   1.000  N
  N42      1.0000 0.42384  0.93892  0.04974  Biso   1.000  N
  N43      1.0000 0.36940  0.00081  0.12159  Biso   1.000  N
  N44      1.0000 0.30704  0.04138  0.11246  Biso   1.000  N
  N45      1.0000 0.27652  0.10093  0.12683  Biso   1.000  N
  N46      1.0000 0.12799  0.11400  0.13102  Biso   1.000  N
  N47      1.0000 0.15398  0.05771  0.11613  Biso   1.000  N
  N48      1.0000 0.11346  0.02477  0.12931  Biso   1.000  N
  N49      1.0000 0.23669  0.89075  0.11827  Biso   1.000  N
  N50      1.0000 0.28301  0.91918  0.10720  Biso   1.000  N
  N51      1.0000 0.34677  0.88158  0.11448  Biso   1.000  N
  N52      1.0000 0.23706  0.12140  0.01198  Biso   1.000  N
  N53      1.0000 0.22887  0.11307  0.04739  Biso   1.000  N
  N54      1.0000 0.19941  0.16834  0.06300  Biso   1.000  N
  N55      1.0000 0.81897  0.45485  0.55721  Biso   1.000  N
  N56      1.0000 0.63713  0.48727  0.50443  Biso   1.000  N
  N57      1.0000 0.75912  0.48794  0.54332  Biso   1.000  N
  N58      1.0000 0.77458  0.49574  0.50770  Biso   1.000  N
  N59      1.0000 0.62290  0.47564  0.54052  Biso   1.000  N
  N60      1.0000 0.58750  0.43892  0.54974  Biso   1.000  N
  N61      1.0000 0.50820  0.50081  0.62159  Biso   1.000  N
  N62      1.0000 0.53912  0.54138  0.61246  Biso   1.000  N
  N63      1.0000 0.49572  0.60093  0.62683  Biso   1.000  N
  N64      1.0000 0.62699  0.61400  0.63102  Biso   1.000  N
  N65      1.0000 0.67218  0.55771  0.61613  Biso   1.000  N
  N66      1.0000 0.73246  0.52477  0.62931  Biso   1.000  N
  N67      1.0000 0.75429  0.39075  0.61827  Biso   1.000  N
  N68      1.0000 0.69061  0.41918  0.60720  Biso   1.000  N
  N69      1.0000 0.65717  0.38158  0.61448  Biso   1.000  N
  N70      1.0000 0.62956  0.62140  0.51198  Biso   1.000  N
  N71      1.0000 0.61067  0.61307  0.54739  Biso   1.000  N
  N72      1.0000 0.56925  0.66834  0.56300  Biso   1.000  N
  O25      1.0000 0.86616  0.40603  0.65385  Biso   1.000  O
  O26      1.0000 0.92621  0.35254  0.60664  Biso   1.000  O
  O27      1.0000 0.21012  0.09760  0.93896  Biso   1.000  O
  O28      1.0000 0.32752  0.04081  0.93097  Biso   1.000  O
  O29      1.0000 0.52342  0.35027  0.59669  Biso   1.000  O
  O30      1.0000 0.50830  0.36438  0.64982  Biso   1.000  O
  O31      1.0000 0.53284  0.76745  0.62047  Biso   1.000  O
  O32      1.0000 0.45380  0.73644  0.65116  Biso   1.000  O
  O33      1.0000 0.31157  0.02427  0.70385  Biso   1.000  O
  O34      1.0000 0.30494  0.09924  0.76950  Biso   1.000  O
  O35      1.0000 0.33486  0.19741  0.67151  Biso   1.000  O
  O36      1.0000 0.15471  0.21793  0.70645  Biso   1.000  O
  O37      1.0000 0.07396  0.90603  0.15385  Biso   1.000  O
  O38      1.0000 0.11461  0.85254  0.10664  Biso   1.000  O
  O39      1.0000 0.75332  0.59760  0.43896  Biso   1.000  O
  O40      1.0000 0.70070  0.54081  0.43097  Biso   1.000  O
  O41      1.0000 0.52962  0.85027  0.09669  Biso   1.000  O
  O42      1.0000 0.47750  0.86438  0.14982  Biso   1.000  O
  O43      1.0000 0.07924  0.26745  0.12047  Biso   1.000  O
  O44      1.0000 0.15860  0.23644  0.15116  Biso   1.000  O
  O45      1.0000 0.96031  0.52427  0.20385  Biso   1.000  O
  O46      1.0000 0.82632  0.59924  0.26950  Biso   1.000  O
  O47      1.0000 0.79622  0.69741  0.17151  Biso   1.000  O
  O48      1.0000 0.92091  0.71793  0.20645  Biso   1.000  O
