data_image0
_cell_length_a       24.789
_cell_length_b       26.0192
_cell_length_c       26.0192
_cell_angle_alpha    96.0428
_cell_angle_beta     116.159
_cell_angle_gamma    116.159

_symmetry_space_group_name_H-M    P 1
_symmetry_int_tables_number       1

loop_
  _symmetry_equiv_pos_as_xyz
  'x, y, z'

loop_
  _atom_site_label
  _atom_site_occupancy
  _atom_site_fract_x
  _atom_site_fract_y
  _atom_site_fract_z
  _atom_site_thermal_displace_type
  _atom_site_B_iso_or_equiv
  _atom_site_type_symbol
  Zn1      1.0000 0.66400  0.56850  0.95070  Biso   1.000  Zn
  Zn2      1.0000 0.55530  0.40450  0.89710  Biso   1.000  Zn
  Zn3      1.0000 0.78200  0.62710  0.11510  Biso   1.000  Zn
  Zn4      1.0000 0.76470  0.61380  0.88180  Biso   1.000  Zn
  Zn5      1.0000 0.55130  0.62680  0.90920  Biso   1.000  Zn
  H1       1.0000 0.23610  0.82800  0.76860  Biso   1.000  H
  H2       1.0000 0.26850  0.85260  0.72980  Biso   1.000  H
  H3       1.0000 0.12340  0.76770  0.60250  Biso   1.000  H
  H4       1.0000 0.18320  0.83520  0.61720  Biso   1.000  H
  H5       1.0000 0.21290  0.91000  0.76180  Biso   1.000  H
  H6       1.0000 0.15410  0.90490  0.69930  Biso   1.000  H
  H7       1.0000 0.55020  0.76210  0.09870  Biso   1.000  H
  H8       1.0000 0.56580  0.74720  0.15860  Biso   1.000  H
  H9       1.0000 0.62260  0.80920  0.16180  Biso   1.000  H
  H10      1.0000 0.37400  0.63830  0.76550  Biso   1.000  H
  H11      1.0000 0.32480  0.81530  0.80370  Biso   1.000  H
  H12      1.0000 0.37420  0.52020  0.82580  Biso   1.000  H
  H13      1.0000 0.37990  0.34160  0.82320  Biso   1.000  H
  H14      1.0000 0.67870  0.77900  0.24840  Biso   1.000  H
  H15      1.0000 0.69500  0.72800  0.25960  Biso   1.000  H
  H16      1.0000 0.75470  0.79210  0.26890  Biso   1.000  H
  H17      1.0000 0.25870  0.63040  0.67940  Biso   1.000  H
  H18      1.0000 0.43120  0.82190  0.89150  Biso   1.000  H
  H19      1.0000 0.51150  0.77900  0.92580  Biso   1.000  H
  H20      1.0000 0.18100  0.66370  0.64570  Biso   1.000  H
  H21      1.0000 0.25300  0.00480  0.78860  Biso   1.000  H
  H22      1.0000 0.09590  0.79920  0.41920  Biso   1.000  H
  H23      1.0000 0.44900  0.20750  0.79250  Biso   1.000  H
  H24      1.0000 0.63610  0.31340  0.14720  Biso   1.000  H
  H25      1.0000 0.56190  0.29610  0.09190  Biso   1.000  H
  H26      1.0000 0.61090  0.28160  0.07940  Biso   1.000  H
  H27      1.0000 0.98880  0.72670  0.68870  Biso   1.000  H
  H28      1.0000 0.96660  0.75350  0.51090  Biso   1.000  H
  H29      1.0000 0.14900  0.84140  0.52420  Biso   1.000  H
  H30      1.0000 0.32850  0.99950  0.67870  Biso   1.000  H
  H31      1.0000 0.08420  0.74860  0.68020  Biso   1.000  H
  H32      1.0000 0.06310  0.79740  0.67280  Biso   1.000  H
  H33      1.0000 0.29230  0.11190  0.85130  Biso   1.000  H
  H34      1.0000 0.40320  0.10430  0.71910  Biso   1.000  H
  H35      1.0000 0.37780  0.22470  0.89970  Biso   1.000  H
  H36      1.0000 0.77190  0.45910  0.24690  Biso   1.000  H
  H37      1.0000 0.69510  0.40300  0.22320  Biso   1.000  H
  H38      1.0000 0.74860  0.39210  0.21490  Biso   1.000  H
  H39      1.0000 0.19870  0.30890  0.73350  Biso   1.000  H
  H40      1.0000 0.23700  0.27790  0.72390  Biso   1.000  H
  H41      1.0000 0.23530  0.28620  0.78360  Biso   1.000  H
  H42      1.0000 0.14960  0.83220  0.85360  Biso   1.000  H
  H43      1.0000 0.20230  0.37100  0.74120  Biso   1.000  H
  H44      1.0000 0.23100  0.43460  0.78700  Biso   1.000  H
  H45      1.0000 0.23090  0.43070  0.72650  Biso   1.000  H
  H46      1.0000 0.07600  0.79710  0.90110  Biso   1.000  H
  H47      1.0000 0.67080  0.34160  0.69060  Biso   1.000  H
  H48      1.0000 0.68110  0.40040  0.67480  Biso   1.000  H
  H49      1.0000 0.74550  0.40440  0.73080  Biso   1.000  H
  H50      1.0000 0.57510  0.25980  0.73540  Biso   1.000  H
  H51      1.0000 0.57600  0.28110  0.68150  Biso   1.000  H
  H52      1.0000 0.64480  0.28770  0.73430  Biso   1.000  H
  H53      1.0000 0.67820  0.79000  0.72080  Biso   1.000  H
  H54      1.0000 0.75210  0.79950  0.76710  Biso   1.000  H
  H55      1.0000 0.69540  0.74150  0.70550  Biso   1.000  H
  H56      1.0000 0.59830  0.79330  0.72730  Biso   1.000  H
  H57      1.0000 0.53060  0.74660  0.72640  Biso   1.000  H
  H58      1.0000 0.59450  0.80620  0.78540  Biso   1.000  H
  H59      1.0000 0.12420  0.80160  0.10660  Biso   1.000  H
  H60      1.0000 0.08420  0.75230  0.04110  Biso   1.000  H
  H61      1.0000 0.07230  0.80640  0.04780  Biso   1.000  H
  H62      1.0000 0.12520  0.79810  0.20090  Biso   1.000  H
  H63      1.0000 0.07560  0.80680  0.21780  Biso   1.000  H
  H64      1.0000 0.07840  0.74780  0.21740  Biso   1.000  H
  H65      1.0000 0.58260  0.33350  0.81010  Biso   1.000  H
  H66      1.0000 0.72560  0.49540  0.77580  Biso   1.000  H
  H67      1.0000 0.56440  0.71090  0.81950  Biso   1.000  H
  H68      1.0000 0.73320  0.70040  0.79360  Biso   1.000  H
  H69      1.0000 0.95990  0.72120  0.16780  Biso   1.000  H
  H70      1.0000 0.94240  0.69540  0.98060  Biso   1.000  H
  H71      1.0000 0.56490  0.70510  0.03050  Biso   1.000  H
  H72      1.0000 0.74880  0.70980  0.19700  Biso   1.000  H
  H73      1.0000 0.79270  0.65230  0.30010  Biso   1.000  H
  H74      1.0000 0.85210  0.69170  0.40670  Biso   1.000  H
  H75      1.0000 0.98210  0.73160  0.31480  Biso   1.000  H
  H76      1.0000 0.96380  0.72590  0.87970  Biso   1.000  H
  H77      1.0000 0.86010  0.65160  0.66820  Biso   1.000  H
  H78      1.0000 0.79070  0.61260  0.70880  Biso   1.000  H
  H79      1.0000 0.77080  0.51850  0.18390  Biso   1.000  H
  H80      1.0000 0.57900  0.34320  0.00920  Biso   1.000  H
  C1       1.0000 0.16400  0.83000  0.69000  Biso   1.000  C
  C2       1.0000 0.37900  0.12300  0.78100  Biso   1.000  C
  C3       1.0000 0.22600  0.82300  0.72700  Biso   1.000  C
  C4       1.0000 0.14200  0.81100  0.61900  Biso   1.000  C
  C5       1.0000 0.19200  0.89800  0.71800  Biso   1.000  C
  C6       1.0000 0.44400  0.70200  0.85200  Biso   1.000  C
  C7       1.0000 0.43600  0.43200  0.84800  Biso   1.000  C
  C8       1.0000 0.58700  0.76700  0.13700  Biso   1.000  C
  C9       1.0000 0.38400  0.67300  0.79100  Biso   1.000  C
  C10      1.0000 0.31300  0.77800  0.78000  Biso   1.000  C
  C11      1.0000 0.37300  0.48400  0.82400  Biso   1.000  C
  C12      1.0000 0.37700  0.37600  0.82000  Biso   1.000  C
  C13      1.0000 0.43400  0.48100  0.85100  Biso   1.000  C
  C14      1.0000 0.70400  0.76100  0.24500  Biso   1.000  C
  C15      1.0000 0.27100  0.66600  0.70600  Biso   1.000  C
  C16      1.0000 0.35700  0.75300  0.80500  Biso   1.000  C
  C17      1.0000 0.41900  0.78600  0.86600  Biso   1.000  C
  C18      1.0000 0.46800  0.75800  0.88800  Biso   1.000  C
  C19      1.0000 0.25500  0.74500  0.72500  Biso   1.000  C
  C20      1.0000 0.22500  0.68500  0.68300  Biso   1.000  C
  C21      1.0000 0.29100  0.99500  0.73300  Biso   1.000  C
  C22      1.0000 0.32700  0.09500  0.79700  Biso   1.000  C
  C23      1.0000 0.28300  0.02600  0.77600  Biso   1.000  C
  C24      1.0000 0.05900  0.79900  0.52500  Biso   1.000  C
  C25      1.0000 0.06800  0.79000  0.43600  Biso   1.000  C
  C26      1.0000 0.41900  0.18800  0.80600  Biso   1.000  C
  C27      1.0000 0.42000  0.22300  0.84700  Biso   1.000  C
  C28      1.0000 0.61100  0.31000  0.10600  Biso   1.000  C
  C29      1.0000 0.00600  0.74000  0.73000  Biso   1.000  C
  C30      1.0000 0.99200  0.76200  0.49200  Biso   1.000  C
  C31      1.0000 0.07300  0.78000  0.76800  Biso   1.000  C
  C32      1.0000 0.09900  0.81400  0.49800  Biso   1.000  C
  C33      1.0000 0.33300  0.69500  0.76300  Biso   1.000  C
  C34      1.0000 0.84200  0.65800  0.22400  Biso   1.000  C
  C35      1.0000 0.33100  0.02300  0.71100  Biso   1.000  C
  C36      1.0000 0.10200  0.79200  0.69600  Biso   1.000  C
  C37      1.0000 0.82000  0.63700  0.82500  Biso   1.000  C
  C38      1.0000 0.31200  0.42700  0.79300  Biso   1.000  C
  C39      1.0000 0.32500  0.13100  0.84100  Biso   1.000  C
  C40      1.0000 0.37500  0.08600  0.73400  Biso   1.000  C
  C41      1.0000 0.37600  0.20000  0.87000  Biso   1.000  C
  C42      1.0000 0.73200  0.41900  0.21500  Biso   1.000  C
  C43      1.0000 0.23800  0.30400  0.75400  Biso   1.000  C
  C44      1.0000 0.30900  0.36700  0.78700  Biso   1.000  C
  C45      1.0000 0.10100  0.80200  0.82800  Biso   1.000  C
  C46      1.0000 0.23700  0.41500  0.75900  Biso   1.000  C
  C47      1.0000 0.05700  0.78100  0.85900  Biso   1.000  C
  C48      1.0000 0.69500  0.38600  0.70800  Biso   1.000  C
  C49      1.0000 0.60400  0.28900  0.72500  Biso   1.000  C
  C50      1.0000 0.70200  0.77000  0.73800  Biso   1.000  C
  C51      1.0000 0.58200  0.77500  0.75100  Biso   1.000  C
  C52      1.0000 0.08000  0.77800  0.06600  Biso   1.000  C
  C53      1.0000 0.08000  0.77800  0.19800  Biso   1.000  C
  C54      1.0000 0.67900  0.47400  0.82400  Biso   1.000  C
  C55      1.0000 0.63600  0.42600  0.83400  Biso   1.000  C
  C56      1.0000 0.61100  0.36630  0.80370  Biso   1.000  C
  C57      1.0000 0.62900  0.35400  0.76200  Biso   1.000  C
  C58      1.0000 0.67200  0.40300  0.75100  Biso   1.000  C
  C59      1.0000 0.69700  0.46300  0.78300  Biso   1.000  C
  C60      1.0000 0.62800  0.67700  0.84300  Biso   1.000  C
  C61      1.0000 0.59800  0.70900  0.81500  Biso   1.000  C
  C62      1.0000 0.61900  0.73700  0.77900  Biso   1.000  C
  C63      1.0000 0.67000  0.73400  0.77000  Biso   1.000  C
  C64      1.0000 0.69900  0.70300  0.79900  Biso   1.000  C
  C65      1.0000 0.67900  0.67500  0.83500  Biso   1.000  C
  C66      1.0000 0.88900  0.68100  0.07500  Biso   1.000  C
  C67      1.0000 0.95600  0.71600  0.13000  Biso   1.000  C
  C68      1.0000 0.01800  0.74300  0.12900  Biso   1.000  C
  C69      1.0000 0.01300  0.73500  0.07300  Biso   1.000  C
  C70      1.0000 0.94600  0.70000  0.01800  Biso   1.000  C
  C71      1.0000 0.88400  0.67300  0.01900  Biso   1.000  C
  C72      1.0000 0.46700  0.29400  0.87200  Biso   1.000  C
  C73      1.0000 0.69100  0.68100  0.10300  Biso   1.000  C
  C74      1.0000 0.63600  0.68000  0.05400  Biso   1.000  C
  C75      1.0000 0.60200  0.70600  0.06400  Biso   1.000  C
  C76      1.0000 0.62300  0.73400  0.12400  Biso   1.000  C
  C77      1.0000 0.67800  0.73500  0.17300  Biso   1.000  C
  C78      1.0000 0.71200  0.70860  0.16340  Biso   1.000  C
  C79      1.0000 0.88100  0.68800  0.29600  Biso   1.000  C
  C80      1.0000 0.84300  0.67600  0.32400  Biso   1.000  C
  C81      1.0000 0.87800  0.70000  0.38800  Biso   1.000  C
  C82      1.0000 0.95300  0.73500  0.42500  Biso   1.000  C
  C83      1.0000 0.99200  0.74700  0.39700  Biso   1.000  C
  C84      1.0000 0.95600  0.72300  0.33300  Biso   1.000  C
  C85      1.0000 0.87000  0.66600  0.79800  Biso   1.000  C
  C86      1.0000 0.94300  0.71100  0.83700  Biso   1.000  C
  C87      1.0000 0.98500  0.73500  0.81300  Biso   1.000  C
  C88      1.0000 0.95400  0.71200  0.75000  Biso   1.000  C
  C89      1.0000 0.88100  0.66700  0.71100  Biso   1.000  C
  C90      1.0000 0.83900  0.64300  0.73500  Biso   1.000  C
  C91      1.0000 0.48000  0.66700  0.87500  Biso   1.000  C
  C92      1.0000 0.70300  0.48830  0.09170  Biso   1.000  C
  C93      1.0000 0.73200  0.48300  0.14900  Biso   1.000  C
  C94      1.0000 0.70400  0.42610  0.15390  Biso   1.000  C
  C95      1.0000 0.64700  0.37400  0.10200  Biso   1.000  C
  C96      1.0000 0.61700  0.37800  0.04400  Biso   1.000  C
  C97      1.0000 0.64600  0.43520  0.03880  Biso   1.000  C
  N1       1.0000 0.65700  0.62300  0.89300  Biso   1.000  N
  N2       1.0000 0.66600  0.63000  0.01600  Biso   1.000  N
  N3       1.0000 0.70900  0.65000  0.07800  Biso   1.000  N
  N4       1.0000 0.82300  0.64700  0.06700  Biso   1.000  N
  N5       1.0000 0.78300  0.62500  0.00500  Biso   1.000  N
  N6       1.0000 0.66800  0.50800  0.00600  Biso   1.000  N
  N7       1.0000 0.62300  0.44600  0.98400  Biso   1.000  N
  N8       1.0000 0.62100  0.44500  0.86700  Biso   1.000  N
  N9       1.0000 0.66200  0.50800  0.89000  Biso   1.000  N
  N10      1.0000 0.50600  0.44800  0.87800  Biso   1.000  N
  N11      1.0000 0.54400  0.50900  0.89900  Biso   1.000  N
  N12      1.0000 0.62100  0.64700  0.99900  Biso   1.000  N
  N13      1.0000 0.69900  0.52500  0.86100  Biso   1.000  N
  N14      1.0000 0.69600  0.63800  0.86600  Biso   1.000  N
  N15      1.0000 0.61900  0.64900  0.88300  Biso   1.000  N
  N16      1.0000 0.50600  0.53500  0.88300  Biso   1.000  N
  N17      1.0000 0.81600  0.64000  0.97200  Biso   1.000  N
  N18      1.0000 0.71600  0.53000  0.06000  Biso   1.000  N
  O1       1.0000 0.09100  0.82300  0.58900  Biso   1.000  O
  O2       1.0000 0.24500  0.93200  0.70600  Biso   1.000  O
  O3       1.0000 0.20600  0.76400  0.69800  Biso   1.000  O
  O4       1.0000 0.45800  0.62400  0.84000  Biso   1.000  O
  O5       1.0000 0.77800  0.62800  0.20000  Biso   1.000  O
  O6       1.0000 0.87600  0.67100  0.20100  Biso   1.000  O
  O7       1.0000 0.84100  0.65700  0.87100  Biso   1.000  O
  O8       1.0000 0.75000  0.60000  0.77400  Biso   1.000  O
  O9       1.0000 0.12300  0.80900  0.75500  Biso   1.000  O
  O10      1.0000 0.53600  0.70500  0.92300  Biso   1.000  O
  O11      1.0000 0.46300  0.32400  0.91000  Biso   1.000  O
  O12      1.0000 0.51400  0.31600  0.85800  Biso   1.000  O
  Zn6      1.0000 0.33600  0.04930  0.43150  Biso   1.000  Zn
  Zn7      1.0000 0.44470  0.10290  0.59550  Biso   1.000  Zn
  Zn8      1.0000 0.21800  0.88490  0.37290  Biso   1.000  Zn
  Zn9      1.0000 0.23530  0.11820  0.38620  Biso   1.000  Zn
  Zn10     1.0000 0.44870  0.09080  0.37320  Biso   1.000  Zn
  H81      1.0000 0.76390  0.23140  0.17200  Biso   1.000  H
  H82      1.0000 0.73150  0.27020  0.14740  Biso   1.000  H
  H83      1.0000 0.87660  0.39750  0.23230  Biso   1.000  H
  H84      1.0000 0.81680  0.38280  0.16480  Biso   1.000  H
  H85      1.0000 0.78710  0.23820  0.09000  Biso   1.000  H
  H86      1.0000 0.84590  0.30070  0.09510  Biso   1.000  H
  H87      1.0000 0.44980  0.90130  0.23790  Biso   1.000  H
  H88      1.0000 0.43420  0.84140  0.25280  Biso   1.000  H
  H89      1.0000 0.37740  0.83820  0.19080  Biso   1.000  H
  H90      1.0000 0.62600  0.23450  0.36170  Biso   1.000  H
  H91      1.0000 0.67520  0.19630  0.18470  Biso   1.000  H
  H92      1.0000 0.62580  0.17420  0.47980  Biso   1.000  H
  H93      1.0000 0.62010  0.17680  0.65840  Biso   1.000  H
  H94      1.0000 0.32130  0.75160  0.22100  Biso   1.000  H
  H95      1.0000 0.30500  0.74040  0.27200  Biso   1.000  H
  H96      1.0000 0.24530  0.73110  0.20790  Biso   1.000  H
  H97      1.0000 0.74130  0.32060  0.36960  Biso   1.000  H
  H98      1.0000 0.56880  0.10850  0.17810  Biso   1.000  H
  H99      1.0000 0.48850  0.07420  0.22100  Biso   1.000  H
  H100     1.0000 0.81900  0.35430  0.33630  Biso   1.000  H
  H101     1.0000 0.74700  0.21140  0.99520  Biso   1.000  H
  H102     1.0000 0.90410  0.58080  0.20080  Biso   1.000  H
  H103     1.0000 0.55100  0.20750  0.79250  Biso   1.000  H
  H104     1.0000 0.36390  0.85280  0.68660  Biso   1.000  H
  H105     1.0000 0.43810  0.90810  0.70390  Biso   1.000  H
  H106     1.0000 0.38910  0.92060  0.71840  Biso   1.000  H
  H107     1.0000 0.01120  0.31130  0.27330  Biso   1.000  H
  H108     1.0000 0.03340  0.48910  0.24650  Biso   1.000  H
  H109     1.0000 0.85100  0.47580  0.15860  Biso   1.000  H
  H110     1.0000 0.67150  0.32130  0.00050  Biso   1.000  H
  H111     1.0000 0.91580  0.31980  0.25140  Biso   1.000  H
  H112     1.0000 0.93690  0.32720  0.20260  Biso   1.000  H
  H113     1.0000 0.70770  0.14870  0.88810  Biso   1.000  H
  H114     1.0000 0.59680  0.28090  0.89570  Biso   1.000  H
  H115     1.0000 0.62220  0.10030  0.77530  Biso   1.000  H
  H116     1.0000 0.22810  0.75310  0.54090  Biso   1.000  H
  H117     1.0000 0.30490  0.77680  0.59700  Biso   1.000  H
  H118     1.0000 0.25140  0.78510  0.60790  Biso   1.000  H
  H119     1.0000 0.80130  0.26650  0.69110  Biso   1.000  H
  H120     1.0000 0.76300  0.27610  0.72210  Biso   1.000  H
  H121     1.0000 0.76470  0.21640  0.71380  Biso   1.000  H
  H122     1.0000 0.85040  0.14640  0.16780  Biso   1.000  H
  H123     1.0000 0.79770  0.25880  0.62900  Biso   1.000  H
  H124     1.0000 0.76900  0.21300  0.56540  Biso   1.000  H
  H125     1.0000 0.76910  0.27350  0.56930  Biso   1.000  H
  H126     1.0000 0.92400  0.09890  0.20290  Biso   1.000  H
  H127     1.0000 0.32920  0.30940  0.65840  Biso   1.000  H
  H128     1.0000 0.31890  0.32520  0.59960  Biso   1.000  H
  H129     1.0000 0.25450  0.26920  0.59560  Biso   1.000  H
  H130     1.0000 0.42490  0.26460  0.74020  Biso   1.000  H
  H131     1.0000 0.42400  0.31850  0.71890  Biso   1.000  H
  H132     1.0000 0.35520  0.26570  0.71230  Biso   1.000  H
  H133     1.0000 0.32180  0.27920  0.21000  Biso   1.000  H
  H134     1.0000 0.24790  0.23290  0.20050  Biso   1.000  H
  H135     1.0000 0.30460  0.29450  0.25850  Biso   1.000  H
  H136     1.0000 0.40170  0.27270  0.20670  Biso   1.000  H
  H137     1.0000 0.46940  0.27360  0.25340  Biso   1.000  H
  H138     1.0000 0.40550  0.21460  0.19380  Biso   1.000  H
  H139     1.0000 0.87580  0.89340  0.19840  Biso   1.000  H
  H140     1.0000 0.91580  0.95890  0.24770  Biso   1.000  H
  H141     1.0000 0.92770  0.95220  0.19360  Biso   1.000  H
  H142     1.0000 0.87480  0.79910  0.20190  Biso   1.000  H
  H143     1.0000 0.92440  0.78220  0.19320  Biso   1.000  H
  H144     1.0000 0.92160  0.78260  0.25220  Biso   1.000  H
  H145     1.0000 0.41740  0.18990  0.66650  Biso   1.000  H
  H146     1.0000 0.27440  0.22420  0.50460  Biso   1.000  H
  H147     1.0000 0.43560  0.18050  0.28910  Biso   1.000  H
  H148     1.0000 0.26680  0.20640  0.29960  Biso   1.000  H
  H149     1.0000 0.04010  0.83220  0.27880  Biso   1.000  H
  H150     1.0000 0.05760  0.01940  0.30460  Biso   1.000  H
  H151     1.0000 0.43510  0.96950  0.29490  Biso   1.000  H
  H152     1.0000 0.25120  0.80300  0.29020  Biso   1.000  H
  H153     1.0000 0.20730  0.69990  0.34770  Biso   1.000  H
  H154     1.0000 0.14790  0.59330  0.30830  Biso   1.000  H
  H155     1.0000 0.01790  0.68520  0.26840  Biso   1.000  H
  H156     1.0000 0.03620  0.12030  0.27410  Biso   1.000  H
  H157     1.0000 0.13990  0.33180  0.34840  Biso   1.000  H
  H158     1.0000 0.20930  0.29120  0.38740  Biso   1.000  H
  H159     1.0000 0.22920  0.81610  0.48150  Biso   1.000  H
  H160     1.0000 0.42100  0.99080  0.65680  Biso   1.000  H
  C98      1.0000 0.83600  0.31000  0.17000  Biso   1.000  C
  C99      1.0000 0.62100  0.21900  0.87700  Biso   1.000  C
  C100     1.0000 0.77400  0.27300  0.17700  Biso   1.000  C
  C101     1.0000 0.85800  0.38100  0.18900  Biso   1.000  C
  C102     1.0000 0.80800  0.28200  0.10200  Biso   1.000  C
  C103     1.0000 0.55600  0.14800  0.29800  Biso   1.000  C
  C104     1.0000 0.56400  0.15200  0.56800  Biso   1.000  C
  C105     1.0000 0.41300  0.86300  0.23300  Biso   1.000  C
  C106     1.0000 0.61600  0.20900  0.32700  Biso   1.000  C
  C107     1.0000 0.68700  0.22000  0.22200  Biso   1.000  C
  C108     1.0000 0.62700  0.17600  0.51600  Biso   1.000  C
  C109     1.0000 0.62300  0.18000  0.62400  Biso   1.000  C
  C110     1.0000 0.56600  0.14900  0.51900  Biso   1.000  C
  C111     1.0000 0.29600  0.75500  0.23900  Biso   1.000  C
  C112     1.0000 0.72900  0.29400  0.33400  Biso   1.000  C
  C113     1.0000 0.64300  0.19500  0.24700  Biso   1.000  C
  C114     1.0000 0.58100  0.13400  0.21400  Biso   1.000  C
  C115     1.0000 0.53200  0.11200  0.24200  Biso   1.000  C
  C116     1.0000 0.74500  0.27500  0.25500  Biso   1.000  C
  C117     1.0000 0.77500  0.31700  0.31500  Biso   1.000  C
  C118     1.0000 0.70900  0.26700  0.00500  Biso   1.000  C
  C119     1.0000 0.67300  0.20300  0.90500  Biso   1.000  C
  C120     1.0000 0.71700  0.22400  0.97400  Biso   1.000  C
  C121     1.0000 0.94100  0.47500  0.20100  Biso   1.000  C
  C122     1.0000 0.93200  0.56400  0.21000  Biso   1.000  C
  C123     1.0000 0.58100  0.19400  0.81200  Biso   1.000  C
  C124     1.0000 0.58000  0.15300  0.77700  Biso   1.000  C
  C125     1.0000 0.38900  0.89400  0.69000  Biso   1.000  C
  C126     1.0000 0.99400  0.27000  0.26000  Biso   1.000  C
  C127     1.0000 0.00800  0.50800  0.23800  Biso   1.000  C
  C128     1.0000 0.92700  0.23200  0.22000  Biso   1.000  C
  C129     1.0000 0.90100  0.50200  0.18600  Biso   1.000  C
  C130     1.0000 0.66700  0.23700  0.30500  Biso   1.000  C
  C131     1.0000 0.15800  0.77600  0.34200  Biso   1.000  C
  C132     1.0000 0.66900  0.28900  0.97700  Biso   1.000  C
  C133     1.0000 0.89800  0.30400  0.20800  Biso   1.000  C
  C134     1.0000 0.18000  0.17500  0.36300  Biso   1.000  C
  C135     1.0000 0.68800  0.20700  0.57300  Biso   1.000  C
  C136     1.0000 0.67500  0.15900  0.86900  Biso   1.000  C
  C137     1.0000 0.62500  0.26600  0.91400  Biso   1.000  C
  C138     1.0000 0.62400  0.13000  0.80000  Biso   1.000  C
  C139     1.0000 0.26800  0.78500  0.58100  Biso   1.000  C
  C140     1.0000 0.76200  0.24600  0.69600  Biso   1.000  C
  C141     1.0000 0.69100  0.21300  0.63300  Biso   1.000  C
  C142     1.0000 0.89900  0.17200  0.19800  Biso   1.000  C
  C143     1.0000 0.76300  0.24100  0.58500  Biso   1.000  C
  C144     1.0000 0.94300  0.14100  0.21900  Biso   1.000  C
  C145     1.0000 0.30500  0.29200  0.61400  Biso   1.000  C
  C146     1.0000 0.39600  0.27500  0.71100  Biso   1.000  C
  C147     1.0000 0.29800  0.26200  0.23000  Biso   1.000  C
  C148     1.0000 0.41800  0.24900  0.22500  Biso   1.000  C
  C149     1.0000 0.92000  0.93400  0.22200  Biso   1.000  C
  C150     1.0000 0.92000  0.80200  0.22200  Biso   1.000  C
  C151     1.0000 0.32100  0.17600  0.52600  Biso   1.000  C
  C152     1.0000 0.36400  0.16600  0.57400  Biso   1.000  C
  C153     1.0000 0.38900  0.19630  0.63370  Biso   1.000  C
  C154     1.0000 0.37100  0.23800  0.64600  Biso   1.000  C
  C155     1.0000 0.32800  0.24900  0.59700  Biso   1.000  C
  C156     1.0000 0.30300  0.21700  0.53700  Biso   1.000  C
  C157     1.0000 0.37200  0.15700  0.32300  Biso   1.000  C
  C158     1.0000 0.40200  0.18500  0.29100  Biso   1.000  C
  C159     1.0000 0.38100  0.22100  0.26300  Biso   1.000  C
  C160     1.0000 0.33000  0.23000  0.26600  Biso   1.000  C
  C161     1.0000 0.30100  0.20100  0.29700  Biso   1.000  C
  C162     1.0000 0.32100  0.16500  0.32500  Biso   1.000  C
  C163     1.0000 0.11100  0.92500  0.31900  Biso   1.000  C
  C164     1.0000 0.04400  0.87000  0.28400  Biso   1.000  C
  C165     1.0000 0.98200  0.87100  0.25700  Biso   1.000  C
  C166     1.0000 0.98700  0.92700  0.26500  Biso   1.000  C
  C167     1.0000 0.05400  0.98200  0.30000  Biso   1.000  C
  C168     1.0000 0.11600  0.98100  0.32700  Biso   1.000  C
  C169     1.0000 0.53300  0.12800  0.70600  Biso   1.000  C
  C170     1.0000 0.30900  0.89700  0.31900  Biso   1.000  C
  C171     1.0000 0.36400  0.94600  0.32000  Biso   1.000  C
  C172     1.0000 0.39800  0.93600  0.29400  Biso   1.000  C
  C173     1.0000 0.37700  0.87600  0.26600  Biso   1.000  C
  C174     1.0000 0.32200  0.82700  0.26500  Biso   1.000  C
  C175     1.0000 0.28800  0.83660  0.29140  Biso   1.000  C
  C176     1.0000 0.11900  0.70400  0.31200  Biso   1.000  C
  C177     1.0000 0.15700  0.67600  0.32400  Biso   1.000  C
  C178     1.0000 0.12200  0.61200  0.30000  Biso   1.000  C
  C179     1.0000 0.04700  0.57500  0.26500  Biso   1.000  C
  C180     1.0000 0.00800  0.60300  0.25300  Biso   1.000  C
  C181     1.0000 0.04400  0.66700  0.27700  Biso   1.000  C
  C182     1.0000 0.13000  0.20200  0.33400  Biso   1.000  C
  C183     1.0000 0.05700  0.16300  0.28900  Biso   1.000  C
  C184     1.0000 0.01500  0.18700  0.26500  Biso   1.000  C
  C185     1.0000 0.04600  0.25000  0.28800  Biso   1.000  C
  C186     1.0000 0.11900  0.28900  0.33300  Biso   1.000  C
  C187     1.0000 0.16100  0.26500  0.35700  Biso   1.000  C
  C188     1.0000 0.52000  0.12500  0.33300  Biso   1.000  C
  C189     1.0000 0.29700  0.90830  0.51170  Biso   1.000  C
  C190     1.0000 0.26800  0.85100  0.51700  Biso   1.000  C
  C191     1.0000 0.29600  0.84610  0.57390  Biso   1.000  C
  C192     1.0000 0.35300  0.89800  0.62600  Biso   1.000  C
  C193     1.0000 0.38300  0.95600  0.62200  Biso   1.000  C
  C194     1.0000 0.35400  0.96120  0.56480  Biso   1.000  C
  N19      1.0000 0.34300  0.10700  0.37700  Biso   1.000  N
  N20      1.0000 0.33400  0.98400  0.37000  Biso   1.000  N
  N21      1.0000 0.29100  0.92200  0.35000  Biso   1.000  N
  N22      1.0000 0.17700  0.93300  0.35300  Biso   1.000  N
  N23      1.0000 0.21700  0.99500  0.37500  Biso   1.000  N
  N24      1.0000 0.33200  0.99400  0.49200  Biso   1.000  N
  N25      1.0000 0.37700  0.01600  0.55400  Biso   1.000  N
  N26      1.0000 0.37900  0.13300  0.55500  Biso   1.000  N
  N27      1.0000 0.33800  0.11000  0.49200  Biso   1.000  N
  N28      1.0000 0.49400  0.12200  0.55200  Biso   1.000  N
  N29      1.0000 0.45600  0.10100  0.49100  Biso   1.000  N
  N30      1.0000 0.37900  0.00100  0.35300  Biso   1.000  N
  N31      1.0000 0.30100  0.13900  0.47500  Biso   1.000  N
  N32      1.0000 0.30400  0.13400  0.36200  Biso   1.000  N
  N33      1.0000 0.38100  0.11700  0.35100  Biso   1.000  N
  N34      1.0000 0.49400  0.11700  0.46500  Biso   1.000  N
  N35      1.0000 0.18400  0.02800  0.36000  Biso   1.000  N
  N36      1.0000 0.28400  0.94000  0.47000  Biso   1.000  N
  O13      1.0000 0.90900  0.41100  0.17700  Biso   1.000  O
  O14      1.0000 0.75500  0.29400  0.06800  Biso   1.000  O
  O15      1.0000 0.79400  0.30200  0.23600  Biso   1.000  O
  O16      1.0000 0.54200  0.16000  0.37600  Biso   1.000  O
  O17      1.0000 0.22200  0.80000  0.37200  Biso   1.000  O
  O18      1.0000 0.12400  0.79900  0.32900  Biso   1.000  O
  O19      1.0000 0.15900  0.12900  0.34300  Biso   1.000  O
  O20      1.0000 0.25000  0.22600  0.40000  Biso   1.000  O
  O21      1.0000 0.87700  0.24500  0.19100  Biso   1.000  O
  O22      1.0000 0.46400  0.07700  0.29500  Biso   1.000  O
  O23      1.0000 0.53700  0.09000  0.67600  Biso   1.000  O
  O24      1.0000 0.48600  0.14200  0.68400  Biso   1.000  O
