data_image0
_cell_length_a       12.172
_cell_length_b       16.3974
_cell_length_c       16.3974
_cell_angle_alpha    65.9106
_cell_angle_beta     75.674
_cell_angle_gamma    104.326

_symmetry_space_group_name_H-M    P 1
_symmetry_int_tables_number       1

loop_
  _symmetry_equiv_pos_as_xyz
  'x, y, z'

loop_
  _atom_site_label
  _atom_site_occupancy
  _atom_site_fract_x
  _atom_site_fract_y
  _atom_site_fract_z
  _atom_site_thermal_displace_type
  _atom_site_B_iso_or_equiv
  _atom_site_type_symbol
  Co1      1.0000 0.37748  0.40059  0.55276  Biso   1.000  Co
  Co2      1.0000 0.60413  0.35322  0.60697  Biso   1.000  Co
  Co3      1.0000 0.93024  0.55276  0.04665  Biso   1.000  Co
  Co4      1.0000 0.21110  0.60697  0.03981  Biso   1.000  Co
  Co5      1.0000 0.97689  0.04665  0.40059  Biso   1.000  Co
  Co6      1.0000 0.25091  0.03981  0.35322  Biso   1.000  Co
  Co7      1.0000 0.62252  0.59941  0.44724  Biso   1.000  Co
  Co8      1.0000 0.39587  0.64678  0.39303  Biso   1.000  Co
  Co9      1.0000 0.06976  0.44724  0.95335  Biso   1.000  Co
  Co10     1.0000 0.78890  0.39303  0.96019  Biso   1.000  Co
  Co11     1.0000 0.02311  0.95335  0.59941  Biso   1.000  Co
  Co12     1.0000 0.74909  0.96019  0.64678  Biso   1.000  Co
  H1       1.0000 0.24800  0.56370  0.23050  Biso   1.000  H
  H2       1.0000 0.43710  0.38610  0.14470  Biso   1.000  H
  H3       1.0000 0.20250  0.12170  0.59430  Biso   1.000  H
  H4       1.0000 0.16000  0.85030  0.71260  Biso   1.000  H
  H5       1.0000 0.43940  0.04380  0.70690  Biso   1.000  H
  H6       1.0000 0.42200  0.38320  0.29000  Biso   1.000  H
  H7       1.0000 0.32780  0.88500  0.74970  Biso   1.000  H
  H8       1.0000 0.35390  0.47530  0.04910  Biso   1.000  H
  H9       1.0000 0.47850  0.23050  0.20580  Biso   1.000  H
  H10      1.0000 0.58180  0.14470  0.46920  Biso   1.000  H
  H11      1.0000 0.79680  0.59430  0.28400  Biso   1.000  H
  H12      1.0000 0.87260  0.71260  0.43710  Biso   1.000  H
  H13      1.0000 0.14630  0.70690  0.24930  Biso   1.000  H
  H14      1.0000 0.71200  0.29000  0.32680  Biso   1.000  H
  H15      1.0000 0.07750  0.74970  0.36530  Biso   1.000  H
  H16      1.0000 0.40300  0.04910  0.47560  Biso   1.000  H
  H17      1.0000 0.68430  0.20580  0.56370  Biso   1.000  H
  H18      1.0000 0.05100  0.46920  0.38610  Biso   1.000  H
  H19      1.0000 0.08080  0.28400  0.12170  Biso   1.000  H
  H20      1.0000 0.30970  0.43710  0.85030  Biso   1.000  H
  H21      1.0000 0.39560  0.24930  0.04380  Biso   1.000  H
  H22      1.0000 0.03880  0.32680  0.38320  Biso   1.000  H
  H23      1.0000 0.44280  0.36530  0.88500  Biso   1.000  H
  H24      1.0000 0.87860  0.47560  0.47530  Biso   1.000  H
  H25      1.0000 0.75200  0.43630  0.76950  Biso   1.000  H
  H26      1.0000 0.56290  0.61390  0.85530  Biso   1.000  H
  H27      1.0000 0.79750  0.87830  0.40570  Biso   1.000  H
  H28      1.0000 0.84000  0.14970  0.28740  Biso   1.000  H
  H29      1.0000 0.56060  0.95620  0.29310  Biso   1.000  H
  H30      1.0000 0.57800  0.61680  0.71000  Biso   1.000  H
  H31      1.0000 0.67220  0.11500  0.25030  Biso   1.000  H
  H32      1.0000 0.64610  0.52470  0.95090  Biso   1.000  H
  H33      1.0000 0.52150  0.76950  0.79420  Biso   1.000  H
  H34      1.0000 0.41820  0.85530  0.53080  Biso   1.000  H
  H35      1.0000 0.20320  0.40570  0.71600  Biso   1.000  H
  H36      1.0000 0.12740  0.28740  0.56290  Biso   1.000  H
  H37      1.0000 0.85370  0.29310  0.75070  Biso   1.000  H
  H38      1.0000 0.28800  0.71000  0.67320  Biso   1.000  H
  H39      1.0000 0.92250  0.25030  0.63470  Biso   1.000  H
  H40      1.0000 0.59700  0.95090  0.52440  Biso   1.000  H
  H41      1.0000 0.31570  0.79420  0.43630  Biso   1.000  H
  H42      1.0000 0.94900  0.53080  0.61390  Biso   1.000  H
  H43      1.0000 0.91920  0.71600  0.87830  Biso   1.000  H
  H44      1.0000 0.69030  0.56290  0.14970  Biso   1.000  H
  H45      1.0000 0.60440  0.75070  0.95620  Biso   1.000  H
  H46      1.0000 0.96120  0.67320  0.61680  Biso   1.000  H
  H47      1.0000 0.55720  0.63470  0.11500  Biso   1.000  H
  H48      1.0000 0.12140  0.52440  0.52470  Biso   1.000  H
  C1       1.0000 0.33440  0.47460  0.27430  Biso   1.000  C
  C2       1.0000 0.28620  0.52720  0.21320  Biso   1.000  C
  C3       1.0000 0.33260  0.09960  0.64390  Biso   1.000  C
  C4       1.0000 0.39840  0.42150  0.16390  Biso   1.000  C
  C5       1.0000 0.23000  0.07390  0.62420  Biso   1.000  C
  C6       1.0000 0.20440  0.91440  0.69420  Biso   1.000  C
  C7       1.0000 0.32710  0.48000  0.36640  Biso   1.000  C
  C8       1.0000 0.37100  0.02880  0.69190  Biso   1.000  C
  C9       1.0000 0.39030  0.42000  0.24970  Biso   1.000  C
  C10      1.0000 0.39810  0.20520  0.61300  Biso   1.000  C
  C11      1.0000 0.30440  0.93460  0.71710  Biso   1.000  C
  C12      1.0000 0.34850  0.47550  0.10660  Biso   1.000  C
  C13      1.0000 0.60870  0.27430  0.25110  Biso   1.000  C
  C14      1.0000 0.49940  0.21320  0.25960  Biso   1.000  C
  C15      1.0000 0.97650  0.64390  0.25650  Biso   1.000  C
  C16      1.0000 0.56230  0.16390  0.41460  Biso   1.000  C
  C17      1.0000 0.85420  0.62420  0.30190  Biso   1.000  C
  C18      1.0000 0.89860  0.69420  0.39140  Biso   1.000  C
  C19      1.0000 0.69350  0.36640  0.15360  Biso   1.000  C
  C20      1.0000 0.06290  0.69190  0.27930  Biso   1.000  C
  C21      1.0000 0.64000  0.24970  0.33030  Biso   1.000  C
  C22      1.0000 0.01110  0.61300  0.18180  Biso   1.000  C
  C23      1.0000 0.02150  0.71710  0.34830  Biso   1.000  C
  C24      1.0000 0.45510  0.10660  0.41790  Biso   1.000  C
  C25      1.0000 0.85980  0.25110  0.47460  Biso   1.000  C
  C26      1.0000 0.75900  0.25960  0.52720  Biso   1.000  C
  C27      1.0000 0.23300  0.25650  0.09960  Biso   1.000  C
  C28      1.0000 0.97690  0.41460  0.42150  Biso   1.000  C
  C29      1.0000 0.15610  0.30190  0.07390  Biso   1.000  C
  C30      1.0000 0.29000  0.39140  0.91440  Biso   1.000  C
  C31      1.0000 0.84710  0.15360  0.48000  Biso   1.000  C
  C32      1.0000 0.34220  0.27930  0.02880  Biso   1.000  C
  C33      1.0000 0.97030  0.33030  0.42000  Biso   1.000  C
  C34      1.0000 0.19290  0.18180  0.20520  Biso   1.000  C
  C35      1.0000 0.36980  0.34830  0.93460  Biso   1.000  C
  C36      1.0000 0.87300  0.41790  0.47550  Biso   1.000  C
  C37      1.0000 0.66560  0.52540  0.72570  Biso   1.000  C
  C38      1.0000 0.71380  0.47280  0.78680  Biso   1.000  C
  C39      1.0000 0.66740  0.90040  0.35610  Biso   1.000  C
  C40      1.0000 0.60160  0.57850  0.83610  Biso   1.000  C
  C41      1.0000 0.77000  0.92610  0.37580  Biso   1.000  C
  C42      1.0000 0.79560  0.08560  0.30580  Biso   1.000  C
  C43      1.0000 0.67290  0.52000  0.63360  Biso   1.000  C
  C44      1.0000 0.62900  0.97120  0.30810  Biso   1.000  C
  C45      1.0000 0.60970  0.58000  0.75030  Biso   1.000  C
  C46      1.0000 0.60190  0.79480  0.38700  Biso   1.000  C
  C47      1.0000 0.69560  0.06540  0.28290  Biso   1.000  C
  C48      1.0000 0.65150  0.52450  0.89340  Biso   1.000  C
  C49      1.0000 0.39130  0.72570  0.74890  Biso   1.000  C
  C50      1.0000 0.50060  0.78680  0.74040  Biso   1.000  C
  C51      1.0000 0.02350  0.35610  0.74350  Biso   1.000  C
  C52      1.0000 0.43770  0.83610  0.58540  Biso   1.000  C
  C53      1.0000 0.14580  0.37580  0.69810  Biso   1.000  C
  C54      1.0000 0.10140  0.30580  0.60860  Biso   1.000  C
  C55      1.0000 0.30650  0.63360  0.84640  Biso   1.000  C
  C56      1.0000 0.93710  0.30810  0.72070  Biso   1.000  C
  C57      1.0000 0.36000  0.75030  0.66970  Biso   1.000  C
  C58      1.0000 0.98890  0.38700  0.81820  Biso   1.000  C
  C59      1.0000 0.97850  0.28290  0.65170  Biso   1.000  C
  C60      1.0000 0.54490  0.89340  0.58210  Biso   1.000  C
  C61      1.0000 0.14020  0.74890  0.52540  Biso   1.000  C
  C62      1.0000 0.24100  0.74040  0.47280  Biso   1.000  C
  C63      1.0000 0.76700  0.74350  0.90040  Biso   1.000  C
  C64      1.0000 0.02310  0.58540  0.57850  Biso   1.000  C
  C65      1.0000 0.84390  0.69810  0.92610  Biso   1.000  C
  C66      1.0000 0.71000  0.60860  0.08560  Biso   1.000  C
  C67      1.0000 0.15290  0.84640  0.52000  Biso   1.000  C
  C68      1.0000 0.65780  0.72070  0.97120  Biso   1.000  C
  C69      1.0000 0.02970  0.66970  0.58000  Biso   1.000  C
  C70      1.0000 0.80710  0.81820  0.79480  Biso   1.000  C
  C71      1.0000 0.63020  0.65170  0.06540  Biso   1.000  C
  C72      1.0000 0.12700  0.58210  0.52450  Biso   1.000  C
  N1       1.0000 0.29290  0.52750  0.13040  Biso   1.000  N
  N2       1.0000 0.16820  0.98310  0.64590  Biso   1.000  N
  N3       1.0000 0.57860  0.44930  0.48210  Biso   1.000  N
  N4       1.0000 0.60350  0.43190  0.41460  Biso   1.000  N
  N5       1.0000 0.62400  0.41820  0.35260  Biso   1.000  N
  N6       1.0000 0.42330  0.13040  0.34210  Biso   1.000  N
  N7       1.0000 0.81410  0.64590  0.37100  Biso   1.000  N
  N8       1.0000 0.06070  0.48210  0.06860  Biso   1.000  N
  N9       1.0000 0.01810  0.41460  0.15350  Biso   1.000  N
  N10      1.0000 0.97660  0.35260  0.22920  Biso   1.000  N
  N11      1.0000 0.76540  0.34210  0.52750  Biso   1.000  N
  N12      1.0000 0.18510  0.37100  0.98310  Biso   1.000  N
  N13      1.0000 0.12930  0.06860  0.44930  Biso   1.000  N
  N14      1.0000 0.17160  0.15350  0.43190  Biso   1.000  N
  N15      1.0000 0.20580  0.22920  0.41820  Biso   1.000  N
  N16      1.0000 0.70710  0.47250  0.86960  Biso   1.000  N
  N17      1.0000 0.83180  0.01690  0.35410  Biso   1.000  N
  N18      1.0000 0.42140  0.55070  0.51790  Biso   1.000  N
  N19      1.0000 0.39650  0.56810  0.58540  Biso   1.000  N
  N20      1.0000 0.37600  0.58180  0.64740  Biso   1.000  N
  N21      1.0000 0.57670  0.86960  0.65790  Biso   1.000  N
  N22      1.0000 0.18590  0.35410  0.62900  Biso   1.000  N
  N23      1.0000 0.93930  0.51790  0.93140  Biso   1.000  N
  N24      1.0000 0.98190  0.58540  0.84650  Biso   1.000  N
  N25      1.0000 0.02340  0.64740  0.77080  Biso   1.000  N
  N26      1.0000 0.23460  0.65790  0.47250  Biso   1.000  N
  N27      1.0000 0.81490  0.62900  0.01690  Biso   1.000  N
  N28      1.0000 0.87070  0.93140  0.55070  Biso   1.000  N
  N29      1.0000 0.82840  0.84650  0.56810  Biso   1.000  N
  N30      1.0000 0.79420  0.77080  0.58180  Biso   1.000  N
  Cl1      1.0000 0.41352  0.35615  0.70509  Biso   1.000  Cl
  Cl2      1.0000 0.11861  0.70509  0.93876  Biso   1.000  Cl
  Cl3      1.0000 0.05737  0.93876  0.35615  Biso   1.000  Cl
  Cl4      1.0000 0.58648  0.64385  0.29491  Biso   1.000  Cl
  Cl5      1.0000 0.88139  0.29491  0.06124  Biso   1.000  Cl
  Cl6      1.0000 0.94263  0.06124  0.64385  Biso   1.000  Cl
  O1       1.0000 0.34700  0.26080  0.58130  Biso   1.000  O
  O2       1.0000 0.35870  0.42340  0.42320  Biso   1.000  O
  O3       1.0000 0.49950  0.22710  0.62080  Biso   1.000  O
  O4       1.0000 0.29270  0.54320  0.37500  Biso   1.000  O
  O5       1.0000 0.92830  0.58130  0.15790  Biso   1.000  O
  O6       1.0000 0.78190  0.42320  0.15340  Biso   1.000  O
  O7       1.0000 0.12030  0.62080  0.15210  Biso   1.000  O
  O8       1.0000 0.66770  0.37500  0.08180  Biso   1.000  O
  O9       1.0000 0.08620  0.15790  0.26080  Biso   1.000  O
  O10      1.0000 0.93530  0.15340  0.42340  Biso   1.000  O
  O11      1.0000 0.27240  0.15210  0.22710  Biso   1.000  O
  O12      1.0000 0.74950  0.08180  0.54320  Biso   1.000  O
  O13      1.0000 0.65300  0.73920  0.41870  Biso   1.000  O
  O14      1.0000 0.64130  0.57660  0.57680  Biso   1.000  O
  O15      1.0000 0.50050  0.77290  0.37920  Biso   1.000  O
  O16      1.0000 0.70730  0.45680  0.62500  Biso   1.000  O
  O17      1.0000 0.07170  0.41870  0.84210  Biso   1.000  O
  O18      1.0000 0.21810  0.57680  0.84660  Biso   1.000  O
  O19      1.0000 0.87970  0.37920  0.84790  Biso   1.000  O
  O20      1.0000 0.33230  0.62500  0.91820  Biso   1.000  O
  O21      1.0000 0.91380  0.84210  0.73920  Biso   1.000  O
  O22      1.0000 0.06470  0.84660  0.57660  Biso   1.000  O
  O23      1.0000 0.72760  0.84790  0.77290  Biso   1.000  O
  O24      1.0000 0.25050  0.91820  0.45680  Biso   1.000  O
