data_image0
_cell_length_a       10.9175
_cell_length_b       21.4699
_cell_length_c       21.4699
_cell_angle_alpha    62.8125
_cell_angle_beta     80.2412
_cell_angle_gamma    99.7588

_symmetry_space_group_name_H-M    P 1
_symmetry_int_tables_number       1

loop_
  _symmetry_equiv_pos_as_xyz
  'x, y, z'

loop_
  _atom_site_label
  _atom_site_occupancy
  _atom_site_fract_x
  _atom_site_fract_y
  _atom_site_fract_z
  _atom_site_thermal_displace_type
  _atom_site_B_iso_or_equiv
  _atom_site_type_symbol
  Zn1      1.0000 0.27628  0.00016  0.08622  Biso   1.000  Zn
  Zn2      1.0000 0.36250  0.08622  0.91362  Biso   1.000  Zn
  Zn3      1.0000 0.27612  0.91362  0.00016  Biso   1.000  Zn
  Zn4      1.0000 0.53927  0.00000  0.00000  Biso   1.000  Zn
  H1       1.0000 0.84210  0.00000  0.24350  Biso   1.000  H
  H2       1.0000 0.48830  0.99350  0.34590  Biso   1.000  H
  H3       1.0000 0.41170  0.99960  0.24850  Biso   1.000  H
  H4       1.0000 0.76550  0.00630  0.14600  Biso   1.000  H
  H5       1.0000 0.68740  0.89630  0.42720  Biso   1.000  H
  H6       1.0000 0.97110  0.12930  0.44720  Biso   1.000  H
  H7       1.0000 0.98940  0.24260  0.34720  Biso   1.000  H
  H8       1.0000 0.78310  0.14060  0.26320  Biso   1.000  H
  H9       1.0000 0.17770  0.99820  0.57080  Biso   1.000  H
  H10      1.0000 0.66870  0.00930  0.55670  Biso   1.000  H
  H11      1.0000 0.55070  0.01140  0.65720  Biso   1.000  H
  H12      1.0000 0.86220  0.00460  0.73680  Biso   1.000  H
  H13      1.0000 0.02970  0.88810  0.75620  Biso   1.000  H
  H14      1.0000 0.15260  0.10910  0.64150  Biso   1.000  H
  H15      1.0000 0.25240  0.10900  0.72990  Biso   1.000  H
  H16      1.0000 0.12960  0.88810  0.84440  Biso   1.000  H
  H17      1.0000 0.23470  0.00950  0.39580  Biso   1.000  H
  H18      1.0000 0.17710  0.93970  0.47780  Biso   1.000  H
  H19      1.0000 0.55790  0.97540  0.39320  Biso   1.000  H
  H20      1.0000 0.51970  0.08750  0.32290  Biso   1.000  H
  H21      1.0000 0.35930  0.12340  0.37470  Biso   1.000  H
  H22      1.0000 0.27540  0.93520  0.56690  Biso   1.000  H
  H23      1.0000 0.43570  0.89920  0.51530  Biso   1.000  H
  H24      1.0000 0.91740  0.89550  0.57460  Biso   1.000  H
  H25      1.0000 0.98250  0.87420  0.51760  Biso   1.000  H
  H26      1.0000 0.02110  0.78260  0.63540  Biso   1.000  H
  H27      1.0000 0.68750  0.76990  0.57710  Biso   1.000  H
  H28      1.0000 0.78110  0.74300  0.48930  Biso   1.000  H
  H29      1.0000 0.99480  0.73610  0.47430  Biso   1.000  H
  H30      1.0000 0.11470  0.75570  0.54760  Biso   1.000  H
  H31      1.0000 0.08560  0.24350  0.75650  Biso   1.000  H
  H32      1.0000 0.83420  0.34590  0.66060  Biso   1.000  H
  H33      1.0000 0.66020  0.24850  0.75190  Biso   1.000  H
  H34      1.0000 0.91150  0.14600  0.84770  Biso   1.000  H
  H35      1.0000 0.11460  0.42720  0.67650  Biso   1.000  H
  H36      1.0000 0.41830  0.44720  0.42350  Biso   1.000  H
  H37      1.0000 0.33660  0.34720  0.41020  Biso   1.000  H
  H38      1.0000 0.04630  0.26320  0.59620  Biso   1.000  H
  H39      1.0000 0.74850  0.57080  0.43100  Biso   1.000  H
  H40      1.0000 0.22540  0.55670  0.43400  Biso   1.000  H
  H41      1.0000 0.20790  0.65720  0.33140  Biso   1.000  H
  H42      1.0000 0.59900  0.73680  0.25860  Biso   1.000  H
  H43      1.0000 0.78590  0.75620  0.35570  Biso   1.000  H
  H44      1.0000 0.79410  0.64150  0.24940  Biso   1.000  H
  H45      1.0000 0.98230  0.72990  0.16110  Biso   1.000  H
  H46      1.0000 0.97400  0.84440  0.26750  Biso   1.000  H
  H47      1.0000 0.63050  0.39580  0.59470  Biso   1.000  H
  H48      1.0000 0.65490  0.47780  0.58250  Biso   1.000  H
  H49      1.0000 0.95110  0.39320  0.63140  Biso   1.000  H
  H50      1.0000 0.84260  0.32290  0.58960  Biso   1.000  H
  H51      1.0000 0.73400  0.37470  0.50190  Biso   1.000  H
  H52      1.0000 0.84230  0.56690  0.49790  Biso   1.000  H
  H53      1.0000 0.95100  0.51530  0.58550  Biso   1.000  H
  H54      1.0000 0.49200  0.57460  0.52990  Biso   1.000  H
  H55      1.0000 0.50010  0.51760  0.60820  Biso   1.000  H
  H56      1.0000 0.65650  0.63540  0.58200  Biso   1.000  H
  H57      1.0000 0.26460  0.57710  0.65300  Biso   1.000  H
  H58      1.0000 0.27040  0.48930  0.76770  Biso   1.000  H
  H59      1.0000 0.46910  0.47430  0.78960  Biso   1.000  H
  H60      1.0000 0.66230  0.54760  0.69670  Biso   1.000  H
  H61      1.0000 0.84210  0.75650  0.00000  Biso   1.000  H
  H62      1.0000 0.49480  0.66060  0.99350  Biso   1.000  H
  H63      1.0000 0.41210  0.75190  0.99960  Biso   1.000  H
  H64      1.0000 0.75920  0.84770  0.00630  Biso   1.000  H
  H65      1.0000 0.79110  0.67650  0.89630  Biso   1.000  H
  H66      1.0000 0.84180  0.42350  0.12930  Biso   1.000  H
  H67      1.0000 0.74680  0.41020  0.24260  Biso   1.000  H
  H68      1.0000 0.64250  0.59620  0.14060  Biso   1.000  H
  H69      1.0000 0.17950  0.43100  0.99820  Biso   1.000  H
  H70      1.0000 0.65940  0.43400  0.00930  Biso   1.000  H
  H71      1.0000 0.53930  0.33140  0.01140  Biso   1.000  H
  H72      1.0000 0.85760  0.25860  0.00460  Biso   1.000  H
  H73      1.0000 0.14160  0.35570  0.88810  Biso   1.000  H
  H74      1.0000 0.04350  0.24940  0.10910  Biso   1.000  H
  H75      1.0000 0.14340  0.16110  0.10900  Biso   1.000  H
  H76      1.0000 0.24150  0.26750  0.88810  Biso   1.000  H
  H77      1.0000 0.22520  0.59470  0.00950  Biso   1.000  H
  H78      1.0000 0.23740  0.58250  0.93970  Biso   1.000  H
  H79      1.0000 0.58250  0.63140  0.97540  Biso   1.000  H
  H80      1.0000 0.43220  0.58960  0.08750  Biso   1.000  H
  H81      1.0000 0.23590  0.50190  0.12340  Biso   1.000  H
  H82      1.0000 0.34020  0.49790  0.93520  Biso   1.000  H
  H83      1.0000 0.53650  0.58550  0.89920  Biso   1.000  H
  H84      1.0000 0.02190  0.52990  0.89550  Biso   1.000  H
  H85      1.0000 0.10830  0.60820  0.87420  Biso   1.000  H
  H86      1.0000 0.23850  0.58200  0.78260  Biso   1.000  H
  H87      1.0000 0.91760  0.65300  0.76990  Biso   1.000  H
  H88      1.0000 0.03810  0.76770  0.74300  Biso   1.000  H
  H89      1.0000 0.25870  0.78960  0.73610  Biso   1.000  H
  H90      1.0000 0.35900  0.69670  0.75570  Biso   1.000  H
  C1       1.0000 0.75500  0.00000  0.24500  Biso   1.000  C
  C2       1.0000 0.67200  0.99600  0.30400  Biso   1.000  C
  C3       1.0000 0.54460  0.99610  0.30530  Biso   1.000  C
  C4       1.0000 0.49910  0.99970  0.24740  Biso   1.000  C
  C5       1.0000 0.58120  0.00360  0.18800  Biso   1.000  C
  C6       1.0000 0.71000  0.00400  0.18600  Biso   1.000  C
  C7       1.0000 0.50530  0.00100  0.13110  Biso   1.000  C
  C8       1.0000 0.25400  0.99900  0.84100  Biso   1.000  C
  C9       1.0000 0.85600  0.00100  0.47400  Biso   1.000  C
  C10      1.0000 0.78900  0.93700  0.47900  Biso   1.000  C
  C11      1.0000 0.73400  0.94100  0.42300  Biso   1.000  C
  C12      1.0000 0.74400  0.00800  0.36400  Biso   1.000  C
  C13      1.0000 0.81100  0.07200  0.35900  Biso   1.000  C
  C14      1.0000 0.86640  0.06840  0.41420  Biso   1.000  C
  C15      1.0000 0.93300  0.13200  0.41000  Biso   1.000  C
  C16      1.0000 0.94400  0.19900  0.35100  Biso   1.000  C
  C17      1.0000 0.88800  0.20300  0.29500  Biso   1.000  C
  C18      1.0000 0.82200  0.13900  0.30000  Biso   1.000  C
  C19      1.0000 0.90520  0.00420  0.52760  Biso   1.000  C
  C20      1.0000 0.03320  0.00120  0.52160  Biso   1.000  C
  C21      1.0000 0.09100  0.00000  0.57500  Biso   1.000  C
  C22      1.0000 0.02080  0.00180  0.63440  Biso   1.000  C
  C23      1.0000 0.89250  0.00420  0.64070  Biso   1.000  C
  C24      1.0000 0.83600  0.00600  0.58700  Biso   1.000  C
  C25      1.0000 0.70800  0.00900  0.59300  Biso   1.000  C
  C26      1.0000 0.63800  0.00900  0.65300  Biso   1.000  C
  C27      1.0000 0.69500  0.00800  0.70600  Biso   1.000  C
  C28      1.0000 0.82270  0.00470  0.70060  Biso   1.000  C
  C29      1.0000 0.07500  0.93290  0.75090  Biso   1.000  C
  C30      1.0000 0.08240  0.99940  0.69020  Biso   1.000  C
  C31      1.0000 0.14780  0.06480  0.68240  Biso   1.000  C
  C32      1.0000 0.20700  0.06420  0.73520  Biso   1.000  C
  C33      1.0000 0.20000  0.99850  0.79550  Biso   1.000  C
  C34      1.0000 0.13450  0.93280  0.80330  Biso   1.000  C
  C35      1.0000 0.20200  0.99300  0.44800  Biso   1.000  C
  C36      1.0000 0.49400  0.99100  0.41300  Biso   1.000  C
  C37      1.0000 0.47000  0.05600  0.37300  Biso   1.000  C
  C38      1.0000 0.37900  0.07900  0.40200  Biso   1.000  C
  C39      1.0000 0.30200  0.03300  0.47600  Biso   1.000  C
  C40      1.0000 0.32500  0.96600  0.51700  Biso   1.000  C
  C41      1.0000 0.42000  0.94500  0.48700  Biso   1.000  C
  C42      1.0000 0.89900  0.86700  0.55000  Biso   1.000  C
  C43      1.0000 0.97000  0.77500  0.60500  Biso   1.000  C
  C44      1.0000 0.84800  0.77900  0.61500  Biso   1.000  C
  C45      1.0000 0.77400  0.76600  0.57200  Biso   1.000  C
  C46      1.0000 0.83000  0.75000  0.52000  Biso   1.000  C
  C47      1.0000 0.95300  0.74800  0.50900  Biso   1.000  C
  C48      1.0000 0.02800  0.75900  0.55300  Biso   1.000  C
  C49      1.0000 0.00000  0.24500  0.75500  Biso   1.000  C
  C50      1.0000 0.97600  0.30400  0.70000  Biso   1.000  C
  C51      1.0000 0.84990  0.30530  0.69860  Biso   1.000  C
  C52      1.0000 0.74650  0.24740  0.75290  Biso   1.000  C
  C53      1.0000 0.76920  0.18800  0.80840  Biso   1.000  C
  C54      1.0000 0.89600  0.18600  0.81000  Biso   1.000  C
  C55      1.0000 0.63640  0.13110  0.86790  Biso   1.000  C
  C56      1.0000 0.09500  0.84100  0.16000  Biso   1.000  C
  C57      1.0000 0.33000  0.47400  0.52500  Biso   1.000  C
  C58      1.0000 0.26800  0.47900  0.58400  Biso   1.000  C
  C59      1.0000 0.15700  0.42300  0.63600  Biso   1.000  C
  C60      1.0000 0.10800  0.36400  0.62800  Biso   1.000  C
  C61      1.0000 0.17000  0.35900  0.56900  Biso   1.000  C
  C62      1.0000 0.28060  0.41420  0.51740  Biso   1.000  C
  C63      1.0000 0.34300  0.41000  0.45800  Biso   1.000  C
  C64      1.0000 0.29500  0.35100  0.45000  Biso   1.000  C
  C65      1.0000 0.18300  0.29500  0.50200  Biso   1.000  C
  C66      1.0000 0.12200  0.30000  0.56100  Biso   1.000  C
  C67      1.0000 0.43280  0.52760  0.46820  Biso   1.000  C
  C68      1.0000 0.55480  0.52160  0.47720  Biso   1.000  C
  C69      1.0000 0.66600  0.57500  0.42500  Biso   1.000  C
  C70      1.0000 0.65520  0.63440  0.36380  Biso   1.000  C
  C71      1.0000 0.53320  0.64070  0.35510  Biso   1.000  C
  C72      1.0000 0.42300  0.58700  0.40700  Biso   1.000  C
  C73      1.0000 0.30100  0.59300  0.39800  Biso   1.000  C
  C74      1.0000 0.29100  0.65300  0.33800  Biso   1.000  C
  C75      1.0000 0.40100  0.70600  0.28600  Biso   1.000  C
  C76      1.0000 0.52330  0.70060  0.29470  Biso   1.000  C
  C77      1.0000 0.82590  0.75090  0.31620  Biso   1.000  C
  C78      1.0000 0.77260  0.69020  0.31040  Biso   1.000  C
  C79      1.0000 0.83020  0.68240  0.25280  Biso   1.000  C
  C80      1.0000 0.94220  0.73520  0.20060  Biso   1.000  C
  C81      1.0000 0.99550  0.79550  0.20600  Biso   1.000  C
  C82      1.0000 0.93780  0.80330  0.26390  Biso   1.000  C
  C83      1.0000 0.65000  0.44800  0.55900  Biso   1.000  C
  C84      1.0000 0.90700  0.41300  0.59600  Biso   1.000  C
  C85      1.0000 0.84300  0.37300  0.57100  Biso   1.000  C
  C86      1.0000 0.78100  0.40200  0.51900  Biso   1.000  C
  C87      1.0000 0.77800  0.47600  0.49100  Biso   1.000  C
  C88      1.0000 0.84200  0.51700  0.51700  Biso   1.000  C
  C89      1.0000 0.90700  0.48700  0.56800  Biso   1.000  C
  C90      1.0000 0.44900  0.55000  0.58300  Biso   1.000  C
  C91      1.0000 0.57500  0.60500  0.62000  Biso   1.000  C
  C92      1.0000 0.46300  0.61500  0.60600  Biso   1.000  C
  C93      1.0000 0.34600  0.57200  0.66200  Biso   1.000  C
  C94      1.0000 0.35000  0.52000  0.73000  Biso   1.000  C
  C95      1.0000 0.46200  0.50900  0.74300  Biso   1.000  C
  C96      1.0000 0.58100  0.55300  0.68800  Biso   1.000  C
  C97      1.0000 0.75500  0.75500  0.00000  Biso   1.000  C
  C98      1.0000 0.67600  0.70000  0.99600  Biso   1.000  C
  C99      1.0000 0.54850  0.69860  0.99610  Biso   1.000  C
  C100     1.0000 0.49940  0.75290  0.99970  Biso   1.000  C
  C101     1.0000 0.57760  0.80840  0.00360  Biso   1.000  C
  C102     1.0000 0.70600  0.81000  0.00400  Biso   1.000  C
  C103     1.0000 0.50430  0.86790  0.00100  Biso   1.000  C
  C104     1.0000 0.25500  0.16000  0.99900  Biso   1.000  C
  C105     1.0000 0.85500  0.52500  0.00100  Biso   1.000  C
  C106     1.0000 0.85200  0.58400  0.93700  Biso   1.000  C
  C107     1.0000 0.79300  0.63600  0.94100  Biso   1.000  C
  C108     1.0000 0.73600  0.62800  0.00800  Biso   1.000  C
  C109     1.0000 0.73900  0.56900  0.07200  Biso   1.000  C
  C110     1.0000 0.79800  0.51740  0.06840  Biso   1.000  C
  C111     1.0000 0.80100  0.45800  0.13200  Biso   1.000  C
  C112     1.0000 0.74500  0.45000  0.19900  Biso   1.000  C
  C113     1.0000 0.68500  0.50200  0.20300  Biso   1.000  C
  C114     1.0000 0.68300  0.56100  0.13900  Biso   1.000  C
  C115     1.0000 0.90100  0.46820  0.00420  Biso   1.000  C
  C116     1.0000 0.03200  0.47720  0.00120  Biso   1.000  C
  C117     1.0000 0.09100  0.42500  0.00000  Biso   1.000  C
  C118     1.0000 0.01900  0.36380  0.00180  Biso   1.000  C
  C119     1.0000 0.88830  0.35510  0.00420  Biso   1.000  C
  C120     1.0000 0.83000  0.40700  0.00600  Biso   1.000  C
  C121     1.0000 0.69900  0.39800  0.00900  Biso   1.000  C
  C122     1.0000 0.62900  0.33800  0.00900  Biso   1.000  C
  C123     1.0000 0.68700  0.28600  0.00800  Biso   1.000  C
  C124     1.0000 0.81800  0.29470  0.00470  Biso   1.000  C
  C125     1.0000 0.14210  0.31620  0.93290  Biso   1.000  C
  C126     1.0000 0.08300  0.31040  0.99940  Biso   1.000  C
  C127     1.0000 0.08300  0.25280  0.06480  Biso   1.000  C
  C128     1.0000 0.14280  0.20060  0.06420  Biso   1.000  C
  C129     1.0000 0.20150  0.20600  0.99850  Biso   1.000  C
  C130     1.0000 0.20170  0.26390  0.93280  Biso   1.000  C
  C131     1.0000 0.20900  0.55900  0.99300  Biso   1.000  C
  C132     1.0000 0.50300  0.59600  0.99100  Biso   1.000  C
  C133     1.0000 0.41400  0.57100  0.05600  Biso   1.000  C
  C134     1.0000 0.30000  0.51900  0.07900  Biso   1.000  C
  C135     1.0000 0.26900  0.49100  0.03300  Biso   1.000  C
  C136     1.0000 0.35900  0.51700  0.96600  Biso   1.000  C
  C137     1.0000 0.47500  0.56800  0.94500  Biso   1.000  C
  C138     1.0000 0.03200  0.58300  0.86700  Biso   1.000  C
  C139     1.0000 0.19500  0.62000  0.77500  Biso   1.000  C
  C140     1.0000 0.06900  0.60600  0.77900  Biso   1.000  C
  C141     1.0000 0.00800  0.66200  0.76600  Biso   1.000  C
  C142     1.0000 0.08000  0.73000  0.75000  Biso   1.000  C
  C143     1.0000 0.20500  0.74300  0.74800  Biso   1.000  C
  C144     1.0000 0.26900  0.68800  0.75900  Biso   1.000  C
  Cl1      1.0000 0.57800  0.99500  0.79500  Biso   1.000  Cl
  Cl2      1.0000 0.37300  0.79500  0.21000  Biso   1.000  Cl
  Cl3      1.0000 0.58300  0.21000  0.99500  Biso   1.000  Cl
  O1       1.0000 0.39820  0.00030  0.14270  Biso   1.000  O
  O2       1.0000 0.58540  0.99950  0.08130  Biso   1.000  O
  O3       1.0000 0.24930  0.10160  0.05170  Biso   1.000  O
  O4       1.0000 0.30180  0.15440  0.94700  Biso   1.000  O
  O5       1.0000 0.11600  0.01800  0.46100  Biso   1.000  O
  O6       1.0000 0.82900  0.89200  0.51200  Biso   1.000  O
  O7       1.0000 0.54090  0.14270  0.85700  Biso   1.000  O
  O8       1.0000 0.66670  0.08130  0.91920  Biso   1.000  O
  O9       1.0000 0.30100  0.05170  0.84670  Biso   1.000  O
  O10      1.0000 0.24880  0.94700  0.89860  Biso   1.000  O
  O11      1.0000 0.57700  0.46100  0.52100  Biso   1.000  O
  O12      1.0000 0.34100  0.51200  0.59600  Biso   1.000  O
  O13      1.0000 0.39790  0.85700  0.00030  Biso   1.000  O
  O14      1.0000 0.58590  0.91920  0.99950  Biso   1.000  O
  O15      1.0000 0.14770  0.84670  0.10160  Biso   1.000  O
  O16      1.0000 0.14740  0.89860  0.15440  Biso   1.000  O
  O17      1.0000 0.09800  0.52100  0.01800  Biso   1.000  O
  O18      1.0000 0.93700  0.59600  0.89200  Biso   1.000  O
  O19      1.0000 0.36467  0.00000  0.00000  Biso   1.000  O
