data_image0
_cell_length_a       6.791
_cell_length_b       9.604
_cell_length_c       17.722
_cell_angle_alpha    101.826
_cell_angle_beta     96.5
_cell_angle_gamma    106.425

_symmetry_space_group_name_H-M    P 1
_symmetry_int_tables_number       1

loop_
  _symmetry_equiv_pos_as_xyz
  'x, y, z'

loop_
  _atom_site_label
  _atom_site_occupancy
  _atom_site_fract_x
  _atom_site_fract_y
  _atom_site_fract_z
  _atom_site_thermal_displace_type
  _atom_site_B_iso_or_equiv
  _atom_site_type_symbol
  Zn1      1.0000 0.07651  0.53716  0.24926  Biso   1.000  Zn
  Zn2      1.0000 0.15857  0.19034  0.25068  Biso   1.000  Zn
  Zn3      1.0000 0.92349  0.46284  0.75074  Biso   1.000  Zn
  Zn4      1.0000 0.84143  0.80966  0.74932  Biso   1.000  Zn
  H1       1.0000 0.80870  0.06170  0.01850  Biso   1.000  H
  H2       1.0000 0.21820  0.45800  0.01790  Biso   1.000  H
  H3       1.0000 0.14770  0.39350  0.88170  Biso   1.000  H
  H4       1.0000 0.73550  0.00080  0.88260  Biso   1.000  H
  H5       1.0000 0.35360  0.70160  0.47880  Biso   1.000  H
  H6       1.0000 0.12980  0.27450  0.48760  Biso   1.000  H
  H7       1.0000 0.43000  0.77870  0.61590  Biso   1.000  H
  H8       1.0000 0.18700  0.34910  0.62230  Biso   1.000  H
  H9       1.0000 0.19130  0.93830  0.98150  Biso   1.000  H
  H10      1.0000 0.78180  0.54200  0.98210  Biso   1.000  H
  H11      1.0000 0.85230  0.60650  0.11830  Biso   1.000  H
  H12      1.0000 0.26450  0.99920  0.11740  Biso   1.000  H
  H13      1.0000 0.64640  0.29840  0.52120  Biso   1.000  H
  H14      1.0000 0.87020  0.72550  0.51240  Biso   1.000  H
  H15      1.0000 0.57000  0.22130  0.38410  Biso   1.000  H
  H16      1.0000 0.81300  0.65090  0.37770  Biso   1.000  H
  C1       1.0000 0.93900  0.19070  0.87050  Biso   1.000  C
  C2       1.0000 0.06090  0.30780  0.11930  Biso   1.000  C
  C3       1.0000 0.02200  0.26790  0.03320  Biso   1.000  C
  C4       1.0000 0.87600  0.12860  0.99140  Biso   1.000  C
  C5       1.0000 0.12200  0.36590  0.99100  Biso   1.000  C
  C6       1.0000 0.08070  0.32760  0.90950  Biso   1.000  C
  C7       1.0000 0.83400  0.09140  0.91010  Biso   1.000  C
  C8       1.0000 0.89200  0.15020  0.78300  Biso   1.000  C
  C9       1.0000 0.19080  0.43260  0.38280  Biso   1.000  C
  C10      1.0000 0.36340  0.61780  0.71800  Biso   1.000  C
  C11      1.0000 0.32330  0.63110  0.50830  Biso   1.000  C
  C12      1.0000 0.18710  0.37560  0.51330  Biso   1.000  C
  C13      1.0000 0.36830  0.67790  0.59040  Biso   1.000  C
  C14      1.0000 0.23500  0.48210  0.47120  Biso   1.000  C
  C15      1.0000 0.22470  0.42020  0.59360  Biso   1.000  C
  C16      1.0000 0.31860  0.57040  0.63260  Biso   1.000  C
  C17      1.0000 0.06100  0.80930  0.12950  Biso   1.000  C
  C18      1.0000 0.93910  0.69220  0.88070  Biso   1.000  C
  C19      1.0000 0.97800  0.73210  0.96680  Biso   1.000  C
  C20      1.0000 0.12400  0.87140  0.00860  Biso   1.000  C
  C21      1.0000 0.87800  0.63410  0.00900  Biso   1.000  C
  C22      1.0000 0.91930  0.67240  0.09050  Biso   1.000  C
  C23      1.0000 0.16600  0.90860  0.08990  Biso   1.000  C
  C24      1.0000 0.10800  0.84980  0.21700  Biso   1.000  C
  C25      1.0000 0.80920  0.56740  0.61720  Biso   1.000  C
  C26      1.0000 0.63660  0.38220  0.28200  Biso   1.000  C
  C27      1.0000 0.67670  0.36890  0.49170  Biso   1.000  C
  C28      1.0000 0.81290  0.62440  0.48670  Biso   1.000  C
  C29      1.0000 0.63170  0.32210  0.40960  Biso   1.000  C
  C30      1.0000 0.76500  0.51790  0.52880  Biso   1.000  C
  C31      1.0000 0.77530  0.57980  0.40640  Biso   1.000  C
  C32      1.0000 0.68140  0.42960  0.36740  Biso   1.000  C
  N1       1.0000 0.88400  0.24500  0.73850  Biso   1.000  N
  N2       1.0000 0.22920  0.57170  0.76340  Biso   1.000  N
  N3       1.0000 0.51750  0.72240  0.83940  Biso   1.000  N
  N4       1.0000 0.32960  0.63990  0.84020  Biso   1.000  N
  N5       1.0000 0.83500  0.16440  0.66540  Biso   1.000  N
  N6       1.0000 0.81500  0.02830  0.66660  Biso   1.000  N
  N7       1.0000 0.54620  0.71150  0.76320  Biso   1.000  N
  N8       1.0000 0.84700  0.01270  0.73830  Biso   1.000  N
  N9       1.0000 0.11600  0.75500  0.26150  Biso   1.000  N
  N10      1.0000 0.77080  0.42830  0.23660  Biso   1.000  N
  N11      1.0000 0.48250  0.27760  0.16060  Biso   1.000  N
  N12      1.0000 0.67040  0.36010  0.15980  Biso   1.000  N
  N13      1.0000 0.16500  0.83560  0.33460  Biso   1.000  N
  N14      1.0000 0.18500  0.97170  0.33340  Biso   1.000  N
  N15      1.0000 0.45380  0.28850  0.23680  Biso   1.000  N
  N16      1.0000 0.15300  0.98730  0.26170  Biso   1.000  N
  O1       1.0000 0.00900  0.20260  0.15270  Biso   1.000  O
  O2       1.0000 0.14780  0.44460  0.15350  Biso   1.000  O
  O3       1.0000 0.22850  0.53490  0.34830  Biso   1.000  O
  O4       1.0000 0.12190  0.29390  0.35120  Biso   1.000  O
  O5       1.0000 0.99100  0.79740  0.84730  Biso   1.000  O
  O6       1.0000 0.85220  0.55540  0.84650  Biso   1.000  O
  O7       1.0000 0.77150  0.46510  0.65170  Biso   1.000  O
  O8       1.0000 0.87810  0.70610  0.64880  Biso   1.000  O
