data_image0
_cell_length_a       12.1
_cell_length_b       26.162
_cell_length_c       26.162
_cell_angle_alpha    90
_cell_angle_beta     90
_cell_angle_gamma    90

_symmetry_space_group_name_H-M    P 1
_symmetry_int_tables_number       1

loop_
  _symmetry_equiv_pos_as_xyz
  'x, y, z'

loop_
  _atom_site_label
  _atom_site_occupancy
  _atom_site_fract_x
  _atom_site_fract_y
  _atom_site_fract_z
  _atom_site_thermal_displace_type
  _atom_site_B_iso_or_equiv
  _atom_site_type_symbol
  Cu1      1.0000 0.07621  0.99393  0.03557  Biso   1.000  Cu
  Cu2      1.0000 0.92379  0.00607  0.53557  Biso   1.000  Cu
  Cu3      1.0000 0.92379  0.49393  0.46443  Biso   1.000  Cu
  Cu4      1.0000 0.07621  0.50607  0.96443  Biso   1.000  Cu
  Cu5      1.0000 0.92379  0.00607  0.96443  Biso   1.000  Cu
  Cu6      1.0000 0.07621  0.99393  0.46443  Biso   1.000  Cu
  Cu7      1.0000 0.07621  0.50607  0.53557  Biso   1.000  Cu
  Cu8      1.0000 0.92379  0.49393  0.03557  Biso   1.000  Cu
  Cu9      1.0000 0.01028  0.70493  0.75000  Biso   1.000  Cu
  Cu10     1.0000 0.85594  0.77610  0.75000  Biso   1.000  Cu
  Cu11     1.0000 0.98972  0.29507  0.25000  Biso   1.000  Cu
  Cu12     1.0000 0.14406  0.22390  0.25000  Biso   1.000  Cu
  Cu13     1.0000 0.98972  0.20493  0.75000  Biso   1.000  Cu
  Cu14     1.0000 0.14406  0.27610  0.75000  Biso   1.000  Cu
  Cu15     1.0000 0.01028  0.79507  0.25000  Biso   1.000  Cu
  Cu16     1.0000 0.85594  0.72390  0.25000  Biso   1.000  Cu
  H1       1.0000 0.90210  0.61150  0.86880  Biso   1.000  H
  H2       1.0000 0.69940  0.61280  0.98910  Biso   1.000  H
  H3       1.0000 0.66830  0.72010  0.88070  Biso   1.000  H
  H4       1.0000 0.58410  0.76030  0.94780  Biso   1.000  H
  H5       1.0000 0.48810  0.72620  0.92600  Biso   1.000  H
  H6       1.0000 0.43090  0.67550  0.02390  Biso   1.000  H
  H7       1.0000 0.33580  0.69580  0.98810  Biso   1.000  H
  H8       1.0000 0.24570  0.63300  0.02840  Biso   1.000  H
  H9       1.0000 0.00040  0.62520  0.13100  Biso   1.000  H
  H10      1.0000 0.21140  0.74270  0.13280  Biso   1.000  H
  H11      1.0000 0.26410  0.96550  0.07820  Biso   1.000  H
  H12      1.0000 0.21580  0.01020  0.11120  Biso   1.000  H
  H13      1.0000 0.09790  0.38850  0.36880  Biso   1.000  H
  H14      1.0000 0.30060  0.38720  0.48910  Biso   1.000  H
  H15      1.0000 0.33170  0.27990  0.38070  Biso   1.000  H
  H16      1.0000 0.41590  0.23970  0.44780  Biso   1.000  H
  H17      1.0000 0.51190  0.27380  0.42600  Biso   1.000  H
  H18      1.0000 0.56910  0.32450  0.52390  Biso   1.000  H
  H19      1.0000 0.66420  0.30420  0.48810  Biso   1.000  H
  H20      1.0000 0.75430  0.36700  0.52840  Biso   1.000  H
  H21      1.0000 0.99960  0.37480  0.63100  Biso   1.000  H
  H22      1.0000 0.78860  0.25730  0.63280  Biso   1.000  H
  H23      1.0000 0.73590  0.03450  0.57820  Biso   1.000  H
  H24      1.0000 0.78420  0.98980  0.61120  Biso   1.000  H
  H25      1.0000 0.09790  0.11150  0.63120  Biso   1.000  H
  H26      1.0000 0.30060  0.11280  0.51090  Biso   1.000  H
  H27      1.0000 0.33170  0.22010  0.61930  Biso   1.000  H
  H28      1.0000 0.41590  0.26030  0.55220  Biso   1.000  H
  H29      1.0000 0.51190  0.22620  0.57400  Biso   1.000  H
  H30      1.0000 0.56910  0.17550  0.47610  Biso   1.000  H
  H31      1.0000 0.66420  0.19580  0.51190  Biso   1.000  H
  H32      1.0000 0.75430  0.13300  0.47160  Biso   1.000  H
  H33      1.0000 0.99960  0.12520  0.36900  Biso   1.000  H
  H34      1.0000 0.78860  0.24270  0.36720  Biso   1.000  H
  H35      1.0000 0.73590  0.46550  0.42180  Biso   1.000  H
  H36      1.0000 0.78420  0.51020  0.38880  Biso   1.000  H
  H37      1.0000 0.90210  0.88850  0.13120  Biso   1.000  H
  H38      1.0000 0.69940  0.88720  0.01090  Biso   1.000  H
  H39      1.0000 0.66830  0.77990  0.11930  Biso   1.000  H
  H40      1.0000 0.58410  0.73970  0.05220  Biso   1.000  H
  H41      1.0000 0.48810  0.77380  0.07400  Biso   1.000  H
  H42      1.0000 0.43090  0.82450  0.97610  Biso   1.000  H
  H43      1.0000 0.33580  0.80420  0.01190  Biso   1.000  H
  H44      1.0000 0.24570  0.86700  0.97160  Biso   1.000  H
  H45      1.0000 0.00040  0.87480  0.86900  Biso   1.000  H
  H46      1.0000 0.21140  0.75730  0.86720  Biso   1.000  H
  H47      1.0000 0.26410  0.53450  0.92180  Biso   1.000  H
  H48      1.0000 0.21580  0.48980  0.88880  Biso   1.000  H
  H49      1.0000 0.09790  0.38850  0.13120  Biso   1.000  H
  H50      1.0000 0.30060  0.38720  0.01090  Biso   1.000  H
  H51      1.0000 0.33170  0.27990  0.11930  Biso   1.000  H
  H52      1.0000 0.41590  0.23970  0.05220  Biso   1.000  H
  H53      1.0000 0.51190  0.27380  0.07400  Biso   1.000  H
  H54      1.0000 0.56910  0.32450  0.97610  Biso   1.000  H
  H55      1.0000 0.66420  0.30420  0.01190  Biso   1.000  H
  H56      1.0000 0.75430  0.36700  0.97160  Biso   1.000  H
  H57      1.0000 0.99960  0.37480  0.86900  Biso   1.000  H
  H58      1.0000 0.78860  0.25730  0.86720  Biso   1.000  H
  H59      1.0000 0.73590  0.03450  0.92180  Biso   1.000  H
  H60      1.0000 0.78420  0.98980  0.88880  Biso   1.000  H
  H61      1.0000 0.90210  0.61150  0.63120  Biso   1.000  H
  H62      1.0000 0.69940  0.61280  0.51090  Biso   1.000  H
  H63      1.0000 0.66830  0.72010  0.61930  Biso   1.000  H
  H64      1.0000 0.58410  0.76030  0.55220  Biso   1.000  H
  H65      1.0000 0.48810  0.72620  0.57400  Biso   1.000  H
  H66      1.0000 0.43090  0.67550  0.47610  Biso   1.000  H
  H67      1.0000 0.33580  0.69580  0.51190  Biso   1.000  H
  H68      1.0000 0.24570  0.63300  0.47160  Biso   1.000  H
  H69      1.0000 0.00040  0.62520  0.36900  Biso   1.000  H
  H70      1.0000 0.21140  0.74270  0.36720  Biso   1.000  H
  H71      1.0000 0.26410  0.96550  0.42180  Biso   1.000  H
  H72      1.0000 0.21580  0.01020  0.38880  Biso   1.000  H
  H73      1.0000 0.90210  0.88850  0.36880  Biso   1.000  H
  H74      1.0000 0.69940  0.88720  0.48910  Biso   1.000  H
  H75      1.0000 0.66830  0.77990  0.38070  Biso   1.000  H
  H76      1.0000 0.58410  0.73970  0.44780  Biso   1.000  H
  H77      1.0000 0.48810  0.77380  0.42600  Biso   1.000  H
  H78      1.0000 0.43090  0.82450  0.52390  Biso   1.000  H
  H79      1.0000 0.33580  0.80420  0.48810  Biso   1.000  H
  H80      1.0000 0.24570  0.86700  0.52840  Biso   1.000  H
  H81      1.0000 0.00040  0.87480  0.63100  Biso   1.000  H
  H82      1.0000 0.21140  0.75730  0.63280  Biso   1.000  H
  H83      1.0000 0.26410  0.53450  0.57820  Biso   1.000  H
  H84      1.0000 0.21580  0.48980  0.61120  Biso   1.000  H
  H85      1.0000 0.09790  0.11150  0.86880  Biso   1.000  H
  H86      1.0000 0.30060  0.11280  0.98910  Biso   1.000  H
  H87      1.0000 0.33170  0.22010  0.88070  Biso   1.000  H
  H88      1.0000 0.41590  0.26030  0.94780  Biso   1.000  H
  H89      1.0000 0.51190  0.22620  0.92600  Biso   1.000  H
  H90      1.0000 0.56910  0.17550  0.02390  Biso   1.000  H
  H91      1.0000 0.66420  0.19580  0.98810  Biso   1.000  H
  H92      1.0000 0.75430  0.13300  0.02840  Biso   1.000  H
  H93      1.0000 0.99960  0.12520  0.13100  Biso   1.000  H
  H94      1.0000 0.78860  0.24270  0.13280  Biso   1.000  H
  H95      1.0000 0.73590  0.46550  0.07820  Biso   1.000  H
  H96      1.0000 0.78420  0.51020  0.11120  Biso   1.000  H
  C1       1.0000 0.79330  0.66956  0.86871  Biso   1.000  C
  C2       1.0000 0.84510  0.62661  0.88725  Biso   1.000  C
  C3       1.0000 0.81170  0.60591  0.93374  Biso   1.000  C
  C4       1.0000 0.72380  0.62756  0.95877  Biso   1.000  C
  C5       1.0000 0.67040  0.67038  0.94056  Biso   1.000  C
  C6       1.0000 0.70420  0.69178  0.89423  Biso   1.000  C
  C7       1.0000 0.83500  0.69352  0.82103  Biso   1.000  C
  C8       1.0000 0.87720  0.56280  0.95640  Biso   1.000  C
  C9       1.0000 0.53240  0.73324  0.95609  Biso   1.000  C
  C10      1.0000 0.38570  0.70500  0.01562  Biso   1.000  C
  C11      1.0000 0.24160  0.69302  0.07668  Biso   1.000  C
  C12      1.0000 0.20750  0.64684  0.05600  Biso   1.000  C
  C13      1.0000 0.11710  0.62097  0.07591  Biso   1.000  C
  C14      1.0000 0.06150  0.64191  0.11740  Biso   1.000  C
  C15      1.0000 0.09660  0.68755  0.13861  Biso   1.000  C
  C16      1.0000 0.18710  0.71236  0.11815  Biso   1.000  C
  C17      1.0000 0.07830  0.57434  0.05009  Biso   1.000  C
  C18      1.0000 0.03640  0.71115  0.18116  Biso   1.000  C
  C19      1.0000 0.20670  0.33044  0.36871  Biso   1.000  C
  C20      1.0000 0.15490  0.37339  0.38725  Biso   1.000  C
  C21      1.0000 0.18830  0.39409  0.43374  Biso   1.000  C
  C22      1.0000 0.27620  0.37244  0.45877  Biso   1.000  C
  C23      1.0000 0.32960  0.32962  0.44056  Biso   1.000  C
  C24      1.0000 0.29580  0.30822  0.39423  Biso   1.000  C
  C25      1.0000 0.16500  0.30648  0.32103  Biso   1.000  C
  C26      1.0000 0.12280  0.43720  0.45640  Biso   1.000  C
  C27      1.0000 0.46760  0.26676  0.45609  Biso   1.000  C
  C28      1.0000 0.61430  0.29500  0.51562  Biso   1.000  C
  C29      1.0000 0.75840  0.30698  0.57668  Biso   1.000  C
  C30      1.0000 0.79250  0.35316  0.55600  Biso   1.000  C
  C31      1.0000 0.88290  0.37903  0.57591  Biso   1.000  C
  C32      1.0000 0.93850  0.35809  0.61740  Biso   1.000  C
  C33      1.0000 0.90340  0.31245  0.63861  Biso   1.000  C
  C34      1.0000 0.81290  0.28764  0.61815  Biso   1.000  C
  C35      1.0000 0.92170  0.42566  0.55009  Biso   1.000  C
  C36      1.0000 0.96360  0.28885  0.68116  Biso   1.000  C
  C37      1.0000 0.20670  0.16956  0.63129  Biso   1.000  C
  C38      1.0000 0.15490  0.12661  0.61275  Biso   1.000  C
  C39      1.0000 0.18830  0.10591  0.56626  Biso   1.000  C
  C40      1.0000 0.27620  0.12756  0.54123  Biso   1.000  C
  C41      1.0000 0.32960  0.17038  0.55944  Biso   1.000  C
  C42      1.0000 0.29580  0.19178  0.60577  Biso   1.000  C
  C43      1.0000 0.16500  0.19352  0.67897  Biso   1.000  C
  C44      1.0000 0.12280  0.06280  0.54360  Biso   1.000  C
  C45      1.0000 0.46760  0.23324  0.54391  Biso   1.000  C
  C46      1.0000 0.61430  0.20500  0.48438  Biso   1.000  C
  C47      1.0000 0.75840  0.19302  0.42332  Biso   1.000  C
  C48      1.0000 0.79250  0.14684  0.44400  Biso   1.000  C
  C49      1.0000 0.88290  0.12097  0.42409  Biso   1.000  C
  C50      1.0000 0.93850  0.14191  0.38260  Biso   1.000  C
  C51      1.0000 0.90340  0.18755  0.36139  Biso   1.000  C
  C52      1.0000 0.81290  0.21236  0.38185  Biso   1.000  C
  C53      1.0000 0.92170  0.07434  0.44991  Biso   1.000  C
  C54      1.0000 0.96360  0.21115  0.31884  Biso   1.000  C
  C55      1.0000 0.79330  0.83044  0.13129  Biso   1.000  C
  C56      1.0000 0.84510  0.87339  0.11275  Biso   1.000  C
  C57      1.0000 0.81170  0.89409  0.06626  Biso   1.000  C
  C58      1.0000 0.72380  0.87244  0.04123  Biso   1.000  C
  C59      1.0000 0.67040  0.82962  0.05944  Biso   1.000  C
  C60      1.0000 0.70420  0.80822  0.10577  Biso   1.000  C
  C61      1.0000 0.83500  0.80648  0.17897  Biso   1.000  C
  C62      1.0000 0.87720  0.93720  0.04360  Biso   1.000  C
  C63      1.0000 0.53240  0.76676  0.04391  Biso   1.000  C
  C64      1.0000 0.38570  0.79500  0.98438  Biso   1.000  C
  C65      1.0000 0.24160  0.80698  0.92332  Biso   1.000  C
  C66      1.0000 0.20750  0.85316  0.94400  Biso   1.000  C
  C67      1.0000 0.11710  0.87903  0.92409  Biso   1.000  C
  C68      1.0000 0.06150  0.85809  0.88260  Biso   1.000  C
  C69      1.0000 0.09660  0.81245  0.86139  Biso   1.000  C
  C70      1.0000 0.18710  0.78764  0.88185  Biso   1.000  C
  C71      1.0000 0.07830  0.92566  0.94991  Biso   1.000  C
  C72      1.0000 0.03640  0.78885  0.81884  Biso   1.000  C
  C73      1.0000 0.20670  0.33044  0.13129  Biso   1.000  C
  C74      1.0000 0.15490  0.37339  0.11275  Biso   1.000  C
  C75      1.0000 0.18830  0.39409  0.06626  Biso   1.000  C
  C76      1.0000 0.27620  0.37244  0.04123  Biso   1.000  C
  C77      1.0000 0.32960  0.32962  0.05944  Biso   1.000  C
  C78      1.0000 0.29580  0.30822  0.10577  Biso   1.000  C
  C79      1.0000 0.16500  0.30648  0.17897  Biso   1.000  C
  C80      1.0000 0.12280  0.43720  0.04360  Biso   1.000  C
  C81      1.0000 0.46760  0.26676  0.04391  Biso   1.000  C
  C82      1.0000 0.61430  0.29500  0.98438  Biso   1.000  C
  C83      1.0000 0.75840  0.30698  0.92332  Biso   1.000  C
  C84      1.0000 0.79250  0.35316  0.94400  Biso   1.000  C
  C85      1.0000 0.88290  0.37903  0.92409  Biso   1.000  C
  C86      1.0000 0.93850  0.35809  0.88260  Biso   1.000  C
  C87      1.0000 0.90340  0.31245  0.86139  Biso   1.000  C
  C88      1.0000 0.81290  0.28764  0.88185  Biso   1.000  C
  C89      1.0000 0.92170  0.42566  0.94991  Biso   1.000  C
  C90      1.0000 0.96360  0.28885  0.81884  Biso   1.000  C
  C91      1.0000 0.79330  0.66956  0.63129  Biso   1.000  C
  C92      1.0000 0.84510  0.62661  0.61275  Biso   1.000  C
  C93      1.0000 0.81170  0.60591  0.56626  Biso   1.000  C
  C94      1.0000 0.72380  0.62756  0.54123  Biso   1.000  C
  C95      1.0000 0.67040  0.67038  0.55944  Biso   1.000  C
  C96      1.0000 0.70420  0.69178  0.60577  Biso   1.000  C
  C97      1.0000 0.83500  0.69352  0.67897  Biso   1.000  C
  C98      1.0000 0.87720  0.56280  0.54360  Biso   1.000  C
  C99      1.0000 0.53240  0.73324  0.54391  Biso   1.000  C
  C100     1.0000 0.38570  0.70500  0.48438  Biso   1.000  C
  C101     1.0000 0.24160  0.69302  0.42332  Biso   1.000  C
  C102     1.0000 0.20750  0.64684  0.44400  Biso   1.000  C
  C103     1.0000 0.11710  0.62097  0.42409  Biso   1.000  C
  C104     1.0000 0.06150  0.64191  0.38260  Biso   1.000  C
  C105     1.0000 0.09660  0.68755  0.36139  Biso   1.000  C
  C106     1.0000 0.18710  0.71236  0.38185  Biso   1.000  C
  C107     1.0000 0.07830  0.57434  0.44991  Biso   1.000  C
  C108     1.0000 0.03640  0.71115  0.31884  Biso   1.000  C
  C109     1.0000 0.79330  0.83044  0.36871  Biso   1.000  C
  C110     1.0000 0.84510  0.87339  0.38725  Biso   1.000  C
  C111     1.0000 0.81170  0.89409  0.43374  Biso   1.000  C
  C112     1.0000 0.72380  0.87244  0.45877  Biso   1.000  C
  C113     1.0000 0.67040  0.82962  0.44056  Biso   1.000  C
  C114     1.0000 0.70420  0.80822  0.39423  Biso   1.000  C
  C115     1.0000 0.83500  0.80648  0.32103  Biso   1.000  C
  C116     1.0000 0.87720  0.93720  0.45640  Biso   1.000  C
  C117     1.0000 0.53240  0.76676  0.45609  Biso   1.000  C
  C118     1.0000 0.38570  0.79500  0.51562  Biso   1.000  C
  C119     1.0000 0.24160  0.80698  0.57668  Biso   1.000  C
  C120     1.0000 0.20750  0.85316  0.55600  Biso   1.000  C
  C121     1.0000 0.11710  0.87903  0.57591  Biso   1.000  C
  C122     1.0000 0.06150  0.85809  0.61740  Biso   1.000  C
  C123     1.0000 0.09660  0.81245  0.63861  Biso   1.000  C
  C124     1.0000 0.18710  0.78764  0.61815  Biso   1.000  C
  C125     1.0000 0.07830  0.92566  0.55009  Biso   1.000  C
  C126     1.0000 0.03640  0.78885  0.68116  Biso   1.000  C
  C127     1.0000 0.20670  0.16956  0.86871  Biso   1.000  C
  C128     1.0000 0.15490  0.12661  0.88725  Biso   1.000  C
  C129     1.0000 0.18830  0.10591  0.93374  Biso   1.000  C
  C130     1.0000 0.27620  0.12756  0.95877  Biso   1.000  C
  C131     1.0000 0.32960  0.17038  0.94056  Biso   1.000  C
  C132     1.0000 0.29580  0.19178  0.89423  Biso   1.000  C
  C133     1.0000 0.16500  0.19352  0.82103  Biso   1.000  C
  C134     1.0000 0.12280  0.06280  0.95640  Biso   1.000  C
  C135     1.0000 0.46760  0.23324  0.95609  Biso   1.000  C
  C136     1.0000 0.61430  0.20500  0.01562  Biso   1.000  C
  C137     1.0000 0.75840  0.19302  0.07668  Biso   1.000  C
  C138     1.0000 0.79250  0.14684  0.05600  Biso   1.000  C
  C139     1.0000 0.88290  0.12097  0.07591  Biso   1.000  C
  C140     1.0000 0.93850  0.14191  0.11740  Biso   1.000  C
  C141     1.0000 0.90340  0.18755  0.13861  Biso   1.000  C
  C142     1.0000 0.81290  0.21236  0.11815  Biso   1.000  C
  C143     1.0000 0.92170  0.07434  0.05009  Biso   1.000  C
  C144     1.0000 0.96360  0.21115  0.18116  Biso   1.000  C
  C145     1.0000 0.45810  0.75000  0.00000  Biso   1.000  C
  C146     1.0000 0.54190  0.25000  0.50000  Biso   1.000  C
  C147     1.0000 0.54190  0.25000  0.00000  Biso   1.000  C
  C148     1.0000 0.45810  0.75000  0.50000  Biso   1.000  C
  O1       1.0000 0.92180  0.67383  0.80208  Biso   1.000  O
  O2       1.0000 0.78996  0.73363  0.80410  Biso   1.000  O
  O3       1.0000 0.96660  0.55268  0.93567  Biso   1.000  O
  O4       1.0000 0.83752  0.54284  0.99622  Biso   1.000  O
  O5       1.0000 0.58998  0.68948  0.97037  Biso   1.000  O
  O6       1.0000 0.32535  0.72128  0.05925  Biso   1.000  O
  O7       1.0000 0.12511  0.56110  0.00994  Biso   1.000  O
  O8       1.0000 0.99469  0.55189  0.06948  Biso   1.000  O
  O9       1.0000 0.94832  0.69130  0.19733  Biso   1.000  O
  O10      1.0000 0.07670  0.75252  0.19821  Biso   1.000  O
  O11      1.0000 0.19851  0.97884  0.09392  Biso   1.000  O
  O12      1.0000 0.07820  0.32617  0.30208  Biso   1.000  O
  O13      1.0000 0.21004  0.26637  0.30410  Biso   1.000  O
  O14      1.0000 0.03340  0.44732  0.43567  Biso   1.000  O
  O15      1.0000 0.16248  0.45716  0.49622  Biso   1.000  O
  O16      1.0000 0.41002  0.31052  0.47037  Biso   1.000  O
  O17      1.0000 0.67465  0.27872  0.55925  Biso   1.000  O
  O18      1.0000 0.87489  0.43890  0.50994  Biso   1.000  O
  O19      1.0000 0.00531  0.44811  0.56948  Biso   1.000  O
  O20      1.0000 0.05168  0.30870  0.69733  Biso   1.000  O
  O21      1.0000 0.92330  0.24748  0.69821  Biso   1.000  O
  O22      1.0000 0.80149  0.02116  0.59392  Biso   1.000  O
  O23      1.0000 0.07820  0.17383  0.69792  Biso   1.000  O
  O24      1.0000 0.21004  0.23363  0.69590  Biso   1.000  O
  O25      1.0000 0.03340  0.05268  0.56433  Biso   1.000  O
  O26      1.0000 0.16248  0.04284  0.50378  Biso   1.000  O
  O27      1.0000 0.41002  0.18948  0.52963  Biso   1.000  O
  O28      1.0000 0.67465  0.22128  0.44075  Biso   1.000  O
  O29      1.0000 0.87489  0.06110  0.49006  Biso   1.000  O
  O30      1.0000 0.00531  0.05189  0.43052  Biso   1.000  O
  O31      1.0000 0.05168  0.19130  0.30267  Biso   1.000  O
  O32      1.0000 0.92330  0.25252  0.30179  Biso   1.000  O
  O33      1.0000 0.80149  0.47884  0.40608  Biso   1.000  O
  O34      1.0000 0.92180  0.82617  0.19792  Biso   1.000  O
  O35      1.0000 0.78996  0.76637  0.19590  Biso   1.000  O
  O36      1.0000 0.96660  0.94732  0.06433  Biso   1.000  O
  O37      1.0000 0.83752  0.95716  0.00378  Biso   1.000  O
  O38      1.0000 0.58998  0.81052  0.02963  Biso   1.000  O
  O39      1.0000 0.32535  0.77872  0.94075  Biso   1.000  O
  O40      1.0000 0.12511  0.93890  0.99006  Biso   1.000  O
  O41      1.0000 0.99469  0.94811  0.93052  Biso   1.000  O
  O42      1.0000 0.94832  0.80870  0.80267  Biso   1.000  O
  O43      1.0000 0.07670  0.74748  0.80179  Biso   1.000  O
  O44      1.0000 0.19851  0.52116  0.90608  Biso   1.000  O
  O45      1.0000 0.07820  0.32617  0.19792  Biso   1.000  O
  O46      1.0000 0.21004  0.26637  0.19590  Biso   1.000  O
  O47      1.0000 0.03340  0.44732  0.06433  Biso   1.000  O
  O48      1.0000 0.16248  0.45716  0.00378  Biso   1.000  O
  O49      1.0000 0.41002  0.31052  0.02963  Biso   1.000  O
  O50      1.0000 0.67465  0.27872  0.94075  Biso   1.000  O
  O51      1.0000 0.87489  0.43890  0.99006  Biso   1.000  O
  O52      1.0000 0.00531  0.44811  0.93052  Biso   1.000  O
  O53      1.0000 0.05168  0.30870  0.80267  Biso   1.000  O
  O54      1.0000 0.92330  0.24748  0.80179  Biso   1.000  O
  O55      1.0000 0.80149  0.02116  0.90608  Biso   1.000  O
  O56      1.0000 0.92180  0.67383  0.69792  Biso   1.000  O
  O57      1.0000 0.78996  0.73363  0.69590  Biso   1.000  O
  O58      1.0000 0.96660  0.55268  0.56433  Biso   1.000  O
  O59      1.0000 0.83752  0.54284  0.50378  Biso   1.000  O
  O60      1.0000 0.58998  0.68948  0.52963  Biso   1.000  O
  O61      1.0000 0.32535  0.72128  0.44075  Biso   1.000  O
  O62      1.0000 0.12511  0.56110  0.49006  Biso   1.000  O
  O63      1.0000 0.99469  0.55189  0.43052  Biso   1.000  O
  O64      1.0000 0.94832  0.69130  0.30267  Biso   1.000  O
  O65      1.0000 0.07670  0.75252  0.30179  Biso   1.000  O
  O66      1.0000 0.19851  0.97884  0.40608  Biso   1.000  O
  O67      1.0000 0.92180  0.82617  0.30208  Biso   1.000  O
  O68      1.0000 0.78996  0.76637  0.30410  Biso   1.000  O
  O69      1.0000 0.96660  0.94732  0.43567  Biso   1.000  O
  O70      1.0000 0.83752  0.95716  0.49622  Biso   1.000  O
  O71      1.0000 0.58998  0.81052  0.47037  Biso   1.000  O
  O72      1.0000 0.32535  0.77872  0.55925  Biso   1.000  O
  O73      1.0000 0.12511  0.93890  0.50994  Biso   1.000  O
  O74      1.0000 0.99469  0.94811  0.56948  Biso   1.000  O
  O75      1.0000 0.94832  0.80870  0.69733  Biso   1.000  O
  O76      1.0000 0.07670  0.74748  0.69821  Biso   1.000  O
  O77      1.0000 0.19851  0.52116  0.59392  Biso   1.000  O
  O78      1.0000 0.07820  0.17383  0.80208  Biso   1.000  O
  O79      1.0000 0.21004  0.23363  0.80410  Biso   1.000  O
  O80      1.0000 0.03340  0.05268  0.93567  Biso   1.000  O
  O81      1.0000 0.16248  0.04284  0.99622  Biso   1.000  O
  O82      1.0000 0.41002  0.18948  0.97037  Biso   1.000  O
  O83      1.0000 0.67465  0.22128  0.05925  Biso   1.000  O
  O84      1.0000 0.87489  0.06110  0.00994  Biso   1.000  O
  O85      1.0000 0.00531  0.05189  0.06948  Biso   1.000  O
  O86      1.0000 0.05168  0.19130  0.19733  Biso   1.000  O
  O87      1.0000 0.92330  0.25252  0.19821  Biso   1.000  O
  O88      1.0000 0.80149  0.47884  0.09392  Biso   1.000  O
  O89      1.0000 0.13800  0.64810  0.75000  Biso   1.000  O
  O90      1.0000 0.72440  0.83127  0.75000  Biso   1.000  O
  O91      1.0000 0.86200  0.35190  0.25000  Biso   1.000  O
  O92      1.0000 0.27560  0.16873  0.25000  Biso   1.000  O
  O93      1.0000 0.86200  0.14810  0.75000  Biso   1.000  O
  O94      1.0000 0.27560  0.33127  0.75000  Biso   1.000  O
  O95      1.0000 0.13800  0.85190  0.25000  Biso   1.000  O
  O96      1.0000 0.72440  0.66873  0.25000  Biso   1.000  O
