data_image0
_cell_length_a       18.6265
_cell_length_b       23.5793
_cell_length_c       30.1227
_cell_angle_alpha    93.223
_cell_angle_beta     90
_cell_angle_gamma    90

_symmetry_space_group_name_H-M    P 1
_symmetry_int_tables_number       1

loop_
  _symmetry_equiv_pos_as_xyz
  'x, y, z'

loop_
  _atom_site_label
  _atom_site_occupancy
  _atom_site_fract_x
  _atom_site_fract_y
  _atom_site_fract_z
  _atom_site_thermal_displace_type
  _atom_site_B_iso_or_equiv
  _atom_site_type_symbol
  Zn1      1.0000 0.57939  0.64994  0.61986  Biso   1.000  Zn
  Zn2      1.0000 0.42000  0.65749  0.20094  Biso   1.000  Zn
  Zn3      1.0000 0.50587  0.58959  0.69867  Biso   1.000  Zn
  Zn4      1.0000 0.50557  0.72193  0.69760  Biso   1.000  Zn
  Zn5      1.0000 0.00794  0.21959  0.61889  Biso   1.000  Zn
  Zn6      1.0000 0.00607  0.08472  0.62413  Biso   1.000  Zn
  Zn7      1.0000 0.58686  0.65769  0.19210  Biso   1.000  Zn
  Zn8      1.0000 0.40242  0.65000  0.63042  Biso   1.000  Zn
  Zn9      1.0000 0.92061  0.14994  0.11986  Biso   1.000  Zn
  Zn10     1.0000 0.08000  0.15749  0.70094  Biso   1.000  Zn
  Zn11     1.0000 0.99413  0.08959  0.19867  Biso   1.000  Zn
  Zn12     1.0000 0.99443  0.22193  0.19760  Biso   1.000  Zn
  Zn13     1.0000 0.49206  0.71959  0.11889  Biso   1.000  Zn
  Zn14     1.0000 0.49393  0.58472  0.12413  Biso   1.000  Zn
  Zn15     1.0000 0.91314  0.15769  0.69210  Biso   1.000  Zn
  Zn16     1.0000 0.09758  0.15000  0.13042  Biso   1.000  Zn
  H1       1.0000 0.52130  0.58400  0.83780  Biso   1.000  H
  H2       1.0000 0.88050  0.93610  0.62640  Biso   1.000  H
  H3       1.0000 0.58510  0.66960  0.48040  Biso   1.000  H
  H4       1.0000 0.65410  0.45910  0.70330  Biso   1.000  H
  H5       1.0000 0.36300  0.62790  0.41560  Biso   1.000  H
  H6       1.0000 0.10970  0.38130  0.19710  Biso   1.000  H
  H7       1.0000 0.41830  0.64000  0.34040  Biso   1.000  H
  H8       1.0000 0.63890  0.68440  0.40650  Biso   1.000  H
  H9       1.0000 0.64530  0.85580  0.69670  Biso   1.000  H
  H10      1.0000 0.77210  0.29200  0.72180  Biso   1.000  H
  H11      1.0000 0.70040  0.36880  0.73020  Biso   1.000  H
  H12      1.0000 0.34310  0.45420  0.12090  Biso   1.000  H
  H13      1.0000 0.21230  0.87600  0.25320  Biso   1.000  H
  H14      1.0000 0.85850  0.35150  0.61150  Biso   1.000  H
  H15      1.0000 0.29110  0.79940  0.24560  Biso   1.000  H
  H16      1.0000 0.52850  0.53650  0.90960  Biso   1.000  H
  H17      1.0000 0.15290  0.47860  0.21970  Biso   1.000  H
  H18      1.0000 0.23680  0.54790  0.21540  Biso   1.000  H
  H19      1.0000 0.73110  0.51520  0.58900  Biso   1.000  H
  H20      1.0000 0.67640  0.95680  0.71370  Biso   1.000  H
  H21      1.0000 0.37470  0.63400  0.49100  Biso   1.000  H
  H22      1.0000 0.75330  0.03190  0.70740  Biso   1.000  H
  H23      1.0000 0.76810  0.76050  0.61200  Biso   1.000  H
  H24      1.0000 0.49850  0.71100  0.98610  Biso   1.000  H
  H25      1.0000 0.84840  0.83310  0.60730  Biso   1.000  H
  H26      1.0000 0.30240  0.35610  0.09960  Biso   1.000  H
  H27      1.0000 0.80470  0.43850  0.58010  Biso   1.000  H
  H28      1.0000 0.33090  0.83690  0.11960  Biso   1.000  H
  H29      1.0000 0.49400  0.75950  0.91330  Biso   1.000  H
  H30      1.0000 0.14570  0.95370  0.22030  Biso   1.000  H
  H31      1.0000 0.62590  0.68300  0.33070  Biso   1.000  H
  H32      1.0000 0.49080  0.75270  0.83850  Biso   1.000  H
  H33      1.0000 0.19400  0.99360  0.09600  Biso   1.000  H
  H34      1.0000 0.27220  0.92060  0.08910  Biso   1.000  H
  H35      1.0000 0.21900  0.28670  0.10440  Biso   1.000  H
  H36      1.0000 0.97870  0.08400  0.33780  Biso   1.000  H
  H37      1.0000 0.61950  0.43610  0.12640  Biso   1.000  H
  H38      1.0000 0.91490  0.16960  0.98040  Biso   1.000  H
  H39      1.0000 0.84590  0.95910  0.20330  Biso   1.000  H
  H40      1.0000 0.13700  0.12790  0.91560  Biso   1.000  H
  H41      1.0000 0.39030  0.88130  0.69710  Biso   1.000  H
  H42      1.0000 0.08170  0.14000  0.84040  Biso   1.000  H
  H43      1.0000 0.86110  0.18440  0.90650  Biso   1.000  H
  H44      1.0000 0.85470  0.35580  0.19670  Biso   1.000  H
  H45      1.0000 0.72790  0.79200  0.22180  Biso   1.000  H
  H46      1.0000 0.79960  0.86880  0.23020  Biso   1.000  H
  H47      1.0000 0.15690  0.95420  0.62090  Biso   1.000  H
  H48      1.0000 0.28770  0.37600  0.75320  Biso   1.000  H
  H49      1.0000 0.64150  0.85150  0.11150  Biso   1.000  H
  H50      1.0000 0.20890  0.29940  0.74560  Biso   1.000  H
  H51      1.0000 0.97150  0.03650  0.40960  Biso   1.000  H
  H52      1.0000 0.34710  0.97860  0.71970  Biso   1.000  H
  H53      1.0000 0.26320  0.04790  0.71540  Biso   1.000  H
  H54      1.0000 0.76890  0.01520  0.08900  Biso   1.000  H
  H55      1.0000 0.82360  0.45680  0.21370  Biso   1.000  H
  H56      1.0000 0.12530  0.13400  0.99100  Biso   1.000  H
  H57      1.0000 0.74670  0.53190  0.20740  Biso   1.000  H
  H58      1.0000 0.73190  0.26050  0.11200  Biso   1.000  H
  H59      1.0000 0.00150  0.21100  0.48610  Biso   1.000  H
  H60      1.0000 0.65160  0.33310  0.10730  Biso   1.000  H
  H61      1.0000 0.19760  0.85610  0.59960  Biso   1.000  H
  H62      1.0000 0.69530  0.93850  0.08010  Biso   1.000  H
  H63      1.0000 0.16910  0.33690  0.61960  Biso   1.000  H
  H64      1.0000 0.00600  0.25950  0.41330  Biso   1.000  H
  H65      1.0000 0.35430  0.45370  0.72030  Biso   1.000  H
  H66      1.0000 0.87410  0.18300  0.83070  Biso   1.000  H
  H67      1.0000 0.00920  0.25270  0.33850  Biso   1.000  H
  H68      1.0000 0.30600  0.49360  0.59600  Biso   1.000  H
  H69      1.0000 0.22780  0.42060  0.58910  Biso   1.000  H
  H70      1.0000 0.28100  0.78670  0.60440  Biso   1.000  H
  C1       1.0000 0.51350  0.65750  0.27910  Biso   1.000  C
  C2       1.0000 0.51560  0.62200  0.90010  Biso   1.000  C
  C3       1.0000 0.51650  0.61910  0.85320  Biso   1.000  C
  C4       1.0000 0.46690  0.65030  0.40020  Biso   1.000  C
  C5       1.0000 0.51970  0.66070  0.32780  Biso   1.000  C
  C6       1.0000 0.79490  0.89270  0.64740  Biso   1.000  C
  C7       1.0000 0.84030  0.93950  0.64460  Biso   1.000  C
  C8       1.0000 0.48190  0.65100  0.49360  Biso   1.000  C
  C9       1.0000 0.19460  0.42240  0.17240  Biso   1.000  C
  C10      1.0000 0.69740  0.80170  0.65490  Biso   1.000  C
  C11      1.0000 0.68460  0.49480  0.64630  Biso   1.000  C
  C12      1.0000 0.54060  0.66240  0.46720  Biso   1.000  C
  C13      1.0000 0.73130  0.40760  0.67450  Biso   1.000  C
  C14      1.0000 0.53330  0.66300  0.42060  Biso   1.000  C
  C15      1.0000 0.68460  0.45470  0.67890  Biso   1.000  C
  C16      1.0000 0.40710  0.63760  0.42830  Biso   1.000  C
  C17      1.0000 0.14700  0.37720  0.17660  Biso   1.000  C
  C18      1.0000 0.46200  0.64900  0.35390  Biso   1.000  C
  C19      1.0000 0.77800  0.40180  0.63740  Biso   1.000  C
  C20      1.0000 0.59470  0.67570  0.39340  Biso   1.000  C
  C21      1.0000 0.68480  0.85230  0.67780  Biso   1.000  C
  C22      1.0000 0.87890  0.03840  0.66360  Biso   1.000  C
  C23      1.0000 0.77350  0.31940  0.70090  Biso   1.000  C
  C24      1.0000 0.51850  0.57580  0.96930  Biso   1.000  C
  C25      1.0000 0.73090  0.36500  0.70580  Biso   1.000  C
  C26      1.0000 0.73050  0.89980  0.67340  Biso   1.000  C
  C27      1.0000 0.30530  0.45860  0.14100  Biso   1.000  C
  C28      1.0000 0.23610  0.86810  0.22640  Biso   1.000  C
  C29      1.0000 0.15330  0.32740  0.15180  Biso   1.000  C
  C30      1.0000 0.31930  0.81270  0.18090  Biso   1.000  C
  C31      1.0000 0.82470  0.35440  0.63430  Biso   1.000  C
  C32      1.0000 0.82810  0.98890  0.66720  Biso   1.000  C
  C33      1.0000 0.28320  0.82260  0.22220  Biso   1.000  C
  C34      1.0000 0.30070  0.50700  0.16790  Biso   1.000  C
  C35      1.0000 0.52200  0.57170  0.92450  Biso   1.000  C
  C36      1.0000 0.25380  0.41530  0.14300  Biso   1.000  C
  C37      1.0000 0.22400  0.90240  0.19020  Biso   1.000  C
  C38      1.0000 0.51030  0.66740  0.82980  Biso   1.000  C
  C39      1.0000 0.10330  0.27890  0.15610  Biso   1.000  C
  C40      1.0000 0.19080  0.47340  0.19980  Biso   1.000  C
  C41      1.0000 0.24100  0.51460  0.19760  Biso   1.000  C
  C42      1.0000 0.73080  0.48800  0.61020  Biso   1.000  C
  C43      1.0000 0.26020  0.89240  0.15130  Biso   1.000  C
  C44      1.0000 0.71730  0.95230  0.69610  Biso   1.000  C
  C45      1.0000 0.41460  0.63990  0.47330  Biso   1.000  C
  C46      1.0000 0.10760  0.02770  0.16300  Biso   1.000  C
  C47      1.0000 0.76340  0.99690  0.69300  Biso   1.000  C
  C48      1.0000 0.75970  0.79490  0.62780  Biso   1.000  C
  C49      1.0000 0.50380  0.67620  0.97030  Biso   1.000  C
  C50      1.0000 0.80730  0.83860  0.62460  Biso   1.000  C
  C51      1.0000 0.16060  0.98010  0.15840  Biso   1.000  C
  C52      1.0000 0.26280  0.36190  0.11810  Biso   1.000  C
  C53      1.0000 0.50730  0.67480  0.92370  Biso   1.000  C
  C54      1.0000 0.37160  0.76410  0.17740  Biso   1.000  C
  C55      1.0000 0.77550  0.44270  0.60510  Biso   1.000  C
  C56      1.0000 0.30780  0.84520  0.14660  Biso   1.000  C
  C57      1.0000 0.49910  0.72410  0.89840  Biso   1.000  C
  C58      1.0000 0.17160  0.94710  0.19420  Biso   1.000  C
  C59      1.0000 0.58680  0.67460  0.34840  Biso   1.000  C
  C60      1.0000 0.49870  0.72030  0.85390  Biso   1.000  C
  C61      1.0000 0.50800  0.62880  0.99240  Biso   1.000  C
  C62      1.0000 0.20030  0.97020  0.11950  Biso   1.000  C
  C63      1.0000 0.82110  0.31240  0.66400  Biso   1.000  C
  C64      1.0000 0.24750  0.92740  0.11560  Biso   1.000  C
  C65      1.0000 0.87090  0.26360  0.66070  Biso   1.000  C
  C66      1.0000 0.50430  0.63130  0.04220  Biso   1.000  C
  C67      1.0000 0.35670  0.55190  0.16560  Biso   1.000  C
  C68      1.0000 0.64490  0.75410  0.65810  Biso   1.000  C
  C69      1.0000 0.51070  0.66340  0.78040  Biso   1.000  C
  C70      1.0000 0.49050  0.64990  0.54330  Biso   1.000  C
  C71      1.0000 0.63460  0.54450  0.65170  Biso   1.000  C
  C72      1.0000 0.21390  0.32040  0.12160  Biso   1.000  C
  C73      1.0000 0.98650  0.15750  0.77910  Biso   1.000  C
  C74      1.0000 0.98440  0.12200  0.40010  Biso   1.000  C
  C75      1.0000 0.98350  0.11910  0.35320  Biso   1.000  C
  C76      1.0000 0.03310  0.15030  0.90020  Biso   1.000  C
  C77      1.0000 0.98030  0.16070  0.82780  Biso   1.000  C
  C78      1.0000 0.70510  0.39270  0.14740  Biso   1.000  C
  C79      1.0000 0.65970  0.43950  0.14460  Biso   1.000  C
  C80      1.0000 0.01810  0.15100  0.99360  Biso   1.000  C
  C81      1.0000 0.30540  0.92240  0.67240  Biso   1.000  C
  C82      1.0000 0.80260  0.30170  0.15490  Biso   1.000  C
  C83      1.0000 0.81540  0.99480  0.14630  Biso   1.000  C
  C84      1.0000 0.95940  0.16240  0.96720  Biso   1.000  C
  C85      1.0000 0.76870  0.90760  0.17450  Biso   1.000  C
  C86      1.0000 0.96670  0.16300  0.92060  Biso   1.000  C
  C87      1.0000 0.81540  0.95470  0.17890  Biso   1.000  C
  C88      1.0000 0.09290  0.13760  0.92830  Biso   1.000  C
  C89      1.0000 0.35300  0.87720  0.67660  Biso   1.000  C
  C90      1.0000 0.03800  0.14900  0.85390  Biso   1.000  C
  C91      1.0000 0.72200  0.90180  0.13740  Biso   1.000  C
  C92      1.0000 0.90530  0.17570  0.89340  Biso   1.000  C
  C93      1.0000 0.81520  0.35230  0.17780  Biso   1.000  C
  C94      1.0000 0.62110  0.53840  0.16360  Biso   1.000  C
  C95      1.0000 0.72650  0.81940  0.20090  Biso   1.000  C
  C96      1.0000 0.98150  0.07580  0.46930  Biso   1.000  C
  C97      1.0000 0.76910  0.86500  0.20580  Biso   1.000  C
  C98      1.0000 0.76950  0.39980  0.17340  Biso   1.000  C
  C99      1.0000 0.19470  0.95860  0.64100  Biso   1.000  C
  C100     1.0000 0.26390  0.36810  0.72640  Biso   1.000  C
  C101     1.0000 0.34670  0.82740  0.65180  Biso   1.000  C
  C102     1.0000 0.18070  0.31270  0.68090  Biso   1.000  C
  C103     1.0000 0.67530  0.85440  0.13430  Biso   1.000  C
  C104     1.0000 0.67190  0.48890  0.16720  Biso   1.000  C
  C105     1.0000 0.21680  0.32260  0.72220  Biso   1.000  C
  C106     1.0000 0.19930  0.00700  0.66790  Biso   1.000  C
  C107     1.0000 0.97800  0.07170  0.42450  Biso   1.000  C
  C108     1.0000 0.24620  0.91530  0.64300  Biso   1.000  C
  C109     1.0000 0.27600  0.40240  0.69020  Biso   1.000  C
  C110     1.0000 0.98970  0.16740  0.32980  Biso   1.000  C
  C111     1.0000 0.39670  0.77890  0.65610  Biso   1.000  C
  C112     1.0000 0.30920  0.97340  0.69980  Biso   1.000  C
  C113     1.0000 0.25900  0.01460  0.69760  Biso   1.000  C
  C114     1.0000 0.76920  0.98800  0.11020  Biso   1.000  C
  C115     1.0000 0.23980  0.39240  0.65130  Biso   1.000  C
  C116     1.0000 0.78270  0.45230  0.19610  Biso   1.000  C
  C117     1.0000 0.08540  0.13990  0.97330  Biso   1.000  C
  C118     1.0000 0.39240  0.52770  0.66300  Biso   1.000  C
  C119     1.0000 0.73660  0.49690  0.19300  Biso   1.000  C
  C120     1.0000 0.74030  0.29490  0.12780  Biso   1.000  C
  C121     1.0000 0.99620  0.17620  0.47030  Biso   1.000  C
  C122     1.0000 0.69270  0.33860  0.12460  Biso   1.000  C
  C123     1.0000 0.33940  0.48010  0.65840  Biso   1.000  C
  C124     1.0000 0.23720  0.86190  0.61810  Biso   1.000  C
  C125     1.0000 0.99270  0.17480  0.42370  Biso   1.000  C
  C126     1.0000 0.12840  0.26410  0.67740  Biso   1.000  C
  C127     1.0000 0.72450  0.94270  0.10510  Biso   1.000  C
  C128     1.0000 0.19220  0.34520  0.64660  Biso   1.000  C
  C129     1.0000 0.00090  0.22410  0.39840  Biso   1.000  C
  C130     1.0000 0.32840  0.44710  0.69420  Biso   1.000  C
  C131     1.0000 0.91320  0.17460  0.84840  Biso   1.000  C
  C132     1.0000 0.00130  0.22030  0.35390  Biso   1.000  C
  C133     1.0000 0.99200  0.12880  0.49240  Biso   1.000  C
  C134     1.0000 0.29970  0.47020  0.61950  Biso   1.000  C
  C135     1.0000 0.67890  0.81240  0.16400  Biso   1.000  C
  C136     1.0000 0.25250  0.42740  0.61560  Biso   1.000  C
  C137     1.0000 0.62910  0.76360  0.16070  Biso   1.000  C
  C138     1.0000 0.99570  0.13130  0.54220  Biso   1.000  C
  C139     1.0000 0.14330  0.05190  0.66560  Biso   1.000  C
  C140     1.0000 0.85510  0.25410  0.15810  Biso   1.000  C
  C141     1.0000 0.98930  0.16340  0.28040  Biso   1.000  C
  C142     1.0000 0.00950  0.14990  0.04330  Biso   1.000  C
  C143     1.0000 0.86540  0.04450  0.15170  Biso   1.000  C
  C144     1.0000 0.28610  0.82040  0.62160  Biso   1.000  C
  O1       1.0000 0.43620  0.64230  0.56460  Biso   1.000  O
  O2       1.0000 0.56820  0.66440  0.25690  Biso   1.000  O
  O3       1.0000 0.35180  0.59460  0.19200  Biso   1.000  O
  O4       1.0000 0.50940  0.70990  0.76110  Biso   1.000  O
  O5       1.0000 0.59800  0.76000  0.68740  Biso   1.000  O
  O6       1.0000 0.93170  0.03020  0.63960  Biso   1.000  O
  O7       1.0000 0.36400  0.72630  0.20540  Biso   1.000  O
  O8       1.0000 0.45260  0.64840  0.26230  Biso   1.000  O
  O9       1.0000 0.49520  0.58480  0.06020  Biso   1.000  O
  O10      1.0000 0.06080  0.28250  0.18820  Biso   1.000  O
  O11      1.0000 0.06580  0.03030  0.19610  Biso   1.000  O
  O12      1.0000 0.91910  0.26430  0.62980  Biso   1.000  O
  O13      1.0000 0.85050  0.22000  0.68460  Biso   1.000  O
  O14      1.0000 0.86200  0.08500  0.68490  Biso   1.000  O
  O15      1.0000 0.51010  0.67770  0.06250  Biso   1.000  O
  O16      1.0000 0.29900  0.64420  0.60570  Biso   1.000  O
  O17      1.0000 0.59590  0.54810  0.68570  Biso   1.000  O
  O18      1.0000 0.41360  0.76140  0.14630  Biso   1.000  O
  O19      1.0000 0.50020  0.65320  0.66050  Biso   1.000  O
  O20      1.0000 0.49790  0.65590  0.15880  Biso   1.000  O
  O21      1.0000 0.51350  0.61470  0.76150  Biso   1.000  O
  O22      1.0000 0.63590  0.57990  0.62200  Biso   1.000  O
  O23      1.0000 0.65040  0.71190  0.63130  Biso   1.000  O
  O24      1.0000 0.40550  0.54310  0.13740  Biso   1.000  O
  O25      1.0000 0.55420  0.65740  0.55800  Biso   1.000  O
  O26      1.0000 0.10690  0.23790  0.12910  Biso   1.000  O
  O27      1.0000 0.10910  0.06230  0.13350  Biso   1.000  O
  O28      1.0000 0.02700  0.28410  0.57450  Biso   1.000  O
  O29      1.0000 0.06380  0.14230  0.06460  Biso   1.000  O
  O30      1.0000 0.93180  0.16440  0.75690  Biso   1.000  O
  O31      1.0000 0.14820  0.09460  0.69200  Biso   1.000  O
  O32      1.0000 0.99060  0.20990  0.26110  Biso   1.000  O
  O33      1.0000 0.90200  0.26000  0.18740  Biso   1.000  O
  O34      1.0000 0.56830  0.53020  0.13960  Biso   1.000  O
  O35      1.0000 0.13600  0.22630  0.70540  Biso   1.000  O
  O36      1.0000 0.04740  0.14840  0.76230  Biso   1.000  O
  O37      1.0000 0.00480  0.08480  0.56020  Biso   1.000  O
  O38      1.0000 0.43920  0.78250  0.68820  Biso   1.000  O
  O39      1.0000 0.43420  0.53030  0.69610  Biso   1.000  O
  O40      1.0000 0.58090  0.76430  0.12980  Biso   1.000  O
  O41      1.0000 0.64950  0.72000  0.18460  Biso   1.000  O
  O42      1.0000 0.63800  0.58500  0.18490  Biso   1.000  O
  O43      1.0000 0.98990  0.17770  0.56250  Biso   1.000  O
  O44      1.0000 0.20100  0.14420  0.10570  Biso   1.000  O
  O45      1.0000 0.90410  0.04810  0.18570  Biso   1.000  O
  O46      1.0000 0.08640  0.26140  0.64630  Biso   1.000  O
  O47      1.0000 0.99980  0.15320  0.16050  Biso   1.000  O
  O48      1.0000 0.00210  0.15590  0.65880  Biso   1.000  O
  O49      1.0000 0.98650  0.11470  0.26150  Biso   1.000  O
  O50      1.0000 0.86410  0.07990  0.12200  Biso   1.000  O
  O51      1.0000 0.84960  0.21190  0.13130  Biso   1.000  O
  O52      1.0000 0.09450  0.04310  0.63740  Biso   1.000  O
  O53      1.0000 0.94580  0.15740  0.05800  Biso   1.000  O
  O54      1.0000 0.39310  0.73790  0.62910  Biso   1.000  O
  O55      1.0000 0.39090  0.56230  0.63350  Biso   1.000  O
  O56      1.0000 0.47300  0.78410  0.07450  Biso   1.000  O
  Zn17     1.0000 0.07939  0.85006  0.88014  Biso   1.000  Zn
  Zn18     1.0000 0.92000  0.84251  0.29906  Biso   1.000  Zn
  Zn19     1.0000 0.00587  0.91041  0.80133  Biso   1.000  Zn
  Zn20     1.0000 0.00557  0.77807  0.80240  Biso   1.000  Zn
  Zn21     1.0000 0.50794  0.28041  0.88111  Biso   1.000  Zn
  Zn22     1.0000 0.50607  0.41528  0.87587  Biso   1.000  Zn
  Zn23     1.0000 0.08686  0.84231  0.30790  Biso   1.000  Zn
  Zn24     1.0000 0.90242  0.85000  0.86958  Biso   1.000  Zn
  Zn25     1.0000 0.42061  0.35006  0.38014  Biso   1.000  Zn
  Zn26     1.0000 0.58000  0.34251  0.79906  Biso   1.000  Zn
  Zn27     1.0000 0.49413  0.41041  0.30133  Biso   1.000  Zn
  Zn28     1.0000 0.49443  0.27807  0.30240  Biso   1.000  Zn
  Zn29     1.0000 0.99206  0.78041  0.38111  Biso   1.000  Zn
  Zn30     1.0000 0.99393  0.91528  0.37587  Biso   1.000  Zn
  Zn31     1.0000 0.41314  0.34231  0.80790  Biso   1.000  Zn
  Zn32     1.0000 0.59758  0.35000  0.36958  Biso   1.000  Zn
  H71      1.0000 0.02130  0.91600  0.66220  Biso   1.000  H
  H72      1.0000 0.38050  0.56390  0.87360  Biso   1.000  H
  H73      1.0000 0.08510  0.83040  0.01960  Biso   1.000  H
  H74      1.0000 0.15410  0.04090  0.79670  Biso   1.000  H
  H75      1.0000 0.86300  0.87210  0.08440  Biso   1.000  H
  H76      1.0000 0.60970  0.11870  0.30290  Biso   1.000  H
  H77      1.0000 0.91830  0.86000  0.15960  Biso   1.000  H
  H78      1.0000 0.13890  0.81560  0.09350  Biso   1.000  H
  H79      1.0000 0.14530  0.64420  0.80330  Biso   1.000  H
  H80      1.0000 0.27210  0.20800  0.77820  Biso   1.000  H
  H81      1.0000 0.20040  0.13120  0.76980  Biso   1.000  H
  H82      1.0000 0.84310  0.04580  0.37910  Biso   1.000  H
  H83      1.0000 0.71230  0.62400  0.24680  Biso   1.000  H
  H84      1.0000 0.35850  0.14850  0.88850  Biso   1.000  H
  H85      1.0000 0.79110  0.70060  0.25440  Biso   1.000  H
  H86      1.0000 0.02850  0.96350  0.59040  Biso   1.000  H
  H87      1.0000 0.65290  0.02140  0.28030  Biso   1.000  H
  H88      1.0000 0.73680  0.95210  0.28460  Biso   1.000  H
  H89      1.0000 0.23110  0.98480  0.91100  Biso   1.000  H
  H90      1.0000 0.17640  0.54320  0.78630  Biso   1.000  H
  H91      1.0000 0.87470  0.86600  0.00900  Biso   1.000  H
  H92      1.0000 0.25330  0.46810  0.79260  Biso   1.000  H
  H93      1.0000 0.26810  0.73950  0.88800  Biso   1.000  H
  H94      1.0000 0.99850  0.78900  0.51390  Biso   1.000  H
  H95      1.0000 0.34840  0.66690  0.89270  Biso   1.000  H
  H96      1.0000 0.80240  0.14390  0.40040  Biso   1.000  H
  H97      1.0000 0.30470  0.06150  0.91990  Biso   1.000  H
  H98      1.0000 0.83090  0.66310  0.38040  Biso   1.000  H
  H99      1.0000 0.99400  0.74050  0.58670  Biso   1.000  H
  H100     1.0000 0.64570  0.54630  0.27970  Biso   1.000  H
  H101     1.0000 0.12590  0.81700  0.16930  Biso   1.000  H
  H102     1.0000 0.99080  0.74730  0.66150  Biso   1.000  H
  H103     1.0000 0.69400  0.50640  0.40400  Biso   1.000  H
  H104     1.0000 0.77220  0.57940  0.41090  Biso   1.000  H
  H105     1.0000 0.71900  0.21330  0.39560  Biso   1.000  H
  H106     1.0000 0.47870  0.41600  0.16220  Biso   1.000  H
  H107     1.0000 0.11950  0.06390  0.37360  Biso   1.000  H
  H108     1.0000 0.41490  0.33040  0.51960  Biso   1.000  H
  H109     1.0000 0.34590  0.54090  0.29670  Biso   1.000  H
  H110     1.0000 0.63700  0.37210  0.58440  Biso   1.000  H
  H111     1.0000 0.89030  0.61870  0.80290  Biso   1.000  H
  H112     1.0000 0.58170  0.36000  0.65960  Biso   1.000  H
  H113     1.0000 0.36110  0.31560  0.59350  Biso   1.000  H
  H114     1.0000 0.35470  0.14420  0.30330  Biso   1.000  H
  H115     1.0000 0.22790  0.70800  0.27820  Biso   1.000  H
  H116     1.0000 0.29960  0.63120  0.26980  Biso   1.000  H
  H117     1.0000 0.65690  0.54580  0.87910  Biso   1.000  H
  H118     1.0000 0.78770  0.12400  0.74680  Biso   1.000  H
  H119     1.0000 0.14150  0.64850  0.38850  Biso   1.000  H
  H120     1.0000 0.70890  0.20060  0.75440  Biso   1.000  H
  H121     1.0000 0.47150  0.46350  0.09040  Biso   1.000  H
  H122     1.0000 0.84710  0.52140  0.78030  Biso   1.000  H
  H123     1.0000 0.76320  0.45210  0.78460  Biso   1.000  H
  H124     1.0000 0.26890  0.48480  0.41100  Biso   1.000  H
  H125     1.0000 0.32360  0.04320  0.28630  Biso   1.000  H
  H126     1.0000 0.62530  0.36600  0.50900  Biso   1.000  H
  H127     1.0000 0.24670  0.96810  0.29260  Biso   1.000  H
  H128     1.0000 0.23190  0.23950  0.38800  Biso   1.000  H
  H129     1.0000 0.50150  0.28900  0.01390  Biso   1.000  H
  H130     1.0000 0.15160  0.16690  0.39270  Biso   1.000  H
  H131     1.0000 0.69760  0.64390  0.90040  Biso   1.000  H
  H132     1.0000 0.19530  0.56150  0.41990  Biso   1.000  H
  H133     1.0000 0.66910  0.16310  0.88040  Biso   1.000  H
  H134     1.0000 0.50600  0.24050  0.08670  Biso   1.000  H
  H135     1.0000 0.85430  0.04630  0.77970  Biso   1.000  H
  H136     1.0000 0.37410  0.31700  0.66930  Biso   1.000  H
  H137     1.0000 0.50920  0.24730  0.16150  Biso   1.000  H
  H138     1.0000 0.80600  0.00640  0.90400  Biso   1.000  H
  H139     1.0000 0.72780  0.07940  0.91090  Biso   1.000  H
  H140     1.0000 0.78100  0.71330  0.89560  Biso   1.000  H
  C145     1.0000 0.01350  0.84250  0.22090  Biso   1.000  C
  C146     1.0000 0.01560  0.87800  0.59990  Biso   1.000  C
  C147     1.0000 0.01650  0.88090  0.64680  Biso   1.000  C
  C148     1.0000 0.96690  0.84970  0.09980  Biso   1.000  C
  C149     1.0000 0.01970  0.83930  0.17220  Biso   1.000  C
  C150     1.0000 0.29490  0.60730  0.85260  Biso   1.000  C
  C151     1.0000 0.34030  0.56050  0.85540  Biso   1.000  C
  C152     1.0000 0.98190  0.84900  0.00640  Biso   1.000  C
  C153     1.0000 0.69460  0.07760  0.32760  Biso   1.000  C
  C154     1.0000 0.19740  0.69830  0.84510  Biso   1.000  C
  C155     1.0000 0.18460  0.00520  0.85370  Biso   1.000  C
  C156     1.0000 0.04060  0.83760  0.03280  Biso   1.000  C
  C157     1.0000 0.23130  0.09240  0.82550  Biso   1.000  C
  C158     1.0000 0.03330  0.83700  0.07940  Biso   1.000  C
  C159     1.0000 0.18460  0.04530  0.82110  Biso   1.000  C
  C160     1.0000 0.90710  0.86240  0.07170  Biso   1.000  C
  C161     1.0000 0.64700  0.12280  0.32340  Biso   1.000  C
  C162     1.0000 0.96200  0.85100  0.14610  Biso   1.000  C
  C163     1.0000 0.27800  0.09820  0.86260  Biso   1.000  C
  C164     1.0000 0.09470  0.82430  0.10660  Biso   1.000  C
  C165     1.0000 0.18480  0.64770  0.82220  Biso   1.000  C
  C166     1.0000 0.37890  0.46160  0.83640  Biso   1.000  C
  C167     1.0000 0.27350  0.18060  0.79910  Biso   1.000  C
  C168     1.0000 0.01850  0.92420  0.53070  Biso   1.000  C
  C169     1.0000 0.23090  0.13500  0.79420  Biso   1.000  C
  C170     1.0000 0.23050  0.60020  0.82660  Biso   1.000  C
  C171     1.0000 0.80530  0.04140  0.35900  Biso   1.000  C
  C172     1.0000 0.73610  0.63190  0.27360  Biso   1.000  C
  C173     1.0000 0.65330  0.17260  0.34820  Biso   1.000  C
  C174     1.0000 0.81930  0.68730  0.31910  Biso   1.000  C
  C175     1.0000 0.32470  0.14560  0.86570  Biso   1.000  C
  C176     1.0000 0.32810  0.51110  0.83280  Biso   1.000  C
  C177     1.0000 0.78320  0.67740  0.27780  Biso   1.000  C
  C178     1.0000 0.80070  0.99300  0.33210  Biso   1.000  C
  C179     1.0000 0.02200  0.92830  0.57550  Biso   1.000  C
  C180     1.0000 0.75380  0.08470  0.35700  Biso   1.000  C
  C181     1.0000 0.72400  0.59760  0.30980  Biso   1.000  C
  C182     1.0000 0.01030  0.83260  0.67020  Biso   1.000  C
  C183     1.0000 0.60330  0.22110  0.34390  Biso   1.000  C
  C184     1.0000 0.69080  0.02660  0.30020  Biso   1.000  C
  C185     1.0000 0.74100  0.98540  0.30240  Biso   1.000  C
  C186     1.0000 0.23080  0.01200  0.88980  Biso   1.000  C
  C187     1.0000 0.76020  0.60760  0.34870  Biso   1.000  C
  C188     1.0000 0.21730  0.54770  0.80390  Biso   1.000  C
  C189     1.0000 0.91460  0.86010  0.02670  Biso   1.000  C
  C190     1.0000 0.60760  0.47230  0.33700  Biso   1.000  C
  C191     1.0000 0.26340  0.50310  0.80700  Biso   1.000  C
  C192     1.0000 0.25970  0.70510  0.87220  Biso   1.000  C
  C193     1.0000 0.00380  0.82380  0.52970  Biso   1.000  C
  C194     1.0000 0.30730  0.66140  0.87540  Biso   1.000  C
  C195     1.0000 0.66060  0.51990  0.34160  Biso   1.000  C
  C196     1.0000 0.76280  0.13810  0.38190  Biso   1.000  C
  C197     1.0000 0.00730  0.82520  0.57630  Biso   1.000  C
  C198     1.0000 0.87160  0.73590  0.32260  Biso   1.000  C
  C199     1.0000 0.27550  0.05730  0.89490  Biso   1.000  C
  C200     1.0000 0.80780  0.65480  0.35340  Biso   1.000  C
  C201     1.0000 0.99910  0.77590  0.60160  Biso   1.000  C
  C202     1.0000 0.67160  0.55290  0.30580  Biso   1.000  C
  C203     1.0000 0.08680  0.82540  0.15160  Biso   1.000  C
  C204     1.0000 0.99870  0.77970  0.64610  Biso   1.000  C
  C205     1.0000 0.00800  0.87120  0.50760  Biso   1.000  C
  C206     1.0000 0.70030  0.52980  0.38050  Biso   1.000  C
  C207     1.0000 0.32110  0.18760  0.83600  Biso   1.000  C
  C208     1.0000 0.74750  0.57260  0.38440  Biso   1.000  C
  C209     1.0000 0.37090  0.23640  0.83930  Biso   1.000  C
  C210     1.0000 0.00430  0.86870  0.45780  Biso   1.000  C
  C211     1.0000 0.85670  0.94810  0.33440  Biso   1.000  C
  C212     1.0000 0.14490  0.74590  0.84190  Biso   1.000  C
  C213     1.0000 0.01070  0.83660  0.71960  Biso   1.000  C
  C214     1.0000 0.99050  0.85010  0.95670  Biso   1.000  C
  C215     1.0000 0.13460  0.95550  0.84830  Biso   1.000  C
  C216     1.0000 0.71390  0.17960  0.37840  Biso   1.000  C
  C217     1.0000 0.48650  0.34250  0.72090  Biso   1.000  C
  C218     1.0000 0.48440  0.37800  0.09990  Biso   1.000  C
  C219     1.0000 0.48350  0.38090  0.14680  Biso   1.000  C
  C220     1.0000 0.53310  0.34970  0.59980  Biso   1.000  C
  C221     1.0000 0.48030  0.33930  0.67220  Biso   1.000  C
  C222     1.0000 0.20510  0.10730  0.35260  Biso   1.000  C
  C223     1.0000 0.15970  0.06050  0.35540  Biso   1.000  C
  C224     1.0000 0.51810  0.34900  0.50640  Biso   1.000  C
  C225     1.0000 0.80540  0.57760  0.82760  Biso   1.000  C
  C226     1.0000 0.30260  0.19830  0.34510  Biso   1.000  C
  C227     1.0000 0.31540  0.50520  0.35370  Biso   1.000  C
  C228     1.0000 0.45940  0.33760  0.53280  Biso   1.000  C
  C229     1.0000 0.26870  0.59240  0.32550  Biso   1.000  C
  C230     1.0000 0.46670  0.33700  0.57940  Biso   1.000  C
  C231     1.0000 0.31540  0.54530  0.32110  Biso   1.000  C
  C232     1.0000 0.59290  0.36240  0.57170  Biso   1.000  C
  C233     1.0000 0.85300  0.62280  0.82340  Biso   1.000  C
  C234     1.0000 0.53800  0.35100  0.64610  Biso   1.000  C
  C235     1.0000 0.22200  0.59820  0.36260  Biso   1.000  C
  C236     1.0000 0.40530  0.32430  0.60660  Biso   1.000  C
  C237     1.0000 0.31520  0.14770  0.32220  Biso   1.000  C
  C238     1.0000 0.12110  0.96160  0.33640  Biso   1.000  C
  C239     1.0000 0.22650  0.68060  0.29910  Biso   1.000  C
  C240     1.0000 0.48150  0.42420  0.03070  Biso   1.000  C
  C241     1.0000 0.26910  0.63500  0.29420  Biso   1.000  C
  C242     1.0000 0.26950  0.10020  0.32660  Biso   1.000  C
  C243     1.0000 0.69470  0.54140  0.85900  Biso   1.000  C
  C244     1.0000 0.76390  0.13190  0.77360  Biso   1.000  C
  C245     1.0000 0.84670  0.67260  0.84820  Biso   1.000  C
  C246     1.0000 0.68070  0.18730  0.81910  Biso   1.000  C
  C247     1.0000 0.17530  0.64560  0.36570  Biso   1.000  C
  C248     1.0000 0.17190  0.01110  0.33280  Biso   1.000  C
  C249     1.0000 0.71680  0.17740  0.77780  Biso   1.000  C
  C250     1.0000 0.69930  0.49300  0.83210  Biso   1.000  C
  C251     1.0000 0.47800  0.42830  0.07550  Biso   1.000  C
  C252     1.0000 0.74620  0.58470  0.85700  Biso   1.000  C
  C253     1.0000 0.77600  0.09760  0.80980  Biso   1.000  C
  C254     1.0000 0.48970  0.33260  0.17020  Biso   1.000  C
  C255     1.0000 0.89670  0.72110  0.84390  Biso   1.000  C
  C256     1.0000 0.80920  0.52660  0.80020  Biso   1.000  C
  C257     1.0000 0.75900  0.48540  0.80240  Biso   1.000  C
  C258     1.0000 0.26920  0.51200  0.38980  Biso   1.000  C
  C259     1.0000 0.73980  0.10760  0.84870  Biso   1.000  C
  C260     1.0000 0.28270  0.04770  0.30390  Biso   1.000  C
  C261     1.0000 0.58540  0.36010  0.52670  Biso   1.000  C
  C262     1.0000 0.89240  0.97230  0.83700  Biso   1.000  C
  C263     1.0000 0.23660  0.00310  0.30700  Biso   1.000  C
  C264     1.0000 0.24030  0.20510  0.37220  Biso   1.000  C
  C265     1.0000 0.49620  0.32380  0.02970  Biso   1.000  C
  C266     1.0000 0.19270  0.16140  0.37540  Biso   1.000  C
  C267     1.0000 0.83940  0.01990  0.84160  Biso   1.000  C
  C268     1.0000 0.73720  0.63810  0.88190  Biso   1.000  C
  C269     1.0000 0.49270  0.32520  0.07630  Biso   1.000  C
  C270     1.0000 0.62840  0.23590  0.82260  Biso   1.000  C
  C271     1.0000 0.22450  0.55730  0.39490  Biso   1.000  C
  C272     1.0000 0.69220  0.15480  0.85340  Biso   1.000  C
  C273     1.0000 0.50090  0.27590  0.10160  Biso   1.000  C
  C274     1.0000 0.82840  0.05290  0.80580  Biso   1.000  C
  C275     1.0000 0.41320  0.32540  0.65160  Biso   1.000  C
  C276     1.0000 0.50130  0.27970  0.14610  Biso   1.000  C
  C277     1.0000 0.49200  0.37120  0.00760  Biso   1.000  C
  C278     1.0000 0.79970  0.02980  0.88050  Biso   1.000  C
  C279     1.0000 0.17890  0.68760  0.33600  Biso   1.000  C
  C280     1.0000 0.75250  0.07260  0.88440  Biso   1.000  C
  C281     1.0000 0.12910  0.73640  0.33930  Biso   1.000  C
  C282     1.0000 0.49570  0.36870  0.95780  Biso   1.000  C
  C283     1.0000 0.64330  0.44810  0.83440  Biso   1.000  C
  C284     1.0000 0.35510  0.24590  0.34190  Biso   1.000  C
  C285     1.0000 0.48930  0.33660  0.21960  Biso   1.000  C
  C286     1.0000 0.50950  0.35010  0.45670  Biso   1.000  C
  C287     1.0000 0.36540  0.45550  0.34830  Biso   1.000  C
  C288     1.0000 0.78610  0.67960  0.87840  Biso   1.000  C
  O57      1.0000 0.93620  0.85770  0.93540  Biso   1.000  O
  O58      1.0000 0.06820  0.83560  0.24310  Biso   1.000  O
  O59      1.0000 0.85180  0.90540  0.30800  Biso   1.000  O
  O60      1.0000 0.00940  0.79010  0.73890  Biso   1.000  O
  O61      1.0000 0.09800  0.74000  0.81260  Biso   1.000  O
  O62      1.0000 0.43170  0.46980  0.86040  Biso   1.000  O
  O63      1.0000 0.86400  0.77370  0.29460  Biso   1.000  O
  O64      1.0000 0.95260  0.85160  0.23770  Biso   1.000  O
  O65      1.0000 0.99520  0.91520  0.43980  Biso   1.000  O
  O66      1.0000 0.56080  0.21750  0.31180  Biso   1.000  O
  O67      1.0000 0.56580  0.46970  0.30390  Biso   1.000  O
  O68      1.0000 0.41910  0.23570  0.87020  Biso   1.000  O
  O69      1.0000 0.35050  0.28000  0.81540  Biso   1.000  O
  O70      1.0000 0.36200  0.41500  0.81510  Biso   1.000  O
  O71      1.0000 0.01010  0.82230  0.43750  Biso   1.000  O
  O72      1.0000 0.79900  0.85580  0.89430  Biso   1.000  O
  O73      1.0000 0.09590  0.95190  0.81430  Biso   1.000  O
  O74      1.0000 0.91360  0.73860  0.35370  Biso   1.000  O
  O75      1.0000 0.00020  0.84680  0.83950  Biso   1.000  O
  O76      1.0000 0.99790  0.84410  0.34120  Biso   1.000  O
  O77      1.0000 0.01350  0.88530  0.73850  Biso   1.000  O
  O78      1.0000 0.13590  0.92010  0.87800  Biso   1.000  O
  O79      1.0000 0.15040  0.78810  0.86870  Biso   1.000  O
  O80      1.0000 0.90550  0.95690  0.36260  Biso   1.000  O
  O81      1.0000 0.05420  0.84260  0.94200  Biso   1.000  O
  O82      1.0000 0.60690  0.26210  0.37090  Biso   1.000  O
  O83      1.0000 0.60910  0.43770  0.36650  Biso   1.000  O
  O84      1.0000 0.52700  0.21590  0.92550  Biso   1.000  O
  O85      1.0000 0.56380  0.35770  0.43540  Biso   1.000  O
  O86      1.0000 0.43180  0.33560  0.74310  Biso   1.000  O
  O87      1.0000 0.64820  0.40540  0.80800  Biso   1.000  O
  O88      1.0000 0.49060  0.29010  0.23890  Biso   1.000  O
  O89      1.0000 0.40200  0.24000  0.31260  Biso   1.000  O
  O90      1.0000 0.06830  0.96980  0.36040  Biso   1.000  O
  O91      1.0000 0.63600  0.27370  0.79460  Biso   1.000  O
  O92      1.0000 0.54740  0.35160  0.73770  Biso   1.000  O
  O93      1.0000 0.50480  0.41520  0.93980  Biso   1.000  O
  O94      1.0000 0.93920  0.71750  0.81180  Biso   1.000  O
  O95      1.0000 0.93420  0.96970  0.80390  Biso   1.000  O
  O96      1.0000 0.08090  0.73570  0.37020  Biso   1.000  O
  O97      1.0000 0.14950  0.78000  0.31540  Biso   1.000  O
  O98      1.0000 0.13800  0.91500  0.31510  Biso   1.000  O
  O99      1.0000 0.48990  0.32230  0.93750  Biso   1.000  O
  O100     1.0000 0.70100  0.35580  0.39430  Biso   1.000  O
  O101     1.0000 0.40410  0.45190  0.31430  Biso   1.000  O
  O102     1.0000 0.58640  0.23860  0.85370  Biso   1.000  O
  O103     1.0000 0.49980  0.34680  0.33950  Biso   1.000  O
  O104     1.0000 0.50210  0.34410  0.84120  Biso   1.000  O
  O105     1.0000 0.48650  0.38530  0.23850  Biso   1.000  O
  O106     1.0000 0.36410  0.42010  0.37800  Biso   1.000  O
  O107     1.0000 0.34960  0.28810  0.36870  Biso   1.000  O
  O108     1.0000 0.59450  0.45690  0.86260  Biso   1.000  O
  O109     1.0000 0.44580  0.34260  0.44200  Biso   1.000  O
  O110     1.0000 0.89310  0.76210  0.87090  Biso   1.000  O
  O111     1.0000 0.89090  0.93770  0.86650  Biso   1.000  O
  O112     1.0000 0.97300  0.71590  0.42550  Biso   1.000  O
