data_image0
_cell_length_a       6.02
_cell_length_b       12.7722
_cell_length_c       13.1612
_cell_angle_alpha    118.829
_cell_angle_beta     90.609
_cell_angle_gamma    91.687

_symmetry_space_group_name_H-M    P 1
_symmetry_int_tables_number       1

loop_
  _symmetry_equiv_pos_as_xyz
  'x, y, z'

loop_
  _atom_site_label
  _atom_site_occupancy
  _atom_site_fract_x
  _atom_site_fract_y
  _atom_site_fract_z
  _atom_site_thermal_displace_type
  _atom_site_B_iso_or_equiv
  _atom_site_type_symbol
  Tm1      1.0000 0.77803  0.66065  0.82171  Biso   1.000  Tm
  Tm2      1.0000 0.22197  0.33935  0.17829  Biso   1.000  Tm
  H1       1.0000 0.69280  0.53410  0.16070  Biso   1.000  H
  H2       1.0000 0.08320  0.88190  0.07850  Biso   1.000  H
  H3       1.0000 0.37940  0.75180  0.91770  Biso   1.000  H
  H4       1.0000 0.50500  0.79050  0.01750  Biso   1.000  H
  H5       1.0000 0.80370  0.40440  0.68210  Biso   1.000  H
  H6       1.0000 0.92950  0.42950  0.77890  Biso   1.000  H
  H7       1.0000 0.64620  0.55900  0.51510  Biso   1.000  H
  H8       1.0000 0.30720  0.46590  0.83930  Biso   1.000  H
  H9       1.0000 0.91680  0.11810  0.92150  Biso   1.000  H
  H10      1.0000 0.62060  0.24820  0.08230  Biso   1.000  H
  H11      1.0000 0.49500  0.20950  0.98250  Biso   1.000  H
  H12      1.0000 0.19630  0.59560  0.31790  Biso   1.000  H
  H13      1.0000 0.07050  0.57050  0.22110  Biso   1.000  H
  H14      1.0000 0.35380  0.44100  0.48490  Biso   1.000  H
  C1       1.0000 0.61060  0.51890  0.09450  Biso   1.000  C
  C2       1.0000 0.68840  0.56630  0.02760  Biso   1.000  C
  C3       1.0000 0.90400  0.64000  0.05440  Biso   1.000  C
  C4       1.0000 0.88270  0.95070  0.90000  Biso   1.000  C
  C5       1.0000 0.04730  0.92880  0.04470  Biso   1.000  C
  C6       1.0000 0.75020  0.89300  0.78690  Biso   1.000  C
  C7       1.0000 0.12390  0.53960  0.59660  Biso   1.000  C
  C8       1.0000 0.79160  0.53480  0.51060  Biso   1.000  C
  C9       1.0000 0.26180  0.59410  0.70610  Biso   1.000  C
  C10      1.0000 0.38940  0.48110  0.90550  Biso   1.000  C
  C11      1.0000 0.31160  0.43370  0.97240  Biso   1.000  C
  C12      1.0000 0.09600  0.36000  0.94560  Biso   1.000  C
  C13      1.0000 0.11730  0.04930  0.10000  Biso   1.000  C
  C14      1.0000 0.95270  0.07120  0.95530  Biso   1.000  C
  C15      1.0000 0.24980  0.10700  0.21310  Biso   1.000  C
  C16      1.0000 0.87610  0.46040  0.40340  Biso   1.000  C
  C17      1.0000 0.20840  0.46520  0.48940  Biso   1.000  C
  C18      1.0000 0.73820  0.40590  0.29390  Biso   1.000  C
  N1       1.0000 0.42360  0.45220  0.06990  Biso   1.000  N
  N2       1.0000 0.92970  0.87890  0.94420  Biso   1.000  N
  N3       1.0000 0.91420  0.57310  0.60860  Biso   1.000  N
  N4       1.0000 0.57640  0.54780  0.93010  Biso   1.000  N
  N5       1.0000 0.07030  0.12110  0.05580  Biso   1.000  N
  N6       1.0000 0.08580  0.42690  0.39140  Biso   1.000  N
  O1       1.0000 0.95030  0.67910  0.98530  Biso   1.000  O
  O2       1.0000 0.02020  0.65560  0.13880  Biso   1.000  O
  O3       1.0000 0.69340  0.78560  0.74800  Biso   1.000  O
  O4       1.0000 0.50550  0.77870  0.94900  Biso   1.000  O
  O5       1.0000 0.87050  0.45910  0.74100  Biso   1.000  O
  O6       1.0000 0.69960  0.95600  0.74380  Biso   1.000  O
  O7       1.0000 0.46310  0.56890  0.70400  Biso   1.000  O
  O8       1.0000 0.16430  0.66580  0.79690  Biso   1.000  O
  O9       1.0000 0.04970  0.32090  0.01470  Biso   1.000  O
  O10      1.0000 0.97980  0.34440  0.86120  Biso   1.000  O
  O11      1.0000 0.30660  0.21440  0.25200  Biso   1.000  O
  O12      1.0000 0.49450  0.22130  0.05100  Biso   1.000  O
  O13      1.0000 0.12950  0.54090  0.25900  Biso   1.000  O
  O14      1.0000 0.30040  0.04400  0.25620  Biso   1.000  O
  O15      1.0000 0.53690  0.43110  0.29600  Biso   1.000  O
  O16      1.0000 0.83570  0.33420  0.20310  Biso   1.000  O
