data_FEDJUU_charged
_audit_creation_date              2014-07-02
_audit_creation_method            'Materials Studio'
_symmetry_space_group_name_H-M    'P1'
_symmetry_Int_Tables_number       1
_symmetry_cell_setting            triclinic
loop_
_symmetry_equiv_pos_as_xyz
  x,y,z
_cell_length_a                    11.2690
_cell_length_b                    13.1064
_cell_length_c                    13.1064
_cell_angle_alpha                 90.0000
_cell_angle_beta                  90.0000
_cell_angle_gamma                 90.0000
loop_
_atom_site_label
_atom_site_type_symbol
_atom_site_fract_x
_atom_site_fract_y
_atom_site_fract_z
_atom_site_U_iso_or_equiv
_atom_site_adp_type
_atom_site_occupancy
Zn1    Zn    0.00000   0.00000   0.50000   0.01267  Uiso   1.00
Zn2    Zn    0.50000   0.50000   0.00000   0.01267  Uiso   1.00
H1     H     0.26430   0.76820   0.55600   0.01267  Uiso   1.00
H2     H     0.42880   0.67180   0.60030   0.01267  Uiso   1.00
H3     H     0.49730   0.86110   0.82370   0.01267  Uiso   1.00
H4     H     0.33180   0.95470   0.78670   0.01267  Uiso   1.00
H5     H     0.59030   0.69510   0.81940   0.01267  Uiso   1.00
H6     H     0.57760   0.62930   0.71990   0.01267  Uiso   1.00
H7     H     0.69260   0.82080   0.71650   0.01267  Uiso   1.00
H8     H     0.69590   0.73910   0.62900   0.01267  Uiso   1.00
H9     H     0.26430   0.23180   0.44400   0.01267  Uiso   1.00
H10    H     0.42880   0.32820   0.39970   0.01267  Uiso   1.00
H11    H     0.49730   0.13890   0.17630   0.01267  Uiso   1.00
H12    H     0.33180   0.04530   0.21330   0.01267  Uiso   1.00
H13    H     0.59030   0.30490   0.18060   0.01267  Uiso   1.00
H14    H     0.57760   0.37070   0.28010   0.01267  Uiso   1.00
H15    H     0.69260   0.17920   0.28350   0.01267  Uiso   1.00
H16    H     0.69590   0.26090   0.37100   0.01267  Uiso   1.00
H17    H     0.76430   0.44400   0.76820   0.01267  Uiso   1.00
H18    H     0.92880   0.39970   0.67180   0.01267  Uiso   1.00
H19    H     0.99730   0.17630   0.86110   0.01267  Uiso   1.00
H20    H     0.83180   0.21330   0.95470   0.01267  Uiso   1.00
H21    H     0.09030   0.18060   0.69510   0.01267  Uiso   1.00
H22    H     0.07760   0.28010   0.62930   0.01267  Uiso   1.00
H23    H     0.19260   0.28350   0.82080   0.01267  Uiso   1.00
H24    H     0.19590   0.37100   0.73910   0.01267  Uiso   1.00
H25    H     0.76430   0.55600   0.23180   0.01267  Uiso   1.00
H26    H     0.92880   0.60030   0.32820   0.01267  Uiso   1.00
H27    H     0.99730   0.82370   0.13890   0.01267  Uiso   1.00
H28    H     0.83180   0.78670   0.04530   0.01267  Uiso   1.00
H29    H     0.09030   0.81940   0.30490   0.01267  Uiso   1.00
H30    H     0.07760   0.71990   0.37070   0.01267  Uiso   1.00
H31    H     0.19260   0.71650   0.17920   0.01267  Uiso   1.00
H32    H     0.19590   0.62900   0.26090   0.01267  Uiso   1.00
H33    H     0.73570   0.23180   0.55600   0.01267  Uiso   1.00
H34    H     0.57120   0.32820   0.60030   0.01267  Uiso   1.00
H35    H     0.50270   0.13890   0.82370   0.01267  Uiso   1.00
H36    H     0.66820   0.04530   0.78670   0.01267  Uiso   1.00
H37    H     0.40970   0.30490   0.81940   0.01267  Uiso   1.00
H38    H     0.42240   0.37070   0.71990   0.01267  Uiso   1.00
H39    H     0.30740   0.17920   0.71650   0.01267  Uiso   1.00
H40    H     0.30410   0.26090   0.62900   0.01267  Uiso   1.00
H41    H     0.73570   0.76820   0.44400   0.01267  Uiso   1.00
H42    H     0.57120   0.67180   0.39970   0.01267  Uiso   1.00
H43    H     0.50270   0.86110   0.17630   0.01267  Uiso   1.00
H44    H     0.66820   0.95470   0.21330   0.01267  Uiso   1.00
H45    H     0.40970   0.69510   0.18060   0.01267  Uiso   1.00
H46    H     0.42240   0.62930   0.28010   0.01267  Uiso   1.00
H47    H     0.30740   0.82080   0.28350   0.01267  Uiso   1.00
H48    H     0.30410   0.73910   0.37100   0.01267  Uiso   1.00
H49    H     0.23570   0.55600   0.76820   0.01267  Uiso   1.00
H50    H     0.07120   0.60030   0.67180   0.01267  Uiso   1.00
H51    H     0.00270   0.82370   0.86110   0.01267  Uiso   1.00
H52    H     0.16820   0.78670   0.95470   0.01267  Uiso   1.00
H53    H     0.90970   0.81940   0.69510   0.01267  Uiso   1.00
H54    H     0.92240   0.71990   0.62930   0.01267  Uiso   1.00
H55    H     0.80740   0.71650   0.82080   0.01267  Uiso   1.00
H56    H     0.80410   0.62900   0.73910   0.01267  Uiso   1.00
H57    H     0.23570   0.44400   0.23180   0.01267  Uiso   1.00
H58    H     0.07120   0.39970   0.32820   0.01267  Uiso   1.00
H59    H     0.00270   0.17630   0.13890   0.01267  Uiso   1.00
H60    H     0.16820   0.21330   0.04530   0.01267  Uiso   1.00
H61    H     0.90970   0.18060   0.30490   0.01267  Uiso   1.00
H62    H     0.92240   0.28010   0.37070   0.01267  Uiso   1.00
H63    H     0.80740   0.28350   0.17920   0.01267  Uiso   1.00
H64    H     0.80410   0.37100   0.26090   0.01267  Uiso   1.00
C1     C     0.17000   0.93470   0.64000   0.01267  Uiso   1.00
C2     C     0.27960   0.87070   0.66680   0.01267  Uiso   1.00
C3     C     0.31010   0.78720   0.61190   0.01267  Uiso   1.00
C4     C     0.40910   0.72940   0.63810   0.01267  Uiso   1.00
C5     C     0.44840   0.84090   0.77020   0.01267  Uiso   1.00
C6     C     0.35050   0.89770   0.74750   0.01267  Uiso   1.00
C7     C     0.58400   0.69850   0.74570   0.01267  Uiso   1.00
C8     C     0.69450   0.74820   0.70240   0.01267  Uiso   1.00
C9     C     0.17000   0.06530   0.36000   0.01267  Uiso   1.00
C10    C     0.27960   0.12930   0.33320   0.01267  Uiso   1.00
C11    C     0.31010   0.21280   0.38810   0.01267  Uiso   1.00
C12    C     0.40910   0.27060   0.36190   0.01267  Uiso   1.00
C13    C     0.44840   0.15910   0.22980   0.01267  Uiso   1.00
C14    C     0.35050   0.10230   0.25250   0.01267  Uiso   1.00
C15    C     0.58400   0.30150   0.25430   0.01267  Uiso   1.00
C16    C     0.69450   0.25180   0.29760   0.01267  Uiso   1.00
C17    C     0.67000   0.36000   0.93470   0.01267  Uiso   1.00
C18    C     0.77960   0.33320   0.87070   0.01267  Uiso   1.00
C19    C     0.81010   0.38810   0.78720   0.01267  Uiso   1.00
C20    C     0.90910   0.36190   0.72940   0.01267  Uiso   1.00
C21    C     0.94840   0.22980   0.84090   0.01267  Uiso   1.00
C22    C     0.85050   0.25250   0.89770   0.01267  Uiso   1.00
C23    C     0.08400   0.25430   0.69850   0.01267  Uiso   1.00
C24    C     0.19450   0.29760   0.74820   0.01267  Uiso   1.00
C25    C     0.67000   0.64000   0.06530   0.01267  Uiso   1.00
C26    C     0.77960   0.66680   0.12930   0.01267  Uiso   1.00
C27    C     0.81010   0.61190   0.21280   0.01267  Uiso   1.00
C28    C     0.90910   0.63810   0.27060   0.01267  Uiso   1.00
C29    C     0.94840   0.77020   0.15910   0.01267  Uiso   1.00
C30    C     0.85050   0.74750   0.10230   0.01267  Uiso   1.00
C31    C     0.08400   0.74570   0.30150   0.01267  Uiso   1.00
C32    C     0.19450   0.70240   0.25180   0.01267  Uiso   1.00
C33    C     0.83000   0.06530   0.64000   0.01267  Uiso   1.00
C34    C     0.72040   0.12930   0.66680   0.01267  Uiso   1.00
C35    C     0.68990   0.21280   0.61190   0.01267  Uiso   1.00
C36    C     0.59090   0.27060   0.63810   0.01267  Uiso   1.00
C37    C     0.55160   0.15910   0.77020   0.01267  Uiso   1.00
C38    C     0.64950   0.10230   0.74750   0.01267  Uiso   1.00
C39    C     0.41600   0.30150   0.74570   0.01267  Uiso   1.00
C40    C     0.30550   0.25180   0.70240   0.01267  Uiso   1.00
C41    C     0.83000   0.93470   0.36000   0.01267  Uiso   1.00
C42    C     0.72040   0.87070   0.33320   0.01267  Uiso   1.00
C43    C     0.68990   0.78720   0.38810   0.01267  Uiso   1.00
C44    C     0.59090   0.72940   0.36190   0.01267  Uiso   1.00
C45    C     0.55160   0.84090   0.22980   0.01267  Uiso   1.00
C46    C     0.64950   0.89770   0.25250   0.01267  Uiso   1.00
C47    C     0.41600   0.69850   0.25430   0.01267  Uiso   1.00
C48    C     0.30550   0.74820   0.29760   0.01267  Uiso   1.00
C49    C     0.33000   0.64000   0.93470   0.01267  Uiso   1.00
C50    C     0.22040   0.66680   0.87070   0.01267  Uiso   1.00
C51    C     0.18990   0.61190   0.78720   0.01267  Uiso   1.00
C52    C     0.09090   0.63810   0.72940   0.01267  Uiso   1.00
C53    C     0.05160   0.77020   0.84090   0.01267  Uiso   1.00
C54    C     0.14950   0.74750   0.89770   0.01267  Uiso   1.00
C55    C     0.91600   0.74570   0.69850   0.01267  Uiso   1.00
C56    C     0.80550   0.70240   0.74820   0.01267  Uiso   1.00
C57    C     0.33000   0.36000   0.06530   0.01267  Uiso   1.00
C58    C     0.22040   0.33320   0.12930   0.01267  Uiso   1.00
C59    C     0.18990   0.38810   0.21280   0.01267  Uiso   1.00
C60    C     0.09090   0.36190   0.27060   0.01267  Uiso   1.00
C61    C     0.05160   0.22980   0.15910   0.01267  Uiso   1.00
C62    C     0.14950   0.25250   0.10230   0.01267  Uiso   1.00
C63    C     0.91600   0.25430   0.30150   0.01267  Uiso   1.00
C64    C     0.80550   0.29760   0.25180   0.01267  Uiso   1.00
N1     N     0.47560   0.75690   0.71730   0.01267  Uiso   1.00
N2     N     0.47560   0.24310   0.28270   0.01267  Uiso   1.00
N3     N     0.97560   0.28270   0.75690   0.01267  Uiso   1.00
N4     N     0.97560   0.71730   0.24310   0.01267  Uiso   1.00
N5     N     0.52440   0.24310   0.71730   0.01267  Uiso   1.00
N6     N     0.52440   0.75690   0.28270   0.01267  Uiso   1.00
N7     N     0.02440   0.71730   0.75690   0.01267  Uiso   1.00
N8     N     0.02440   0.28270   0.24310   0.01267  Uiso   1.00
O1     O     0.11300   0.90440   0.56340   0.01267  Uiso   1.00
O2     O     0.14600   0.00810   0.69540   0.01267  Uiso   1.00
O3     O     0.11300   0.09560   0.43660   0.01267  Uiso   1.00
O4     O     0.14600   0.99190   0.30460   0.01267  Uiso   1.00
O5     O     0.61300   0.43660   0.90440   0.01267  Uiso   1.00
O6     O     0.64600   0.30460   0.00810   0.01267  Uiso   1.00
O7     O     0.61300   0.56340   0.09560   0.01267  Uiso   1.00
O8     O     0.64600   0.69540   0.99190   0.01267  Uiso   1.00
O9     O     0.88700   0.09560   0.56340   0.01267  Uiso   1.00
O10    O     0.85400   0.99190   0.69540   0.01267  Uiso   1.00
O11    O     0.88700   0.90440   0.43660   0.01267  Uiso   1.00
O12    O     0.85400   0.00810   0.30460   0.01267  Uiso   1.00
O13    O     0.38700   0.56340   0.90440   0.01267  Uiso   1.00
O14    O     0.35400   0.69540   0.00810   0.01267  Uiso   1.00
O15    O     0.38700   0.43660   0.09560   0.01267  Uiso   1.00
O16    O     0.35400   0.30460   0.99190   0.01267  Uiso   1.00
Cl1    Cl    0.00000   0.50000   0.00000   0.01267  Uiso   1.00
O17    O     0.07230   0.56270   0.06340   0.01267  Uiso   1.00
O18    O     0.07230   0.43730   0.93660   0.01267  Uiso   1.00
O19    O     0.92770   0.43730   0.06340   0.01267  Uiso   1.00
O20    O     0.92770   0.56270   0.93660   0.01267  Uiso   1.00
Cl2    Cl    0.50000   0.00000   0.50000   0.01267  Uiso   1.00
O21    O     0.57230   0.93660   0.56270   0.01267  Uiso   1.00
O22    O     0.57230   0.06340   0.43730   0.01267  Uiso   1.00
O23    O     0.42770   0.06340   0.56270   0.01267  Uiso   1.00
O24    O     0.42770   0.93660   0.43730   0.01267  Uiso   1.00
Cl3    Cl    0.75000   0.50000   0.50000   0.01267  Uiso   1.00
O25    O     0.82110   0.58860   0.50210   0.01267  Uiso   1.00
O26    O     0.82110   0.41140   0.49790   0.01267  Uiso   1.00
O27    O     0.67890   0.50210   0.58860   0.01267  Uiso   1.00
O28    O     0.67890   0.49790   0.41140   0.01267  Uiso   1.00
Cl4    Cl    0.25000   0.50000   0.50000   0.01267  Uiso   1.00
O29    O     0.32110   0.49790   0.58860   0.01267  Uiso   1.00
O30    O     0.32110   0.50210   0.41140   0.01267  Uiso   1.00
O31    O     0.17890   0.41140   0.50210   0.01267  Uiso   1.00
O32    O     0.17890   0.58860   0.49790   0.01267  Uiso   1.00
