data_image0
_cell_length_a       12.7732
_cell_length_b       12.7732
_cell_length_c       11.645
_cell_angle_alpha    90
_cell_angle_beta     90
_cell_angle_gamma    90

_symmetry_space_group_name_H-M    "P 1"
_symmetry_int_tables_number       1

loop_
  _symmetry_equiv_pos_as_xyz
  'x, y, z'

loop_
  _atom_site_label
  _atom_site_occupancy
  _atom_site_fract_x
  _atom_site_fract_y
  _atom_site_fract_z
  _atom_site_thermal_displace_type
  _atom_site_B_iso_or_equiv
  _atom_site_type_symbol
  O1       1.0000 0.38658  0.54880  0.36202  Biso   1.000  O
  O2       1.0000 0.48800  0.68840  0.37550  Biso   1.000  O
  C1       1.0000 0.42110  0.63380  0.32590  Biso   1.000  C
  C2       1.0000 0.37580  0.67460  0.21330  Biso   1.000  C
  C3       1.0000 0.28370  0.63430  0.16930  Biso   1.000  C
  H1       1.0000 0.25010  0.57890  0.20580  Biso   1.000  H
  C4       1.0000 0.24220  0.67740  0.07070  Biso   1.000  C
  H2       1.0000 0.17970  0.65150  0.04130  Biso   1.000  H
  N1       1.0000 0.29119  0.75660  0.01659  Biso   1.000  N
  C5       1.0000 0.38280  0.79360  0.05540  Biso   1.000  C
  H3       1.0000 0.41740  0.84600  0.01500  Biso   1.000  H
  C6       1.0000 0.42600  0.75410  0.15510  Biso   1.000  C
  H4       1.0000 0.48870  0.78110  0.18290  Biso   1.000  H
  C7       1.0000 0.24690  0.80140  0.90887  Biso   1.000  C
  H5       1.0000 0.26190  0.87580  0.90550  Biso   1.000  H
  H6       1.0000 0.17150  0.79250  0.90860  Biso   1.000  H
  C8       1.0000 0.29350  0.74760  0.80490  Biso   1.000  C
  H7       1.0000 0.27860  0.67320  0.80830  Biso   1.000  H
  H8       1.0000 0.36890  0.75670  0.80500  Biso   1.000  H
  O3       1.0000 0.61342  0.45120  0.36202  Biso   1.000  O
  O4       1.0000 0.51200  0.31160  0.37550  Biso   1.000  O
  C9       1.0000 0.57890  0.36620  0.32590  Biso   1.000  C
  C10      1.0000 0.62420  0.32540  0.21330  Biso   1.000  C
  C11      1.0000 0.71630  0.36570  0.16930  Biso   1.000  C
  H9       1.0000 0.74990  0.42110  0.20580  Biso   1.000  H
  C12      1.0000 0.75780  0.32260  0.07070  Biso   1.000  C
  H10      1.0000 0.82030  0.34850  0.04130  Biso   1.000  H
  N2       1.0000 0.70881  0.24340  0.01659  Biso   1.000  N
  C13      1.0000 0.61720  0.20640  0.05540  Biso   1.000  C
  H11      1.0000 0.58260  0.15400  0.01500  Biso   1.000  H
  C14      1.0000 0.57400  0.24590  0.15510  Biso   1.000  C
  H12      1.0000 0.51130  0.21890  0.18290  Biso   1.000  H
  C15      1.0000 0.75310  0.19860  0.90887  Biso   1.000  C
  H13      1.0000 0.73810  0.12420  0.90550  Biso   1.000  H
  H14      1.0000 0.82850  0.20750  0.90860  Biso   1.000  H
  C16      1.0000 0.70650  0.25240  0.80490  Biso   1.000  C
  H15      1.0000 0.72140  0.32680  0.80830  Biso   1.000  H
  H16      1.0000 0.63110  0.24330  0.80500  Biso   1.000  H
  O5       1.0000 0.54880  0.61342  0.63798  Biso   1.000  O
  O6       1.0000 0.68840  0.51200  0.62450  Biso   1.000  O
  C17      1.0000 0.63380  0.57890  0.67410  Biso   1.000  C
  C18      1.0000 0.67460  0.62420  0.78670  Biso   1.000  C
  C19      1.0000 0.63430  0.71630  0.83070  Biso   1.000  C
  H17      1.0000 0.57890  0.74990  0.79420  Biso   1.000  H
  C20      1.0000 0.67740  0.75780  0.92930  Biso   1.000  C
  H18      1.0000 0.65150  0.82030  0.95870  Biso   1.000  H
  N3       1.0000 0.75660  0.70881  0.98341  Biso   1.000  N
  C21      1.0000 0.79360  0.61720  0.94460  Biso   1.000  C
  H19      1.0000 0.84600  0.58260  0.98500  Biso   1.000  H
  C22      1.0000 0.75410  0.57400  0.84490  Biso   1.000  C
  H20      1.0000 0.78110  0.51130  0.81710  Biso   1.000  H
  C23      1.0000 0.80140  0.75310  0.09113  Biso   1.000  C
  H21      1.0000 0.87580  0.73810  0.09450  Biso   1.000  H
  H22      1.0000 0.79250  0.82850  0.09140  Biso   1.000  H
  C24      1.0000 0.74760  0.70650  0.19510  Biso   1.000  C
  H23      1.0000 0.67320  0.72140  0.19170  Biso   1.000  H
  H24      1.0000 0.75670  0.63110  0.19500  Biso   1.000  H
  O7       1.0000 0.45120  0.38658  0.63798  Biso   1.000  O
  O8       1.0000 0.31160  0.48800  0.62450  Biso   1.000  O
  C25      1.0000 0.36620  0.42110  0.67410  Biso   1.000  C
  C26      1.0000 0.32540  0.37580  0.78670  Biso   1.000  C
  C27      1.0000 0.36570  0.28370  0.83070  Biso   1.000  C
  H25      1.0000 0.42110  0.25010  0.79420  Biso   1.000  H
  C28      1.0000 0.32260  0.24220  0.92930  Biso   1.000  C
  H26      1.0000 0.34850  0.17970  0.95870  Biso   1.000  H
  N4       1.0000 0.24340  0.29119  0.98341  Biso   1.000  N
  C29      1.0000 0.20640  0.38280  0.94460  Biso   1.000  C
  H27      1.0000 0.15400  0.41740  0.98500  Biso   1.000  H
  C30      1.0000 0.24590  0.42600  0.84490  Biso   1.000  C
  H28      1.0000 0.21890  0.48870  0.81710  Biso   1.000  H
  C31      1.0000 0.19860  0.24690  0.09113  Biso   1.000  C
  H29      1.0000 0.12420  0.26190  0.09450  Biso   1.000  H
  H30      1.0000 0.20750  0.17150  0.09140  Biso   1.000  H
  C32      1.0000 0.25240  0.29350  0.19510  Biso   1.000  C
  H31      1.0000 0.32680  0.27860  0.19170  Biso   1.000  H
  H32      1.0000 0.24330  0.36890  0.19500  Biso   1.000  H
  O9       1.0000 0.88658  0.95120  0.86202  Biso   1.000  O
  O10      1.0000 0.98800  0.81160  0.87550  Biso   1.000  O
  C33      1.0000 0.92110  0.86620  0.82590  Biso   1.000  C
  C34      1.0000 0.87580  0.82540  0.71330  Biso   1.000  C
  C35      1.0000 0.78370  0.86570  0.66930  Biso   1.000  C
  H33      1.0000 0.75010  0.92110  0.70580  Biso   1.000  H
  C36      1.0000 0.74220  0.82260  0.57070  Biso   1.000  C
  H34      1.0000 0.67970  0.84850  0.54130  Biso   1.000  H
  N5       1.0000 0.79119  0.74340  0.51659  Biso   1.000  N
  C37      1.0000 0.88280  0.70640  0.55540  Biso   1.000  C
  H35      1.0000 0.91740  0.65400  0.51500  Biso   1.000  H
  C38      1.0000 0.92600  0.74590  0.65510  Biso   1.000  C
  H36      1.0000 0.98870  0.71890  0.68290  Biso   1.000  H
  C39      1.0000 0.74690  0.69860  0.40887  Biso   1.000  C
  H37      1.0000 0.76190  0.62420  0.40550  Biso   1.000  H
  H38      1.0000 0.67150  0.70750  0.40860  Biso   1.000  H
  C40      1.0000 0.79350  0.75240  0.30490  Biso   1.000  C
  H39      1.0000 0.77860  0.82680  0.30830  Biso   1.000  H
  H40      1.0000 0.86890  0.74330  0.30500  Biso   1.000  H
  O11      1.0000 0.11342  0.04880  0.86202  Biso   1.000  O
  O12      1.0000 0.01200  0.18840  0.87550  Biso   1.000  O
  C41      1.0000 0.07890  0.13380  0.82590  Biso   1.000  C
  C42      1.0000 0.12420  0.17460  0.71330  Biso   1.000  C
  C43      1.0000 0.21630  0.13430  0.66930  Biso   1.000  C
  H41      1.0000 0.24990  0.07890  0.70580  Biso   1.000  H
  C44      1.0000 0.25780  0.17740  0.57070  Biso   1.000  C
  H42      1.0000 0.32030  0.15150  0.54130  Biso   1.000  H
  N6       1.0000 0.20881  0.25660  0.51659  Biso   1.000  N
  C45      1.0000 0.11720  0.29360  0.55540  Biso   1.000  C
  H43      1.0000 0.08260  0.34600  0.51500  Biso   1.000  H
  C46      1.0000 0.07400  0.25410  0.65510  Biso   1.000  C
  H44      1.0000 0.01130  0.28110  0.68290  Biso   1.000  H
  C47      1.0000 0.25310  0.30140  0.40887  Biso   1.000  C
  H45      1.0000 0.23810  0.37580  0.40550  Biso   1.000  H
  H46      1.0000 0.32850  0.29250  0.40860  Biso   1.000  H
  C48      1.0000 0.20650  0.24760  0.30490  Biso   1.000  C
  H47      1.0000 0.22140  0.17320  0.30830  Biso   1.000  H
  H48      1.0000 0.13110  0.25670  0.30500  Biso   1.000  H
  O13      1.0000 0.04880  0.88658  0.13798  Biso   1.000  O
  O14      1.0000 0.18840  0.98800  0.12450  Biso   1.000  O
  C49      1.0000 0.13380  0.92110  0.17410  Biso   1.000  C
  C50      1.0000 0.17460  0.87580  0.28670  Biso   1.000  C
  C51      1.0000 0.13430  0.78370  0.33070  Biso   1.000  C
  H49      1.0000 0.07890  0.75010  0.29420  Biso   1.000  H
  C52      1.0000 0.17740  0.74220  0.42930  Biso   1.000  C
  H50      1.0000 0.15150  0.67970  0.45870  Biso   1.000  H
  N7       1.0000 0.25660  0.79119  0.48341  Biso   1.000  N
  C53      1.0000 0.29360  0.88280  0.44460  Biso   1.000  C
  H51      1.0000 0.34600  0.91740  0.48500  Biso   1.000  H
  C54      1.0000 0.25410  0.92600  0.34490  Biso   1.000  C
  H52      1.0000 0.28110  0.98870  0.31710  Biso   1.000  H
  C55      1.0000 0.30140  0.74690  0.59113  Biso   1.000  C
  H53      1.0000 0.37580  0.76190  0.59450  Biso   1.000  H
  H54      1.0000 0.29250  0.67150  0.59140  Biso   1.000  H
  C56      1.0000 0.24760  0.79350  0.69510  Biso   1.000  C
  H55      1.0000 0.17320  0.77860  0.69170  Biso   1.000  H
  H56      1.0000 0.25670  0.86890  0.69500  Biso   1.000  H
  O15      1.0000 0.95120  0.11342  0.13798  Biso   1.000  O
  O16      1.0000 0.81160  0.01200  0.12450  Biso   1.000  O
  C57      1.0000 0.86620  0.07890  0.17410  Biso   1.000  C
  C58      1.0000 0.82540  0.12420  0.28670  Biso   1.000  C
  C59      1.0000 0.86570  0.21630  0.33070  Biso   1.000  C
  H57      1.0000 0.92110  0.24990  0.29420  Biso   1.000  H
  C60      1.0000 0.82260  0.25780  0.42930  Biso   1.000  C
  H58      1.0000 0.84850  0.32030  0.45870  Biso   1.000  H
  N8       1.0000 0.74340  0.20881  0.48341  Biso   1.000  N
  C61      1.0000 0.70640  0.11720  0.44460  Biso   1.000  C
  H59      1.0000 0.65400  0.08260  0.48500  Biso   1.000  H
  C62      1.0000 0.74590  0.07400  0.34490  Biso   1.000  C
  H60      1.0000 0.71890  0.01130  0.31710  Biso   1.000  H
  C63      1.0000 0.69860  0.25310  0.59113  Biso   1.000  C
  H61      1.0000 0.62420  0.23810  0.59450  Biso   1.000  H
  H62      1.0000 0.70750  0.32850  0.59140  Biso   1.000  H
  C64      1.0000 0.75240  0.20650  0.69510  Biso   1.000  C
  H63      1.0000 0.82680  0.22140  0.69170  Biso   1.000  H
  H64      1.0000 0.74330  0.13110  0.69500  Biso   1.000  H
  Cd1      1.0000 0.50000  0.50000  0.50000  Biso   1.000  Cd
  Cd2      1.0000 0.00000  0.00000  0.00000  Biso   1.000  Cd
