data_image0
_cell_length_a       14.02
_cell_length_b       15.082
_cell_length_c       15.121
_cell_angle_alpha    76.892
_cell_angle_beta     86.55
_cell_angle_gamma    83.446

_symmetry_space_group_name_H-M    P 1
_symmetry_int_tables_number       1

loop_
  _symmetry_equiv_pos_as_xyz
  'x, y, z'

loop_
  _atom_site_label
  _atom_site_occupancy
  _atom_site_fract_x
  _atom_site_fract_y
  _atom_site_fract_z
  _atom_site_thermal_displace_type
  _atom_site_B_iso_or_equiv
  _atom_site_type_symbol
  Zn1      1.0000 0.89806  0.10985  0.82918  Biso   1.000  Zn
  Zn2      1.0000 0.68781  0.13016  0.83556  Biso   1.000  Zn
  H1       1.0000 0.21040  0.11720  0.96640  Biso   1.000  H
  H2       1.0000 0.23120  0.12410  0.69680  Biso   1.000  H
  H3       1.0000 0.35910  0.06380  0.96670  Biso   1.000  H
  H4       1.0000 0.93230  0.10230  0.11170  Biso   1.000  H
  H5       1.0000 0.93550  0.11020  0.26030  Biso   1.000  H
  H6       1.0000 0.64270  0.12580  0.12720  Biso   1.000  H
  H7       1.0000 0.04920  0.10510  0.96300  Biso   1.000  H
  H8       1.0000 0.06670  0.12250  0.69930  Biso   1.000  H
  H9       1.0000 0.65770  0.16830  0.54460  Biso   1.000  H
  H10      1.0000 0.93930  0.08090  0.54490  Biso   1.000  H
  H11      1.0000 0.64390  0.43050  0.81900  Biso   1.000  H
  H12      1.0000 0.93280  0.07190  0.39650  Biso   1.000  H
  H13      1.0000 0.65540  0.57840  0.82740  Biso   1.000  H
  H14      1.0000 0.94180  0.81180  0.84400  Biso   1.000  H
  H15      1.0000 0.65430  0.70270  0.82410  Biso   1.000  H
  H16      1.0000 0.65700  0.84950  0.84060  Biso   1.000  H
  H17      1.0000 0.52540  0.06670  0.96550  Biso   1.000  H
  H18      1.0000 0.93020  0.40030  0.78480  Biso   1.000  H
  H19      1.0000 0.36440  0.18780  0.70150  Biso   1.000  H
  H20      1.0000 0.53020  0.19110  0.70640  Biso   1.000  H
  C1       1.0000 0.34520  0.12310  0.83230  Biso   1.000  C
  C2       1.0000 0.24080  0.11970  0.83250  Biso   1.000  C
  C3       1.0000 0.18300  0.11600  0.91080  Biso   1.000  C
  C4       1.0000 0.78610  0.11230  0.00420  Biso   1.000  C
  C5       1.0000 0.79970  0.12600  0.66080  Biso   1.000  C
  C6       1.0000 0.19500  0.12150  0.75230  Biso   1.000  C
  C7       1.0000 0.39310  0.08890  0.91210  Biso   1.000  C
  C8       1.0000 0.78080  0.29480  0.81000  Biso   1.000  C
  C9       1.0000 0.78800  0.11320  0.10280  Biso   1.000  C
  C10      1.0000 0.87340  0.10820  0.14540  Biso   1.000  C
  C11      1.0000 0.87570  0.11150  0.23340  Biso   1.000  C
  C12      1.0000 0.80050  0.84900  0.84160  Biso   1.000  C
  C13      1.0000 0.70270  0.12050  0.15510  Biso   1.000  C
  C14      1.0000 0.79370  0.11980  0.38150  Biso   1.000  C
  C15      1.0000 0.78560  0.39300  0.80780  Biso   1.000  C
  C16      1.0000 0.08680  0.11080  0.90810  Biso   1.000  C
  C17      1.0000 0.09720  0.11940  0.75450  Biso   1.000  C
  C18      1.0000 0.79120  0.11680  0.28460  Biso   1.000  C
  C19      1.0000 0.71490  0.14860  0.51450  Biso   1.000  C
  C20      1.0000 0.79910  0.12360  0.56240  Biso   1.000  C
  C21      1.0000 0.88000  0.09700  0.51510  Biso   1.000  C
  C22      1.0000 0.80130  0.94400  0.85000  Biso   1.000  C
  C23      1.0000 0.70550  0.45170  0.81620  Biso   1.000  C
  C24      1.0000 0.87670  0.09330  0.42700  Biso   1.000  C
  C25      1.0000 0.79680  0.66920  0.82320  Biso   1.000  C
  C26      1.0000 0.71230  0.53950  0.82040  Biso   1.000  C
  C27      1.0000 0.88160  0.79040  0.83930  Biso   1.000  C
  C28      1.0000 0.71430  0.72510  0.82760  Biso   1.000  C
  C29      1.0000 0.71610  0.81260  0.83710  Biso   1.000  C
  C30      1.0000 0.79600  0.57180  0.81490  Biso   1.000  C
  C31      1.0000 0.49220  0.09180  0.91110  Biso   1.000  C
  C32      1.0000 0.87190  0.43580  0.79550  Biso   1.000  C
  C33      1.0000 0.39630  0.16200  0.75660  Biso   1.000  C
  C34      1.0000 0.49560  0.16390  0.75980  Biso   1.000  C
  N1       1.0000 0.54260  0.12870  0.83580  Biso   1.000  N
  N2       1.0000 0.04320  0.11340  0.83080  Biso   1.000  N
  N3       1.0000 0.70400  0.12010  0.24520  Biso   1.000  N
  N4       1.0000 0.88060  0.70150  0.83050  Biso   1.000  N
  N5       1.0000 0.71300  0.14530  0.42760  Biso   1.000  N
  N6       1.0000 0.87550  0.52100  0.79800  Biso   1.000  N
  O1       1.0000 0.70590  0.11370  0.97120  Biso   1.000  O
  O2       1.0000 0.86570  0.10870  0.96200  Biso   1.000  O
  O3       1.0000 0.72100  0.13990  0.70120  Biso   1.000  O
  O4       1.0000 0.88010  0.11160  0.69680  Biso   1.000  O
  O5       1.0000 0.88150  0.97340  0.85370  Biso   1.000  O
  O6       1.0000 0.70150  0.26460  0.82070  Biso   1.000  O
  O7       1.0000 0.86110  0.24720  0.80250  Biso   1.000  O
  O8       1.0000 0.72250  0.99200  0.85030  Biso   1.000  O
  Zn3      1.0000 0.10194  0.89015  0.17082  Biso   1.000  Zn
  Zn4      1.0000 0.31219  0.86984  0.16444  Biso   1.000  Zn
  H21      1.0000 0.78960  0.88280  0.03360  Biso   1.000  H
  H22      1.0000 0.76880  0.87590  0.30320  Biso   1.000  H
  H23      1.0000 0.64090  0.93620  0.03330  Biso   1.000  H
  H24      1.0000 0.06770  0.89770  0.88830  Biso   1.000  H
  H25      1.0000 0.06450  0.88980  0.73970  Biso   1.000  H
  H26      1.0000 0.35730  0.87420  0.87280  Biso   1.000  H
  H27      1.0000 0.95080  0.89490  0.03700  Biso   1.000  H
  H28      1.0000 0.93330  0.87750  0.30070  Biso   1.000  H
  H29      1.0000 0.34230  0.83170  0.45540  Biso   1.000  H
  H30      1.0000 0.06070  0.91910  0.45510  Biso   1.000  H
  H31      1.0000 0.35610  0.56950  0.18100  Biso   1.000  H
  H32      1.0000 0.06720  0.92810  0.60350  Biso   1.000  H
  H33      1.0000 0.34460  0.42160  0.17260  Biso   1.000  H
  H34      1.0000 0.05820  0.18820  0.15600  Biso   1.000  H
  H35      1.0000 0.34570  0.29730  0.17590  Biso   1.000  H
  H36      1.0000 0.34300  0.15050  0.15940  Biso   1.000  H
  H37      1.0000 0.47460  0.93330  0.03450  Biso   1.000  H
  H38      1.0000 0.06980  0.59970  0.21520  Biso   1.000  H
  H39      1.0000 0.63560  0.81220  0.29850  Biso   1.000  H
  H40      1.0000 0.46980  0.80890  0.29360  Biso   1.000  H
  C35      1.0000 0.65480  0.87690  0.16770  Biso   1.000  C
  C36      1.0000 0.75920  0.88030  0.16750  Biso   1.000  C
  C37      1.0000 0.81700  0.88400  0.08920  Biso   1.000  C
  C38      1.0000 0.21390  0.88770  0.99580  Biso   1.000  C
  C39      1.0000 0.20030  0.87400  0.33920  Biso   1.000  C
  C40      1.0000 0.80500  0.87850  0.24770  Biso   1.000  C
  C41      1.0000 0.60690  0.91110  0.08790  Biso   1.000  C
  C42      1.0000 0.21920  0.70520  0.19000  Biso   1.000  C
  C43      1.0000 0.21200  0.88680  0.89720  Biso   1.000  C
  C44      1.0000 0.12660  0.89180  0.85460  Biso   1.000  C
  C45      1.0000 0.12430  0.88850  0.76660  Biso   1.000  C
  C46      1.0000 0.19950  0.15100  0.15840  Biso   1.000  C
  C47      1.0000 0.29730  0.87950  0.84490  Biso   1.000  C
  C48      1.0000 0.20630  0.88020  0.61850  Biso   1.000  C
  C49      1.0000 0.21440  0.60700  0.19220  Biso   1.000  C
  C50      1.0000 0.91320  0.88920  0.09190  Biso   1.000  C
  C51      1.0000 0.90280  0.88060  0.24550  Biso   1.000  C
  C52      1.0000 0.20880  0.88320  0.71540  Biso   1.000  C
  C53      1.0000 0.28510  0.85140  0.48550  Biso   1.000  C
  C54      1.0000 0.20090  0.87640  0.43760  Biso   1.000  C
  C55      1.0000 0.12000  0.90300  0.48490  Biso   1.000  C
  C56      1.0000 0.19870  0.05600  0.15000  Biso   1.000  C
  C57      1.0000 0.29450  0.54830  0.18380  Biso   1.000  C
  C58      1.0000 0.12330  0.90670  0.57300  Biso   1.000  C
  C59      1.0000 0.20320  0.33080  0.17680  Biso   1.000  C
  C60      1.0000 0.28770  0.46050  0.17960  Biso   1.000  C
  C61      1.0000 0.11840  0.20960  0.16070  Biso   1.000  C
  C62      1.0000 0.28570  0.27490  0.17240  Biso   1.000  C
  C63      1.0000 0.28390  0.18740  0.16290  Biso   1.000  C
  C64      1.0000 0.20400  0.42820  0.18510  Biso   1.000  C
  C65      1.0000 0.50780  0.90820  0.08890  Biso   1.000  C
  C66      1.0000 0.12810  0.56420  0.20450  Biso   1.000  C
  C67      1.0000 0.60370  0.83800  0.24340  Biso   1.000  C
  C68      1.0000 0.50440  0.83610  0.24020  Biso   1.000  C
  N7       1.0000 0.45740  0.87130  0.16420  Biso   1.000  N
  N8       1.0000 0.95680  0.88660  0.16920  Biso   1.000  N
  N9       1.0000 0.29600  0.87990  0.75480  Biso   1.000  N
  N10      1.0000 0.11940  0.29850  0.16950  Biso   1.000  N
  N11      1.0000 0.28700  0.85470  0.57240  Biso   1.000  N
  N12      1.0000 0.12450  0.47900  0.20200  Biso   1.000  N
  O9       1.0000 0.29410  0.88630  0.02880  Biso   1.000  O
  O10      1.0000 0.13430  0.89130  0.03800  Biso   1.000  O
  O11      1.0000 0.27900  0.86010  0.29880  Biso   1.000  O
  O12      1.0000 0.11990  0.88840  0.30320  Biso   1.000  O
  O13      1.0000 0.11850  0.02660  0.14630  Biso   1.000  O
  O14      1.0000 0.29850  0.73540  0.17930  Biso   1.000  O
  O15      1.0000 0.13890  0.75280  0.19750  Biso   1.000  O
  O16      1.0000 0.27750  0.00800  0.14970  Biso   1.000  O
