data_FEFDEB_clean5b
_audit_creation_date              2014-07-02
_audit_creation_method            'Materials Studio'
_symmetry_space_group_name_H-M    'P1'
_symmetry_Int_Tables_number       1
_symmetry_cell_setting            triclinic
loop_
_symmetry_equiv_pos_as_xyz
  x,y,z
_cell_length_a                    19.2564
_cell_length_b                    15.2100
_cell_length_c                    15.2100
_cell_angle_alpha                 90.0000
_cell_angle_beta                  90.0000
_cell_angle_gamma                 90.0000
loop_
_atom_site_label
_atom_site_type_symbol
_atom_site_fract_x
_atom_site_fract_y
_atom_site_fract_z
_atom_site_U_iso_or_equiv
_atom_site_adp_type
_atom_site_occupancy
Zn1    Zn    0.33310   0.00630   0.99312   0.01267  Uiso   1.00
Zn2    Zn    0.16716   0.00628   0.99315   0.01267  Uiso   1.00
H1     H     0.35932   0.97507   0.71977   0.01267  Uiso   1.00
H2     H     0.35930   0.97280   0.55946   0.01267  Uiso   1.00
H3     H     0.35893   0.03894   0.26661   0.01267  Uiso   1.00
H4     H     0.35887   0.04107   0.42690   0.01267  Uiso   1.00
H5     H     0.35930   0.27960   0.02430   0.01267  Uiso   1.00
H6     H     0.35925   0.43988   0.02668   0.01267  Uiso   1.00
H7     H     0.35923   0.73286   0.96190   0.01267  Uiso   1.00
H8     H     0.35919   0.57259   0.95953   0.01267  Uiso   1.00
H9     H     0.14102   0.03661   0.71959   0.01267  Uiso   1.00
H10    H     0.14115   0.03887   0.55935   0.01267  Uiso   1.00
H11    H     0.14147   0.97286   0.26666   0.01267  Uiso   1.00
H12    H     0.14159   0.97055   0.42692   0.01267  Uiso   1.00
H13    H     0.14114   0.73273   1.02460   0.01267  Uiso   1.00
H14    H     0.14127   0.57252   1.02702   0.01267  Uiso   1.00
H15    H     0.14109   0.27968   0.96226   0.01267  Uiso   1.00
H16    H     0.14121   0.43993   0.95981   0.01267  Uiso   1.00
C1     C     0.25012   0.00589   0.83379   0.01267  Uiso   1.00
C2     C     0.25015   0.00581   0.73402   0.01267  Uiso   1.00
C3     C     0.25022   0.00581   0.54354   0.01267  Uiso   1.00
C4     C     0.25016   0.00596   0.15253   0.01267  Uiso   1.00
C5     C     0.25020   0.00587   0.25230   0.01267  Uiso   1.00
C6     C     0.25023   0.00581   0.44278   0.01267  Uiso   1.00
C7     C     0.25017   0.16560  -0.00671   0.01267  Uiso   1.00
C8     C     0.25019   0.26535  -0.00669   0.01267  Uiso   1.00
C9     C     0.25023   0.45583   0.99326   0.01267  Uiso   1.00
C10    C     0.25014   0.84687   0.99324   0.01267  Uiso   1.00
C11    C     0.25018   0.74711   0.99325   0.01267  Uiso   1.00
C12    C     0.25023   0.55662   0.99326   0.01267  Uiso   1.00
C13    C     0.45984   0.91614   0.98126   0.01267  Uiso   1.00
C14    C     0.45982   0.04203   0.07720   0.01267  Uiso   1.00
C15    C     0.45979   0.06219   0.92031   0.01267  Uiso   1.00
C16    C     0.04041   0.06366   0.92149   0.01267  Uiso   1.00
C17    C     0.04037   0.91641   0.97948   0.01267  Uiso   1.00
C18    C     0.04037   0.04033   0.07794   0.01267  Uiso   1.00
C19    C     0.31121   0.98896   0.68562   0.01267  Uiso   1.00
C20    C     0.31118   0.98839   0.59261   0.01267  Uiso   1.00
C21    C     0.31102   0.02395   0.30072   0.01267  Uiso   1.00
C22    C     0.31097   0.02448   0.39373   0.01267  Uiso   1.00
C23    C     0.31121   0.31375   0.01030   0.01267  Uiso   1.00
C24    C     0.31116   0.40676   0.01089   0.01267  Uiso   1.00
C25    C     0.31117   0.69872   0.97607   0.01267  Uiso   1.00
C26    C     0.31113   0.60570   0.97546   0.01267  Uiso   1.00
C27    C     0.18914   0.02267   0.68554   0.01267  Uiso   1.00
C28    C     0.18924   0.02324   0.59254   0.01267  Uiso   1.00
C29    C     0.18940   0.98777   0.30075   0.01267  Uiso   1.00
C30    C     0.18948   0.98716   0.39375   0.01267  Uiso   1.00
C31    C     0.18922   0.69865   1.01045   0.01267  Uiso   1.00
C32    C     0.18932   0.60566   1.01107   0.01267  Uiso   1.00
C33    C     0.18919   0.31379   0.97627   0.01267  Uiso   1.00
C34    C     0.18929   0.40679   0.97563   0.01267  Uiso   1.00
N1     N     0.43318   0.00671   0.99295   0.01267  Uiso   1.00
N2     N     0.06703   0.00673   0.99299   0.01267  Uiso   1.00
O1     O     0.30754   0.88892   0.99293   0.01267  Uiso   1.00
O2     O     0.19272   0.88888   0.99351   0.01267  Uiso   1.00
O3     O     0.19274   0.00570   0.11052   0.01267  Uiso   1.00
O4     O     0.19265   0.00624   0.87579   0.01267  Uiso   1.00
O5     O     0.19267   0.12361   0.99302   0.01267  Uiso   1.00
O6     O     0.30757   0.00635   0.11049   0.01267  Uiso   1.00
O7     O     0.30756   0.00569   0.87581   0.01267  Uiso   1.00
O8     O     0.30766   0.12361   0.99351   0.01267  Uiso   1.00
H18    H     0.44026   0.87317   0.03501   0.01267  Uiso   1.00
H19    H     0.44019   0.88820   0.91840   0.01267  Uiso   1.00
H20    H     0.43978   0.10981   0.08781   0.01267  Uiso   1.00
H21    H     0.44071   0.00125   0.13285   0.01267  Uiso   1.00
H22    H     0.44026   0.03727   0.85619   0.01267  Uiso   1.00
H23    H     0.44015   0.13059   0.92749   0.01267  Uiso   1.00
H24    H     0.06024   0.13183   0.92982   0.01267  Uiso   1.00
H25    H     0.05972   0.03981   0.85687   0.01267  Uiso   1.00
H26    H     0.06030   0.88956   0.91629   0.01267  Uiso   1.00
H27    H     0.05965   0.87251   0.03263   0.01267  Uiso   1.00
H28    H     0.05968  -0.00136   0.13278   0.01267  Uiso   1.00
H29    H     0.06019   0.10801   0.08975   0.01267  Uiso   1.00
Zn3    Zn    0.83309   0.00631   0.99311   0.01267  Uiso   1.00
Zn4    Zn    0.66716   0.00629   0.99311   0.01267  Uiso   1.00
H30    H     0.85938   0.97506   0.71973   0.01267  Uiso   1.00
H31    H     0.85934   0.97276   0.55941   0.01267  Uiso   1.00
H32    H     0.85893   0.03888   0.26655   0.01267  Uiso   1.00
H33    H     0.85891   0.04101   0.42684   0.01267  Uiso   1.00
H34    H     0.85926   0.27960   1.02424   0.01267  Uiso   1.00
H35    H     0.85921   0.43989   1.02659   0.01267  Uiso   1.00
H36    H     0.85920   0.73286   0.96179   0.01267  Uiso   1.00
H37    H     0.85914   0.57259   0.95943   0.01267  Uiso   1.00
H38    H     0.64109   0.03668   0.71957   0.01267  Uiso   1.00
H39    H     0.64120   0.03891   0.55933   0.01267  Uiso   1.00
H40    H     0.64146   0.97289   0.26666   0.01267  Uiso   1.00
H41    H     0.64160   0.97058   0.42691   0.01267  Uiso   1.00
H42    H     0.64113   0.73276   0.02457   0.01267  Uiso   1.00
H43    H     0.64125   0.57254   0.02699   0.01267  Uiso   1.00
H44    H     0.64104   0.27969   0.96226   0.01267  Uiso   1.00
H45    H     0.64117   0.43994   0.95980   0.01267  Uiso   1.00
C35    C     0.75019   0.00591   0.83376   0.01267  Uiso   1.00
C36    C     0.75022   1.00583   0.73398   0.01267  Uiso   1.00
C37    C     0.75027   1.00581   0.54351   0.01267  Uiso   1.00
C38    C     0.75014   0.00596   0.15250   0.01267  Uiso   1.00
C39    C     0.75019   0.00587   0.25227   0.01267  Uiso   1.00
C40    C     0.75026   1.00580   0.44274   0.01267  Uiso   1.00
C41    C     0.75012   0.16561  -0.00674   0.01267  Uiso   1.00
C42    C     0.75014   0.26536   0.99327   0.01267  Uiso   1.00
C43    C     0.75019   0.45584   0.99321   0.01267  Uiso   1.00
C44    C     0.75013   0.84688  -0.00681   0.01267  Uiso   1.00
C45    C     0.75016   0.74712   0.99320   0.01267  Uiso   1.00
C46    C     0.75020   0.55663   0.99321   0.01267  Uiso   1.00
C47    C     0.95984   0.91644   0.97923   0.01267  Uiso   1.00
C48    C     0.95981   0.04012   0.07800   0.01267  Uiso   1.00
C49    C     0.95979   0.06383   0.92160   0.01267  Uiso   1.00
C50    C     0.54041   0.06200   0.92017   0.01267  Uiso   1.00
C51    C     0.54037   0.91612   0.98153   0.01267  Uiso   1.00
C52    C     0.54039   0.04227   0.07711   0.01267  Uiso   1.00
C53    C     0.81127   0.98896   0.68558   0.01267  Uiso   1.00
C54    C     0.81123   0.98838   0.59257   0.01267  Uiso   1.00
C55    C     0.81103   0.02392   0.30067   0.01267  Uiso   1.00
C56    C     0.81099   0.02444   0.39368   0.01267  Uiso   1.00
C57    C     0.81117   0.31376   1.01024   0.01267  Uiso   1.00
C58    C     0.81112   0.40677   1.01083   0.01267  Uiso   1.00
C59    C     0.81114   0.69872   0.97598   0.01267  Uiso   1.00
C60    C     0.81109   0.60571   0.97538   0.01267  Uiso   1.00
C61    C     0.68921   0.02271   0.68551   0.01267  Uiso   1.00
C62    C     0.68929   1.02327   0.59252   0.01267  Uiso   1.00
C63    C     0.68939   0.98778   0.30073   0.01267  Uiso   1.00
C64    C     0.68950   0.98717   0.39373   0.01267  Uiso   1.00
C65    C     0.68920   0.69867   0.01040   0.01267  Uiso   1.00
C66    C     0.68929   0.60567   0.01103   0.01267  Uiso   1.00
C67    C     0.68914   0.31380   0.97625   0.01267  Uiso   1.00
C68    C     0.68924   0.40680   0.97561   0.01267  Uiso   1.00
N3     N     0.93318   0.00672   0.99296   0.01267  Uiso   1.00
N4     N     0.56704   0.00672   0.99295   0.01267  Uiso   1.00
O9     O     0.80753   0.88893   0.99290   0.01267  Uiso   1.00
O10    O     0.69271   0.88889   0.99346   0.01267  Uiso   1.00
O11    O     0.69272   1.00569   0.11049   0.01267  Uiso   1.00
O12    O     0.69273   0.00626   0.87576   0.01267  Uiso   1.00
O13    O     0.69262   0.12363   0.99298   0.01267  Uiso   1.00
O14    O     0.80755   0.00636   0.11045   0.01267  Uiso   1.00
O15    O     0.80764   0.00571   0.87577   0.01267  Uiso   1.00
O16    O     0.80761   0.12362   0.99350   0.01267  Uiso   1.00
H49    H     0.94029   0.87227   0.03201   0.01267  Uiso   1.00
H50    H     0.94016   0.88991   0.91577   0.01267  Uiso   1.00
H51    H     0.93979   0.10766   0.09012   0.01267  Uiso   1.00
H52    H     0.94067  -0.00190   0.13270   0.01267  Uiso   1.00
H53    H     0.94026   0.04037   0.85693   0.01267  Uiso   1.00
H54    H     0.94017   0.13206   0.93032   0.01267  Uiso   1.00
H55    H     0.56027   0.13033   0.92690   0.01267  Uiso   1.00
H56    H     0.55967   0.03663   0.85611   0.01267  Uiso   1.00
H57    H     0.56029   0.88782   0.91897   0.01267  Uiso   1.00
H58    H     0.55968   0.87345   0.03566   0.01267  Uiso   1.00
H59    H     0.55972   0.00189   0.13290   0.01267  Uiso   1.00
H60    H     0.56018   0.11022   0.08734   0.01267  Uiso   1.00
loop_
_geom_bond_atom_site_label_1
_geom_bond_atom_site_label_2
_geom_bond_distance
_geom_bond_site_symmetry_2
_ccdc_geom_bond_type
Zn1    N1      1.927   .     S
Zn1    O7      1.851   .     S
Zn1    O8      1.850   .     S
Zn1    O1      1.852   1_545 S
Zn1    O6      1.852   1_556 S
Zn2    N2      1.928   .     S
Zn2    O4      1.851   .     S
Zn2    O5      1.851   .     S
Zn2    O2      1.852   1_545 S
Zn2    O3      1.852   1_556 S
H1     C19     1.083   .     S
H2     C20     1.081   .     S
H3     C21     1.083   .     S
H4     C22     1.081   .     S
H5     C23     1.083   .     S
H6     C24     1.081   .     S
H7     C25     1.083   .     S
H8     C26     1.081   .     S
H9     C27     1.082   .     S
H10    C28     1.081   .     S
H11    C29     1.083   .     S
H12    C30     1.081   .     S
H13    C31     1.083   .     S
H14    C32     1.081   .     S
H15    C33     1.083   .     S
H16    C34     1.081   .     S
C1     C2      1.518   .     S
C1     O4      1.278   .     A
C1     O7      1.277   .     A
C2     C27     1.411   .     A
C2     C19     1.411   1_545 S
C3     C6      1.533   .     S
C3     C28     1.416   .     A
C3     C20     1.416   1_545 S
C4     C5      1.518   .     S
C4     O3      1.277   .     A
C4     O6      1.277   .     A
C5     C21     1.411   .     A
C5     C29     1.411   1_545 S
C6     C22     1.416   .     A
C6     C30     1.416   1_545 S
C7     C8      1.517   .     S
C7     O5      1.278   1_554 S
C7     O8      1.278   1_554 S
C8     C23     1.410   .     A
C8     C33     1.411   1_554 S
C9     C12     1.533   .     S
C9     C34     1.416   .     A
C9     C24     1.416   1_556 S
C10    C11     1.517   .     S
C10    O1      1.277   .     A
C10    O2      1.277   .     A
C11    C25     1.410   .     A
C11    C31     1.411   .     A
C12    C26     1.416   .     A
C12    C32     1.416   .     A
C13    H19     1.113   .     S
C13    C51     1.551   .     S
C13    N1      1.481   1_565 S
C13    H18     1.113   1_556 S
C14    H20     1.113   .     S
C14    H21     1.112   .     S
C14    C52     1.551   .     S
C14    N1      1.481   1_554 S
C15    N1      1.482   .     S
C15    H22     1.112   .     S
C15    H23     1.112   .     S
C15    C50     1.552   .     S
C16    N2      1.482   .     S
C16    H24     1.112   .     S
C16    H25     1.112   .     S
C16    C49     1.552   1_455 S
C17    H26     1.113   .     S
C17    N2      1.481   1_565 S
C17    H27     1.112   1_556 S
C17    C47     1.551   1_455 S
C18    H28     1.112   .     S
C18    H29     1.112   .     S
C18    N2      1.481   1_554 S
C18    C48     1.551   1_455 S
C19    C20     1.415   .     A
C19    C2      1.411   1_565 S
C20    C3      1.416   1_565 S
C21    C22     1.415   .     A
C23    C24     1.415   .     A
C24    C9      1.416   1_554 S
C25    C26     1.415   .     A
C27    C28     1.415   .     A
C29    C30     1.415   .     A
C29    C5      1.411   1_565 S
C30    C6      1.416   1_565 S
C31    C32     1.414   .     A
C33    C34     1.415   .     A
C33    C8      1.411   1_556 S
N1     C13     1.481   1_545 S
N1     C14     1.481   1_556 S
N2     C17     1.481   1_545 S
N2     C18     1.481   1_556 S
O1     Zn1     1.852   1_565 S
O2     Zn2     1.852   1_565 S
O3     Zn2     1.852   1_554 S
O5     C7      1.278   1_556 S
O6     Zn1     1.852   1_554 S
O8     C7      1.278   1_556 S
H18    C13     1.113   1_554 S
H27    C17     1.112   1_554 S
Zn3    N3      1.927   .     S
Zn3    O15     1.851   .     S
Zn3    O16     1.851   .     S
Zn3    O9      1.852   1_545 A
Zn3    O14     1.851   1_556 A
Zn4    N4      1.928   .     S
Zn4    O12     1.852   .     S
Zn4    O13     1.851   .     S
Zn4    O10     1.852   1_545 A
Zn4    O11     1.852   1_546 A
H30    C53     1.083   .     S
H31    C54     1.081   .     S
H32    C55     1.083   .     S
H33    C56     1.081   .     S
H34    C57     1.083   .     S
H35    C58     1.081   .     S
H36    C59     1.083   .     S
H37    C60     1.081   .     S
H38    C61     1.083   .     S
H39    C62     1.081   1_545 A
H40    C63     1.082   .     S
H41    C64     1.081   .     S
H42    C65     1.083   .     S
H43    C66     1.081   .     S
H44    C67     1.083   .     S
H45    C68     1.081   .     S
C35    O12     1.278   .     A
C35    O15     1.278   .     A
C35    C36     1.518   1_545 S
C36    C53     1.411   .     A
C36    C35     1.518   1_565 S
C36    C61     1.411   1_565 S
C37    C40     1.533   .     S
C37    C54     1.416   .     A
C37    C62     1.416   .     A
C38    C39     1.518   .     S
C38    O14     1.277   .     A
C38    O11     1.277   1_545 S
C39    C55     1.411   .     A
C39    C63     1.411   1_545 S
C40    C64     1.416   .     A
C40    C56     1.416   1_565 S
C41    C42     1.517   1_554 S
C41    O13     1.278   1_554 S
C41    O16     1.278   1_554 S
C42    C57     1.411   .     A
C42    C67     1.411   .     A
C42    C41     1.517   1_556 S
C43    C46     1.533   .     S
C43    C58     1.416   .     A
C43    C68     1.416   .     A
C44    C45     1.517   1_554 S
C44    O9      1.277   1_554 S
C44    O10     1.277   1_554 S
C45    C59     1.410   .     A
C45    C44     1.517   1_556 S
C45    C65     1.410   1_556 S
C46    C60     1.416   .     A
C46    C66     1.416   1_556 A
C47    H50     1.113   .     S
C47    C17     1.551   1_655 S
C47    N3      1.481   1_565 A
C47    H49     1.112   1_556 A
C48    H51     1.113   .     S
C48    H52     1.112   .     S
C48    C18     1.551   1_655 S
C48    N3      1.481   1_554 A
C49    N3      1.482   .     S
C49    H53     1.112   .     S
C49    H54     1.112   .     S
C49    C16     1.552   1_655 S
C50    N4      1.482   .     S
C50    H55     1.112   .     S
C50    H56     1.112   .     S
C51    H57     1.113   .     S
C51    N4      1.481   1_565 A
C51    H58     1.112   1_556 S
C52    H59     1.112   .     S
C52    H60     1.112   .     S
C52    N4      1.481   1_554 S
C53    C54     1.415   .     A
C55    C56     1.415   .     A
C56    C40     1.416   1_545 S
C57    C58     1.415   .     A
C59    C60     1.415   .     A
C61    C36     1.411   1_545 S
C61    C62     1.414   1_545 S
C62    H39     1.081   1_565 A
C62    C61     1.414   1_565 S
C63    C64     1.415   .     A
C63    C39     1.411   1_565 S
C65    C66     1.415   .     A
C65    C45     1.410   1_554 S
C66    C46     1.416   1_554 A
C67    C68     1.415   .     A
N3     C47     1.481   1_545 A
N3     C48     1.481   1_556 A
N4     C51     1.481   1_545 A
N4     C52     1.481   1_556 S
O9     Zn3     1.852   1_565 A
O9     C44     1.277   1_556 S
O10    Zn4     1.852   1_565 A
O10    C44     1.277   1_556 S
O11    Zn4     1.852   1_564 A
O11    C38     1.277   1_565 S
O13    C41     1.278   1_556 S
O14    Zn3     1.851   1_554 A
O16    C41     1.278   1_556 S
H49    C47     1.112   1_554 A
H58    C51     1.112   1_554 S
