data_FEHCIG
_audit_creation_date              2015-07-29
_audit_creation_method            'Materials Studio'
_symmetry_space_group_name_H-M    'P1'
_symmetry_Int_Tables_number       1
_symmetry_cell_setting            triclinic
loop_
_symmetry_equiv_pos_as_xyz
  x,y,z
_cell_length_a                    18.0802
_cell_length_b                    18.0802
_cell_length_c                    18.0802
_cell_angle_alpha                 134.5942
_cell_angle_beta                  98.5570
_cell_angle_gamma                 98.5763
loop_
_atom_site_label
_atom_site_type_symbol
_atom_site_fract_x
_atom_site_fract_y
_atom_site_fract_z
_atom_site_U_iso_or_equiv
_atom_site_adp_type
_atom_site_occupancy
Zn1    Zn    0.73328   0.88601   0.60425   0.00000  Uiso   1.00
O2     O     0.79500   0.02790   0.66310   0.00000  Uiso   1.00
O3     O     0.82460   0.84440   0.61220   0.00000  Uiso   1.00
N4     N     0.19830   0.39060   0.71070   0.00000  Uiso   1.00
N5     N     0.15300   0.79530   0.95570   0.00000  Uiso   1.00
C6     C     0.91930   0.12810   0.65240   0.00000  Uiso   1.00
H7     H     0.87820   0.06250   0.58310   0.00000  Uiso   1.00
C8     C     0.98590   0.18900   0.65670   0.00000  Uiso   1.00
H9     H     0.99250   0.15650   0.58940   0.00000  Uiso   1.00
C10    C     0.14810   0.30670   0.68240   0.00000  Uiso   1.00
C11    C     0.14600   0.19230   0.59930   0.00000  Uiso   1.00
H12    H     0.18570   0.18720   0.56590   0.00000  Uiso   1.00
H13    H     0.09250   0.14250   0.54120   0.00000  Uiso   1.00
H14    H     0.15840   0.17060   0.63500   0.00000  Uiso   1.00
C15    C     0.94500   0.84720   0.72960   0.00000  Uiso   1.00
H16    H     0.94610   0.91470   0.75500   0.00000  Uiso   1.00
C17    C     0.00500   0.84920   0.78980   0.00000  Uiso   1.00
H18    H     0.04670   0.91760   0.85530   0.00000  Uiso   1.00
C19    C     0.09590   0.82080   0.93050   0.00000  Uiso   1.00
C20    C     0.07380   0.91550   0.02030   0.00000  Uiso   1.00
H21    H     0.10710   0.95020   0.09250   0.00000  Uiso   1.00
H22    H     0.01720   0.88810   0.00690   0.00000  Uiso   1.00
H23    H     0.08290   0.97060   0.02070   0.00000  Uiso   1.00
Zn24   Zn    0.78176   0.12903   0.89575   0.00000  Uiso   1.00
O25    O     0.86480   0.13190   0.83690   0.00000  Uiso   1.00
O26    O     0.73220   0.21240   0.88780   0.00000  Uiso   1.00
N27    N     0.17990   0.48760   0.78930   0.00000  Uiso   1.00
N28    N     0.33960   0.19730   0.54430   0.00000  Uiso   1.00
C29    C     0.97570   0.26690   0.84760   0.00000  Uiso   1.00
H30    H     0.97940   0.29510   0.91690   0.00000  Uiso   1.00
C31    C     0.03230   0.32920   0.84330   0.00000  Uiso   1.00
H32    H     0.06710   0.40310   0.91060   0.00000  Uiso   1.00
C33    C     0.12430   0.46570   0.81760   0.00000  Uiso   1.00
C34    C     0.09300   0.54670   0.90070   0.00000  Uiso   1.00
H35    H     0.12130   0.61980   0.93410   0.00000  Uiso   1.00
H36    H     0.10130   0.55130   0.95880   0.00000  Uiso   1.00
H37    H     0.03560   0.52340   0.86500   0.00000  Uiso   1.00
C38    C     0.61760   0.21540   0.77040   0.00000  Uiso   1.00
H39    H     0.65970   0.19110   0.74500   0.00000  Uiso   1.00
C40    C     0.55940   0.21520   0.71020   0.00000  Uiso   1.00
H41    H     0.56230   0.19140   0.64470   0.00000  Uiso   1.00
C42    C     0.39030   0.16540   0.56950   0.00000  Uiso   1.00
C43    C     0.39520   0.05350   0.47970   0.00000  Uiso   1.00
H44    H     0.35770   0.01460   0.40750   0.00000  Uiso   1.00
H45    H     0.38120   0.01030   0.49310   0.00000  Uiso   1.00
H46    H     0.44990   0.06220   0.47930   0.00000  Uiso   1.00
Zn47   Zn    0.71824   0.61399   0.34727   0.00000  Uiso   1.00
O48    O     0.63520   0.47210   0.26710   0.00000  Uiso   1.00
O49    O     0.76780   0.65560   0.48020   0.00000  Uiso   1.00
N50    N     0.32010   0.10940   0.30770   0.00000  Uiso   1.00
N51    N     0.16040   0.70470   0.85770   0.00000  Uiso   1.00
C52    C     0.52430   0.37190   0.29120   0.00000  Uiso   1.00
H53    H     0.52060   0.43750   0.31570   0.00000  Uiso   1.00
C54    C     0.46770   0.31100   0.29690   0.00000  Uiso   1.00
H55    H     0.43290   0.34350   0.33600   0.00000  Uiso   1.00
C56    C     0.37570   0.19330   0.34140   0.00000  Uiso   1.00
C57    C     0.40700   0.30770   0.45370   0.00000  Uiso   1.00
H58    H     0.37870   0.31280   0.49850   0.00000  Uiso   1.00
H59    H     0.39870   0.35750   0.45000   0.00000  Uiso   1.00
H60    H     0.46440   0.32940   0.48780   0.00000  Uiso   1.00
C61    C     0.88240   0.65280   0.59780   0.00000  Uiso   1.00
H62    H     0.84030   0.58530   0.53140   0.00000  Uiso   1.00
C63    C     0.94060   0.65080   0.65580   0.00000  Uiso   1.00
H64    H     0.93770   0.58240   0.62910   0.00000  Uiso   1.00
C65    C     0.10970   0.67920   0.77510   0.00000  Uiso   1.00
C66    C     0.10480   0.58450   0.65830   0.00000  Uiso   1.00
H67    H     0.14230   0.54980   0.65690   0.00000  Uiso   1.00
H68    H     0.11880   0.61190   0.62910   0.00000  Uiso   1.00
H69    H     0.05010   0.52940   0.61230   0.00000  Uiso   1.00
Zn70   Zn    0.76672   0.37097   0.15273   0.00000  Uiso   1.00
O71    O     0.70500   0.36810   0.23290   0.00000  Uiso   1.00
O72    O     0.67540   0.28760   0.01980   0.00000  Uiso   1.00
N73    N     0.30170   0.01240   0.19230   0.00000  Uiso   1.00
N74    N     0.34700   0.30270   0.64230   0.00000  Uiso   1.00
C75    C     0.58070   0.23310   0.20880   0.00000  Uiso   1.00
H76    H     0.62180   0.20490   0.18430   0.00000  Uiso   1.00
C77    C     0.51410   0.17080   0.20310   0.00000  Uiso   1.00
H78    H     0.50750   0.09690   0.16400   0.00000  Uiso   1.00
C79    C     0.35190   0.03430   0.15860   0.00000  Uiso   1.00
C80    C     0.35400   0.95330   0.04630   0.00000  Uiso   1.00
H81    H     0.31430   0.88020   0.00150   0.00000  Uiso   1.00
H82    H     0.40750   0.94870   0.05000   0.00000  Uiso   1.00
H83    H     0.34160   0.97660   0.01220   0.00000  Uiso   1.00
C84    C     0.55500   0.28460   0.90220   0.00000  Uiso   1.00
H85    H     0.55390   0.30890   0.96860   0.00000  Uiso   1.00
C86    C     0.49500   0.28480   0.84420   0.00000  Uiso   1.00
H87    H     0.45330   0.30860   0.87090   0.00000  Uiso   1.00
C88    C     0.40410   0.33460   0.72490   0.00000  Uiso   1.00
C89    C     0.42620   0.44650   0.84170   0.00000  Uiso   1.00
H90    H     0.39290   0.48540   0.84310   0.00000  Uiso   1.00
H91    H     0.48280   0.48970   0.87090   0.00000  Uiso   1.00
H92    H     0.41710   0.43780   0.88770   0.00000  Uiso   1.00
Zn93   Zn    0.26672   0.11399   0.39575   0.00000  Uiso   1.00
O94    O     0.20500   0.97210   0.33690   0.00000  Uiso   1.00
O95    O     0.17540   0.15560   0.38780   0.00000  Uiso   1.00
N96    N     0.80170   0.60940   0.28930   0.00000  Uiso   1.00
N97    N     0.84700   0.20470   0.04430   0.00000  Uiso   1.00
C98    C     0.08070   0.87190   0.34760   0.00000  Uiso   1.00
H99    H     0.12180   0.93750   0.41690   0.00000  Uiso   1.00
C100   C     0.01410   0.81100   0.34330   0.00000  Uiso   1.00
H101   H     0.00750   0.84350   0.41060   0.00000  Uiso   1.00
C102   C     0.85190   0.69330   0.31760   0.00000  Uiso   1.00
C103   C     0.85400   0.80770   0.40070   0.00000  Uiso   1.00
H104   H     0.81430   0.81280   0.43410   0.00000  Uiso   1.00
H105   H     0.90750   0.85750   0.45880   0.00000  Uiso   1.00
H106   H     0.84160   0.82940   0.36500   0.00000  Uiso   1.00
C107   C     0.05500   0.15280   0.27040   0.00000  Uiso   1.00
H108   H     0.05390   0.08530   0.24500   0.00000  Uiso   1.00
C109   C     0.99500   0.15080   0.21020   0.00000  Uiso   1.00
H110   H     0.95330   0.08240   0.14470   0.00000  Uiso   1.00
C111   C     0.90410   0.17920   0.06950   0.00000  Uiso   1.00
C112   C     0.92620   0.08450   0.97970   0.00000  Uiso   1.00
H113   H     0.89290   0.04980   0.90750   0.00000  Uiso   1.00
H114   H     0.98280   0.11190   0.99310   0.00000  Uiso   1.00
H115   H     0.91710   0.02940   0.97930   0.00000  Uiso   1.00
Zn116  Zn    0.21824   0.87097   0.10425   0.00000  Uiso   1.00
O117   O     0.13520   0.86810   0.16310   0.00000  Uiso   1.00
O118   O     0.26780   0.78760   0.11220   0.00000  Uiso   1.00
N119   N     0.82010   0.51240   0.21070   0.00000  Uiso   1.00
N120   N     0.66040   0.80270   0.45570   0.00000  Uiso   1.00
C121   C     0.02430   0.73310   0.15240   0.00000  Uiso   1.00
H122   H     0.02060   0.70490   0.08310   0.00000  Uiso   1.00
C123   C     0.96770   0.67080   0.15670   0.00000  Uiso   1.00
H124   H     0.93290   0.59690   0.08940   0.00000  Uiso   1.00
C125   C     0.87570   0.53430   0.18240   0.00000  Uiso   1.00
C126   C     0.90700   0.45330   0.09930   0.00000  Uiso   1.00
H127   H     0.87870   0.38020   0.06590   0.00000  Uiso   1.00
H128   H     0.89870   0.44870   0.04120   0.00000  Uiso   1.00
H129   H     0.96440   0.47660   0.13500   0.00000  Uiso   1.00
C130   C     0.38240   0.78460   0.22960   0.00000  Uiso   1.00
H131   H     0.34030   0.80890   0.25500   0.00000  Uiso   1.00
C132   C     0.44060   0.78480   0.28980   0.00000  Uiso   1.00
H133   H     0.43770   0.80860   0.35530   0.00000  Uiso   1.00
C134   C     0.60970   0.83460   0.43050   0.00000  Uiso   1.00
C135   C     0.60480   0.94650   0.52030   0.00000  Uiso   1.00
H136   H     0.64230   0.98540   0.59250   0.00000  Uiso   1.00
H137   H     0.61880   0.98970   0.50690   0.00000  Uiso   1.00
H138   H     0.55010   0.93780   0.52070   0.00000  Uiso   1.00
Zn139  Zn    0.28176   0.38601   0.65273   0.00000  Uiso   1.00
O140   O     0.36480   0.52790   0.73290   0.00000  Uiso   1.00
O141   O     0.23220   0.34440   0.51980   0.00000  Uiso   1.00
N142   N     0.67990   0.89060   0.69230   0.00000  Uiso   1.00
N143   N     0.83960   0.29530   0.14230   0.00000  Uiso   1.00
C144   C     0.47570   0.62810   0.70880   0.00000  Uiso   1.00
H145   H     0.47940   0.56250   0.68430   0.00000  Uiso   1.00
C146   C     0.53230   0.68900   0.70310   0.00000  Uiso   1.00
H147   H     0.56710   0.65650   0.66400   0.00000  Uiso   1.00
C148   C     0.62430   0.80670   0.65860   0.00000  Uiso   1.00
C149   C     0.59300   0.69230   0.54630   0.00000  Uiso   1.00
H150   H     0.62130   0.68720   0.50150   0.00000  Uiso   1.00
H151   H     0.60130   0.64250   0.55000   0.00000  Uiso   1.00
H152   H     0.53560   0.67060   0.51220   0.00000  Uiso   1.00
C153   C     0.11760   0.34720   0.40220   0.00000  Uiso   1.00
H154   H     0.15970   0.41470   0.46860   0.00000  Uiso   1.00
C155   C     0.05940   0.34920   0.34420   0.00000  Uiso   1.00
H156   H     0.06230   0.41760   0.37090   0.00000  Uiso   1.00
C157   C     0.89030   0.32080   0.22490   0.00000  Uiso   1.00
C158   C     0.89520   0.41550   0.34170   0.00000  Uiso   1.00
H159   H     0.85770   0.45020   0.34310   0.00000  Uiso   1.00
H160   H     0.88120   0.38810   0.37090   0.00000  Uiso   1.00
H161   H     0.94990   0.47060   0.38770   0.00000  Uiso   1.00
Zn162  Zn    0.23328   0.62903   0.84727   0.00000  Uiso   1.00
O163   O     0.29500   0.63190   0.76710   0.00000  Uiso   1.00
O164   O     0.32460   0.71240   0.98020   0.00000  Uiso   1.00
N165   N     0.69830   0.98760   0.80770   0.00000  Uiso   1.00
N166   N     0.65300   0.69730   0.35770   0.00000  Uiso   1.00
C167   C     0.41930   0.76690   0.79120   0.00000  Uiso   1.00
H168   H     0.37820   0.79510   0.81570   0.00000  Uiso   1.00
C169   C     0.48590   0.82920   0.79690   0.00000  Uiso   1.00
H170   H     0.49250   0.90310   0.83600   0.00000  Uiso   1.00
C171   C     0.64810   0.96570   0.84140   0.00000  Uiso   1.00
C172   C     0.64600   0.04670   0.95370   0.00000  Uiso   1.00
H173   H     0.68570   0.11980   0.99850   0.00000  Uiso   1.00
H174   H     0.59250   0.05130   0.95000   0.00000  Uiso   1.00
H175   H     0.65840   0.02340   0.98780   0.00000  Uiso   1.00
C176   C     0.44500   0.71540   0.09780   0.00000  Uiso   1.00
H177   H     0.44610   0.69110   0.03140   0.00000  Uiso   1.00
C178   C     0.50500   0.71520   0.15580   0.00000  Uiso   1.00
H179   H     0.54670   0.69140   0.12910   0.00000  Uiso   1.00
C180   C     0.59590   0.66540   0.27510   0.00000  Uiso   1.00
C181   C     0.57380   0.55350   0.15830   0.00000  Uiso   1.00
H182   H     0.60710   0.51460   0.15690   0.00000  Uiso   1.00
H183   H     0.51720   0.51030   0.12910   0.00000  Uiso   1.00
H184   H     0.58290   0.56220   0.11230   0.00000  Uiso   1.00
C185   C     0.85390   0.10390   0.75000   0.00000  Uiso   1.00
C186   C     0.91670   0.16670   0.75000   0.00000  Uiso   1.00
C187   C     0.03600   0.28600   0.75000   0.00000  Uiso   1.00
C188   C     0.09840   0.34840   0.75000   0.00000  Uiso   1.00
C189   C     0.64610   0.39610   0.25000   0.00000  Uiso   1.00
C190   C     0.58330   0.33330   0.25000   0.00000  Uiso   1.00
C191   C     0.46400   0.21400   0.25000   0.00000  Uiso   1.00
C192   C     0.40160   0.15160   0.25000   0.00000  Uiso   1.00
C193   C     0.14610   0.89610   0.25000   0.00000  Uiso   1.00
C194   C     0.08330   0.83330   0.25000   0.00000  Uiso   1.00
C195   C     0.96400   0.71400   0.25000   0.00000  Uiso   1.00
C196   C     0.90160   0.65160   0.25000   0.00000  Uiso   1.00
C197   C     0.35390   0.60390   0.75000   0.00000  Uiso   1.00
C198   C     0.41670   0.66670   0.75000   0.00000  Uiso   1.00
C199   C     0.53600   0.78600   0.75000   0.00000  Uiso   1.00
C200   C     0.59840   0.84840   0.75000   0.00000  Uiso   1.00
C201   C     0.82200   0.75000   0.57200   0.00000  Uiso   1.00
C202   C     0.88510   0.75000   0.63510   0.00000  Uiso   1.00
C203   C     0.00410   0.75000   0.75410   0.00000  Uiso   1.00
C204   C     0.06670   0.75000   0.81670   0.00000  Uiso   1.00
C205   C     0.67800   0.25000   0.92800   0.00000  Uiso   1.00
C206   C     0.61490   0.25000   0.86490   0.00000  Uiso   1.00
C207   C     0.49590   0.25000   0.74590   0.00000  Uiso   1.00
C208   C     0.43330   0.25000   0.68330   0.00000  Uiso   1.00
C209   C     0.17800   0.25000   0.42800   0.00000  Uiso   1.00
C210   C     0.11490   0.25000   0.36490   0.00000  Uiso   1.00
C211   C     0.99590   0.25000   0.24590   0.00000  Uiso   1.00
C212   C     0.93330   0.25000   0.18330   0.00000  Uiso   1.00
C213   C     0.32200   0.75000   0.07200   0.00000  Uiso   1.00
C214   C     0.38510   0.75000   0.13510   0.00000  Uiso   1.00
C215   C     0.50410   0.75000   0.25410   0.00000  Uiso   1.00
C216   C     0.56670   0.75000   0.31670   0.00000  Uiso   1.00
loop_
_geom_bond_atom_site_label_1
_geom_bond_atom_site_label_2
_geom_bond_distance
_geom_bond_site_symmetry_2
_ccdc_geom_bond_type
Zn1    O2      1.980   1_565 S
Zn1    O3      1.940   .     S
Zn1    N120    1.973   .     S
Zn1    N142    1.941   .     S
O2     Zn1     1.980   1_545 S
O2     C185    1.235   .     A
O3     C201    1.291   .     A
N4     C10     1.322   .     A
N4     Zn139   1.941   .     S
N4     N27     1.422   .     A
N5     C19     1.335   .     A
N5     Zn116   1.973   1_556 S
N5     N51     1.379   .     A
C6     H7      0.950   .     S
C6     C8      1.458   .     A
C6     C186    1.381   .     A
C8     H9      0.949   .     S
C8     C187    1.288   1_655 A
C10    C11     1.460   .     S
C10    C188    1.451   .     A
C11    H12     0.979   .     S
C11    H13     0.980   .     S
C11    H14     0.980   .     S
C15    H16     0.951   .     S
C15    C17     1.394   1_655 A
C15    C202    1.359   .     A
C17    C15     1.394   1_455 A
C17    H18     0.949   .     S
C17    C203    1.413   .     A
C19    C20     1.490   1_556 S
C19    C204    1.388   .     A
C20    C19     1.490   1_554 S
C20    H21     0.982   .     S
C20    H22     0.979   .     S
C20    H23     0.980   .     S
Zn24   O25     1.980   .     S
Zn24   O26     1.940   .     S
Zn24   N97     1.973   1_556 S
Zn24   N165    1.941   1_545 S
O25    C185    1.235   .     A
O26    C205    1.291   .     A
N27    C33     1.322   .     A
N27    Zn162   1.941   .     S
N28    C42     1.335   .     A
N28    Zn93    1.973   .     S
N28    N74     1.379   .     A
C29    H30     0.950   .     S
C29    C31     1.458   1_655 A
C29    C186    1.381   .     A
C31    C29     1.458   1_455 A
C31    H32     0.949   .     S
C31    C187    1.288   .     A
C33    C34     1.460   .     S
C33    C188    1.451   .     A
C34    H35     0.979   .     S
C34    H36     0.980   .     S
C34    H37     0.980   .     S
C38    H39     0.951   .     S
C38    C40     1.394   .     A
C38    C206    1.359   .     A
C40    H41     0.949   .     S
C40    C207    1.413   .     A
C42    C43     1.490   .     S
C42    C208    1.388   .     A
C43    H44     0.982   .     S
C43    H45     0.979   .     S
C43    H46     0.980   .     S
Zn47   O48     1.980   .     S
Zn47   O49     1.940   .     S
Zn47   N166    1.973   .     S
Zn47   N96     1.941   .     S
O48    C189    1.235   .     A
O49    C201    1.291   .     A
N50    C56     1.322   .     A
N50    Zn93    1.941   .     S
N50    N73     1.422   .     A
N51    C65     1.335   .     A
N51    Zn162   1.973   .     S
C52    H53     0.950   .     S
C52    C54     1.458   .     A
C52    C190    1.381   .     A
C54    H55     0.949   .     S
C54    C191    1.288   .     A
C56    C57     1.460   .     S
C56    C192    1.451   .     A
C57    H58     0.979   .     S
C57    H59     0.980   .     S
C57    H60     0.980   .     S
C61    H62     0.951   .     S
C61    C63     1.394   .     A
C61    C202    1.359   .     A
C63    H64     0.949   .     S
C63    C203    1.413   1_655 A
C65    C66     1.490   .     S
C65    C204    1.388   .     A
C66    H67     0.982   .     S
C66    H68     0.979   .     S
C66    H69     0.980   .     S
Zn70   O71     1.980   .     S
Zn70   O72     1.940   .     S
Zn70   N143    1.973   .     S
Zn70   N119    1.941   .     S
O71    C189    1.235   .     A
O72    C205    1.291   1_554 A
N73    C79     1.322   .     A
N73    Zn116   1.941   1_545 S
N74    C88     1.335   .     A
N74    Zn139   1.973   .     S
C75    H76     0.950   .     S
C75    C77     1.458   .     A
C75    C190    1.381   .     A
C77    H78     0.949   .     S
C77    C191    1.288   .     A
C79    C80     1.460   1_545 S
C79    C192    1.451   .     A
C80    C79     1.460   1_565 S
C80    H81     0.979   .     S
C80    H82     0.980   .     S
C80    H83     0.980   .     S
C84    H85     0.951   .     S
C84    C86     1.394   .     A
C84    C206    1.359   .     A
C86    H87     0.949   .     S
C86    C207    1.413   .     A
C88    C89     1.490   .     S
C88    C208    1.388   .     A
C89    H90     0.982   .     S
C89    H91     0.979   .     S
C89    H92     0.980   .     S
Zn93   O94     1.980   1_545 S
Zn93   O95     1.940   .     S
O94    Zn93    1.980   1_565 S
O94    C193    1.235   .     A
O95    C209    1.291   .     A
N96    C102    1.322   .     A
N96    N119    1.422   .     A
N97    C111    1.335   .     A
N97    Zn24    1.973   1_554 S
N97    N143    1.379   .     A
C98    H99     0.950   .     S
C98    C100    1.458   .     A
C98    C194    1.381   .     A
C100   H101    0.949   .     S
C100   C195    1.288   1_455 A
C102   C103    1.460   .     S
C102   C196    1.451   .     A
C103   H104    0.979   .     S
C103   H105    0.980   .     S
C103   H106    0.980   .     S
C107   H108    0.951   .     S
C107   C109    1.394   1_455 A
C107   C210    1.359   .     A
C109   C107    1.394   1_655 A
C109   H110    0.949   .     S
C109   C211    1.413   .     A
C111   C112    1.490   1_554 S
C111   C212    1.388   .     A
C112   C111    1.490   1_556 S
C112   H113    0.982   .     S
C112   H114    0.979   .     S
C112   H115    0.980   .     S
Zn116  O117    1.980   .     S
Zn116  O118    1.940   .     S
Zn116  N5      1.973   1_554 S
Zn116  N73     1.941   1_565 S
O117   C193    1.235   .     A
O118   C213    1.291   .     A
N119   C125    1.322   .     A
N120   C134    1.335   .     A
N120   N166    1.379   .     A
C121   H122    0.950   .     S
C121   C123    1.458   1_455 A
C121   C194    1.381   .     A
C123   C121    1.458   1_655 A
C123   H124    0.949   .     S
C123   C195    1.288   .     A
C125   C126    1.460   .     S
C125   C196    1.451   .     A
C126   H127    0.979   .     S
C126   H128    0.980   .     S
C126   H129    0.980   .     S
C130   H131    0.951   .     S
C130   C132    1.394   .     A
C130   C214    1.359   .     A
C132   H133    0.949   .     S
C132   C215    1.413   .     A
C134   C135    1.490   .     S
C134   C216    1.388   .     A
C135   H136    0.982   .     S
C135   H137    0.979   .     S
C135   H138    0.980   .     S
Zn139  O140    1.980   .     S
Zn139  O141    1.940   .     S
O140   C197    1.235   .     A
O141   C209    1.291   .     A
N142   C148    1.322   .     A
N142   N165    1.422   .     A
N143   C157    1.335   .     A
C144   H145    0.950   .     S
C144   C146    1.458   .     A
C144   C198    1.381   .     A
C146   H147    0.949   .     S
C146   C199    1.288   .     A
C148   C149    1.460   .     S
C148   C200    1.451   .     A
C149   H150    0.979   .     S
C149   H151    0.980   .     S
C149   H152    0.980   .     S
C153   H154    0.951   .     S
C153   C155    1.394   .     A
C153   C210    1.359   .     A
C155   H156    0.949   .     S
C155   C211    1.413   1_455 A
C157   C158    1.490   .     S
C157   C212    1.388   .     A
C158   H159    0.982   .     S
C158   H160    0.979   .     S
C158   H161    0.980   .     S
Zn162  O163    1.980   .     S
Zn162  O164    1.940   .     S
O163   C197    1.235   .     A
O164   C213    1.291   1_556 A
N165   C171    1.322   .     A
N165   Zn24    1.941   1_565 S
N166   C180    1.335   .     A
C167   H168    0.950   .     S
C167   C169    1.458   .     A
C167   C198    1.381   .     A
C169   H170    0.949   .     S
C169   C199    1.288   .     A
C171   C172    1.460   1_565 S
C171   C200    1.451   .     A
C172   C171    1.460   1_545 S
C172   H173    0.979   .     S
C172   H174    0.980   .     S
C172   H175    0.980   .     S
C176   H177    0.951   .     S
C176   C178    1.394   .     A
C176   C214    1.359   .     A
C178   H179    0.949   .     S
C178   C215    1.413   .     A
C180   C181    1.490   .     S
C180   C216    1.388   .     A
C181   H182    0.982   .     S
C181   H183    0.979   .     S
C181   H184    0.980   .     S
C185   C186    1.481   .     S
C187   C8      1.288   1_455 A
C187   C188    1.472   .     S
C189   C190    1.481   .     S
C191   C192    1.472   .     S
C193   C194    1.481   .     S
C195   C100    1.288   1_655 A
C195   C196    1.472   .     S
C197   C198    1.481   .     S
C199   C200    1.472   .     S
C201   C202    1.489   .     S
C203   C63     1.413   1_455 A
C203   C204    1.477   .     S
C205   O72     1.291   1_556 A
C205   C206    1.489   .     S
C207   C208    1.477   .     S
C209   C210    1.489   .     S
C211   C155    1.413   1_655 A
C211   C212    1.477   .     S
C213   O164    1.291   1_554 A
C213   C214    1.489   .     S
C215   C216    1.477   .     S
