data_image0
_cell_length_a       9.0238
_cell_length_b       9.0392
_cell_length_c       13.8071
_cell_angle_alpha    95.965
_cell_angle_beta     96.049
_cell_angle_gamma    110.228

_symmetry_space_group_name_H-M    "P 1"
_symmetry_int_tables_number       1

loop_
  _symmetry_equiv_pos_as_xyz
  'x, y, z'

loop_
  _atom_site_label
  _atom_site_occupancy
  _atom_site_fract_x
  _atom_site_fract_y
  _atom_site_fract_z
  _atom_site_thermal_displace_type
  _atom_site_B_iso_or_equiv
  _atom_site_type_symbol
  Zn1      1.0000 0.97132  0.13261  0.89652  Biso   1.000  Zn
  Zn2      1.0000 0.28221  0.71760  0.75007  Biso   1.000  Zn
  Zn3      1.0000 0.86704  0.02871  0.60324  Biso   1.000  Zn
  P1       1.0000 0.05630  0.81780  0.88412  Biso   1.000  P
  H1       1.0000 0.94200  0.74900  0.80000  Biso   1.000  H
  P2       1.0000 0.18160  0.94330  0.61577  Biso   1.000  P
  H2       1.0000 0.25900  0.05700  0.70300  Biso   1.000  H
  P3       1.0000 0.05480  0.36620  0.73236  Biso   1.000  P
  H3       1.0000 0.95600  0.44100  0.75600  Biso   1.000  H
  P4       1.0000 0.63340  0.94490  0.76714  Biso   1.000  P
  H4       1.0000 0.55500  0.04500  0.74200  Biso   1.000  H
  O1       1.0000 0.09400  0.99480  0.89200  Biso   1.000  O
  O2       1.0000 0.98960  0.74870  0.97240  Biso   1.000  O
  O3       1.0000 0.20340  0.77820  0.86680  Biso   1.000  O
  O4       1.0000 0.22140  0.79670  0.63340  Biso   1.000  O
  O5       1.0000 0.00400  0.90470  0.60750  Biso   1.000  O
  O6       1.0000 0.25040  0.01030  0.52720  Biso   1.000  O
  O7       1.0000 0.97000  0.25400  0.64020  Biso   1.000  O
  O8       1.0000 0.20700  0.48940  0.71460  Biso   1.000  O
  O9       1.0000 0.09000  0.28550  0.81810  Biso   1.000  O
  O10      1.0000 0.71400  0.91040  0.68130  Biso   1.000  O
  O11      1.0000 0.51030  0.79130  0.78500  Biso   1.000  O
  O12      1.0000 0.74600  0.03150  0.86010  Biso   1.000  O
  Zn4      1.0000 0.02868  0.86739  0.10348  Biso   1.000  Zn
  Zn5      1.0000 0.71779  0.28240  0.24993  Biso   1.000  Zn
  Zn6      1.0000 0.13296  0.97129  0.39676  Biso   1.000  Zn
  P5       1.0000 0.94370  0.18220  0.11588  Biso   1.000  P
  H5       1.0000 0.05800  0.25100  0.20000  Biso   1.000  H
  P6       1.0000 0.81840  0.05670  0.38423  Biso   1.000  P
  H6       1.0000 0.74100  0.94300  0.29700  Biso   1.000  H
  P7       1.0000 0.94520  0.63380  0.26764  Biso   1.000  P
  H7       1.0000 0.04400  0.55900  0.24400  Biso   1.000  H
  P8       1.0000 0.36660  0.05510  0.23286  Biso   1.000  P
  H8       1.0000 0.44500  0.95500  0.25800  Biso   1.000  H
  O13      1.0000 0.90600  0.00520  0.10800  Biso   1.000  O
  O14      1.0000 0.01040  0.25130  0.02760  Biso   1.000  O
  O15      1.0000 0.79660  0.22180  0.13320  Biso   1.000  O
  O16      1.0000 0.77860  0.20330  0.36660  Biso   1.000  O
  O17      1.0000 0.99600  0.09530  0.39250  Biso   1.000  O
  O18      1.0000 0.74960  0.98970  0.47280  Biso   1.000  O
  O19      1.0000 0.03000  0.74600  0.35980  Biso   1.000  O
  O20      1.0000 0.79300  0.51060  0.28540  Biso   1.000  O
  O21      1.0000 0.91000  0.71450  0.18190  Biso   1.000  O
  O22      1.0000 0.28600  0.08960  0.31870  Biso   1.000  O
  O23      1.0000 0.48970  0.20870  0.21500  Biso   1.000  O
  O24      1.0000 0.25400  0.96850  0.13990  Biso   1.000  O
