data_image0
_cell_length_a       7.7703
_cell_length_b       9.1499
_cell_length_c       14.4685
_cell_angle_alpha    89.965
_cell_angle_beta     87.05
_cell_angle_gamma    65.332

_symmetry_space_group_name_H-M    "P 1"
_symmetry_int_tables_number       1

loop_
  _symmetry_equiv_pos_as_xyz
  'x, y, z'

loop_
  _atom_site_label
  _atom_site_occupancy
  _atom_site_fract_x
  _atom_site_fract_y
  _atom_site_fract_z
  _atom_site_thermal_displace_type
  _atom_site_B_iso_or_equiv
  _atom_site_type_symbol
  Zn1      1.0000 0.21857  0.96890  0.11066  Biso   1.000  Zn
  Zn2      1.0000 0.40719  0.93917  0.37925  Biso   1.000  Zn
  Zn3      1.0000 0.70314  0.30905  0.23582  Biso   1.000  Zn
  P1       1.0000 0.52300  0.67870  0.21007  Biso   1.000  P
  H1       1.0000 0.69800  0.65300  0.21200  Biso   1.000  H
  P2       1.0000 0.13750  0.23630  0.27012  Biso   1.000  P
  H2       1.0000 0.20900  0.35400  0.27700  Biso   1.000  H
  P3       1.0000 0.32210  0.89040  0.59355  Biso   1.000  P
  H3       1.0000 0.15300  0.93000  0.60210  Biso   1.000  H
  P4       1.0000 0.19930  0.99990  0.88901  Biso   1.000  P
  H4       1.0000 0.29700  0.05300  0.83700  Biso   1.000  H
  O1       1.0000 0.45040  0.77790  0.12450  Biso   1.000  O
  O2       1.0000 0.22800  0.14650  0.17960  Biso   1.000  O
  O3       1.0000 0.22500  0.04410  0.98600  Biso   1.000  O
  O4       1.0000 0.99940  0.08010  0.85850  Biso   1.000  O
  O5       1.0000 0.41980  0.76680  0.29800  Biso   1.000  O
  O6       1.0000 0.19140  0.13330  0.35490  Biso   1.000  O
  O7       1.0000 0.38090  0.83970  0.49410  Biso   1.000  O
  O8       1.0000 0.35660  0.03600  0.62300  Biso   1.000  O
  O9       1.0000 0.41390  0.74550  0.65440  Biso   1.000  O
  O10      1.0000 0.92610  0.32990  0.26910  Biso   1.000  O
  O11      1.0000 0.51690  0.51440  0.20200  Biso   1.000  O
  O12      1.0000 0.28250  0.81770  0.87330  Biso   1.000  O
  Zn4      1.0000 0.78143  0.03110  0.88934  Biso   1.000  Zn
  Zn5      1.0000 0.59281  0.06083  0.62075  Biso   1.000  Zn
  Zn6      1.0000 0.29686  0.69095  0.76418  Biso   1.000  Zn
  P5       1.0000 0.47700  0.32130  0.78993  Biso   1.000  P
  H5       1.0000 0.30200  0.34700  0.78800  Biso   1.000  H
  P6       1.0000 0.86250  0.76370  0.72988  Biso   1.000  P
  H6       1.0000 0.79100  0.64600  0.72300  Biso   1.000  H
  P7       1.0000 0.67790  0.10960  0.40645  Biso   1.000  P
  H7       1.0000 0.84700  0.07000  0.39790  Biso   1.000  H
  P8       1.0000 0.80070  0.00010  0.11099  Biso   1.000  P
  H8       1.0000 0.70300  0.94700  0.16300  Biso   1.000  H
  O13      1.0000 0.54960  0.22210  0.87550  Biso   1.000  O
  O14      1.0000 0.77200  0.85350  0.82040  Biso   1.000  O
  O15      1.0000 0.77500  0.95590  0.01400  Biso   1.000  O
  O16      1.0000 0.00060  0.91990  0.14150  Biso   1.000  O
  O17      1.0000 0.58020  0.23320  0.70200  Biso   1.000  O
  O18      1.0000 0.80860  0.86670  0.64510  Biso   1.000  O
  O19      1.0000 0.61910  0.16030  0.50590  Biso   1.000  O
  O20      1.0000 0.64340  0.96400  0.37700  Biso   1.000  O
  O21      1.0000 0.58610  0.25450  0.34560  Biso   1.000  O
  O22      1.0000 0.07390  0.67010  0.73090  Biso   1.000  O
  O23      1.0000 0.48310  0.48560  0.79800  Biso   1.000  O
  O24      1.0000 0.71750  0.18230  0.12670  Biso   1.000  O
