data_image0
_cell_length_a       18.7209
_cell_length_b       18.7209
_cell_length_c       18.7209
_cell_angle_alpha    60
_cell_angle_beta     60
_cell_angle_gamma    60

_symmetry_space_group_name_H-M    P 1
_symmetry_int_tables_number       1

loop_
  _symmetry_equiv_pos_as_xyz
  'x, y, z'

loop_
  _atom_site_label
  _atom_site_occupancy
  _atom_site_fract_x
  _atom_site_fract_y
  _atom_site_fract_z
  _atom_site_thermal_displace_type
  _atom_site_B_iso_or_equiv
  _atom_site_type_symbol
  Ca1      1.0000 0.50000  0.50000  0.50000  Biso   1.000  Ca
  Ca2      1.0000 0.00000  0.00000  0.50000  Biso   1.000  Ca
  Ca3      1.0000 0.00000  0.50000  0.00000  Biso   1.000  Ca
  Ca4      1.0000 0.00000  0.50000  0.50000  Biso   1.000  Ca
  Ca5      1.0000 0.50000  0.50000  0.00000  Biso   1.000  Ca
  Ca6      1.0000 0.00000  0.00000  0.00000  Biso   1.000  Ca
  Ca7      1.0000 0.50000  0.00000  0.50000  Biso   1.000  Ca
  Ca8      1.0000 0.50000  0.00000  0.00000  Biso   1.000  Ca
  Dy1      1.0000 0.75000  0.25000  0.25000  Biso   1.000  Dy
  Dy2      1.0000 0.75000  0.25000  0.75000  Biso   1.000  Dy
  Dy3      1.0000 0.75000  0.75000  0.25000  Biso   1.000  Dy
  Dy4      1.0000 0.25000  0.25000  0.25000  Biso   1.000  Dy
  Dy5      1.0000 0.25000  0.75000  0.75000  Biso   1.000  Dy
  Dy6      1.0000 0.25000  0.75000  0.25000  Biso   1.000  Dy
  Dy7      1.0000 0.25000  0.25000  0.75000  Biso   1.000  Dy
  Dy8      1.0000 0.75000  0.75000  0.75000  Biso   1.000  Dy
  H1       1.0000 0.51600  0.41640  0.34480  Biso   1.000  H
  H2       1.0000 0.57630  0.47410  0.29490  Biso   1.000  H
  H3       1.0000 0.91640  0.01600  0.72280  Biso   1.000  H
  H4       1.0000 0.97410  0.07630  0.65470  Biso   1.000  H
  H5       1.0000 0.84480  0.72280  0.01600  Biso   1.000  H
  H6       1.0000 0.79490  0.65470  0.07630  Biso   1.000  H
  H7       1.0000 0.22280  0.34480  0.41640  Biso   1.000  H
  H8       1.0000 0.15470  0.29490  0.47410  Biso   1.000  H
  H9       1.0000 0.51600  0.34480  0.72280  Biso   1.000  H
  H10      1.0000 0.57630  0.29490  0.65470  Biso   1.000  H
  H11      1.0000 0.91640  0.72280  0.34480  Biso   1.000  H
  H12      1.0000 0.97410  0.65470  0.29490  Biso   1.000  H
  H13      1.0000 0.84480  0.01600  0.41640  Biso   1.000  H
  H14      1.0000 0.79490  0.07630  0.47410  Biso   1.000  H
  H15      1.0000 0.22280  0.41640  0.01600  Biso   1.000  H
  H16      1.0000 0.15470  0.47410  0.07630  Biso   1.000  H
  H17      1.0000 0.51600  0.72280  0.41640  Biso   1.000  H
  H18      1.0000 0.57630  0.65470  0.47410  Biso   1.000  H
  H19      1.0000 0.91640  0.34480  0.01600  Biso   1.000  H
  H20      1.0000 0.97410  0.29490  0.07630  Biso   1.000  H
  H21      1.0000 0.84480  0.41640  0.72280  Biso   1.000  H
  H22      1.0000 0.79490  0.47410  0.65470  Biso   1.000  H
  H23      1.0000 0.22280  0.01600  0.34480  Biso   1.000  H
  H24      1.0000 0.15470  0.07630  0.29490  Biso   1.000  H
  H25      1.0000 0.58360  0.48400  0.15520  Biso   1.000  H
  H26      1.0000 0.52590  0.42370  0.20510  Biso   1.000  H
  H27      1.0000 0.98400  0.08360  0.77720  Biso   1.000  H
  H28      1.0000 0.92370  0.02590  0.84530  Biso   1.000  H
  H29      1.0000 0.27720  0.15520  0.48400  Biso   1.000  H
  H30      1.0000 0.34530  0.20510  0.42370  Biso   1.000  H
  H31      1.0000 0.65520  0.77720  0.08360  Biso   1.000  H
  H32      1.0000 0.70510  0.84530  0.02590  Biso   1.000  H
  H33      1.0000 0.65520  0.48400  0.77720  Biso   1.000  H
  H34      1.0000 0.70510  0.42370  0.84530  Biso   1.000  H
  H35      1.0000 0.27720  0.08360  0.15520  Biso   1.000  H
  H36      1.0000 0.34530  0.02590  0.20510  Biso   1.000  H
  H37      1.0000 0.98400  0.15520  0.08360  Biso   1.000  H
  H38      1.0000 0.92370  0.20510  0.02590  Biso   1.000  H
  H39      1.0000 0.58360  0.77720  0.48400  Biso   1.000  H
  H40      1.0000 0.52590  0.84530  0.42370  Biso   1.000  H
  H41      1.0000 0.27720  0.48400  0.08360  Biso   1.000  H
  H42      1.0000 0.34530  0.42370  0.02590  Biso   1.000  H
  H43      1.0000 0.65520  0.08360  0.48400  Biso   1.000  H
  H44      1.0000 0.70510  0.02590  0.42370  Biso   1.000  H
  H45      1.0000 0.58360  0.15520  0.77720  Biso   1.000  H
  H46      1.0000 0.52590  0.20510  0.84530  Biso   1.000  H
  H47      1.0000 0.98400  0.77720  0.15520  Biso   1.000  H
  H48      1.0000 0.92370  0.84530  0.20510  Biso   1.000  H
  H49      1.0000 0.48400  0.58360  0.65520  Biso   1.000  H
  H50      1.0000 0.42370  0.52590  0.70510  Biso   1.000  H
  H51      1.0000 0.08360  0.98400  0.27720  Biso   1.000  H
  H52      1.0000 0.02590  0.92370  0.34530  Biso   1.000  H
  H53      1.0000 0.15520  0.27720  0.98400  Biso   1.000  H
  H54      1.0000 0.20510  0.34530  0.92370  Biso   1.000  H
  H55      1.0000 0.77720  0.65520  0.58360  Biso   1.000  H
  H56      1.0000 0.84530  0.70510  0.52590  Biso   1.000  H
  H57      1.0000 0.48400  0.65520  0.27720  Biso   1.000  H
  H58      1.0000 0.42370  0.70510  0.34530  Biso   1.000  H
  H59      1.0000 0.08360  0.27720  0.65520  Biso   1.000  H
  H60      1.0000 0.02590  0.34530  0.70510  Biso   1.000  H
  H61      1.0000 0.15520  0.98400  0.58360  Biso   1.000  H
  H62      1.0000 0.20510  0.92370  0.52590  Biso   1.000  H
  H63      1.0000 0.77720  0.58360  0.98400  Biso   1.000  H
  H64      1.0000 0.84530  0.52590  0.92370  Biso   1.000  H
  H65      1.0000 0.48400  0.27720  0.58360  Biso   1.000  H
  H66      1.0000 0.42370  0.34530  0.52590  Biso   1.000  H
  H67      1.0000 0.08360  0.65520  0.98400  Biso   1.000  H
  H68      1.0000 0.02590  0.70510  0.92370  Biso   1.000  H
  H69      1.0000 0.15520  0.58360  0.27720  Biso   1.000  H
  H70      1.0000 0.20510  0.52590  0.34530  Biso   1.000  H
  H71      1.0000 0.77720  0.98400  0.65520  Biso   1.000  H
  H72      1.0000 0.84530  0.92370  0.70510  Biso   1.000  H
  H73      1.0000 0.41640  0.51600  0.84480  Biso   1.000  H
  H74      1.0000 0.47410  0.57630  0.79490  Biso   1.000  H
  H75      1.0000 0.01600  0.91640  0.22280  Biso   1.000  H
  H76      1.0000 0.07630  0.97410  0.15470  Biso   1.000  H
  H77      1.0000 0.72280  0.84480  0.51600  Biso   1.000  H
  H78      1.0000 0.65470  0.79490  0.57630  Biso   1.000  H
  H79      1.0000 0.34480  0.22280  0.91640  Biso   1.000  H
  H80      1.0000 0.29490  0.15470  0.97410  Biso   1.000  H
  H81      1.0000 0.34480  0.51600  0.22280  Biso   1.000  H
  H82      1.0000 0.29490  0.57630  0.15470  Biso   1.000  H
  H83      1.0000 0.72280  0.91640  0.84480  Biso   1.000  H
  H84      1.0000 0.65470  0.97410  0.79490  Biso   1.000  H
  H85      1.0000 0.01600  0.84480  0.91640  Biso   1.000  H
  H86      1.0000 0.07630  0.79490  0.97410  Biso   1.000  H
  H87      1.0000 0.41640  0.22280  0.51600  Biso   1.000  H
  H88      1.0000 0.47410  0.15470  0.57630  Biso   1.000  H
  H89      1.0000 0.72280  0.51600  0.91640  Biso   1.000  H
  H90      1.0000 0.65470  0.57630  0.97410  Biso   1.000  H
  H91      1.0000 0.34480  0.91640  0.51600  Biso   1.000  H
  H92      1.0000 0.29490  0.97410  0.57630  Biso   1.000  H
  H93      1.0000 0.41640  0.84480  0.22280  Biso   1.000  H
  H94      1.0000 0.47410  0.79490  0.15470  Biso   1.000  H
  H95      1.0000 0.01600  0.22280  0.84480  Biso   1.000  H
  H96      1.0000 0.07630  0.15470  0.79490  Biso   1.000  H
  C1       1.0000 0.57630  0.41470  0.31810  Biso   1.000  C
  C2       1.0000 0.62055  0.35973  0.38547  Biso   1.000  C
  C3       1.0000 0.91470  0.07630  0.69090  Biso   1.000  C
  C4       1.0000 0.85973  0.12055  0.63425  Biso   1.000  C
  C5       1.0000 0.81810  0.69090  0.07630  Biso   1.000  C
  C6       1.0000 0.88547  0.63425  0.12055  Biso   1.000  C
  C7       1.0000 0.19090  0.31810  0.41470  Biso   1.000  C
  C8       1.0000 0.13425  0.38547  0.35973  Biso   1.000  C
  C9       1.0000 0.57630  0.31810  0.69090  Biso   1.000  C
  C10      1.0000 0.62055  0.38547  0.63425  Biso   1.000  C
  C11      1.0000 0.91470  0.69090  0.31810  Biso   1.000  C
  C12      1.0000 0.85973  0.63425  0.38547  Biso   1.000  C
  C13      1.0000 0.81810  0.07630  0.41470  Biso   1.000  C
  C14      1.0000 0.88547  0.12055  0.35973  Biso   1.000  C
  C15      1.0000 0.19090  0.41470  0.07630  Biso   1.000  C
  C16      1.0000 0.13425  0.35973  0.12055  Biso   1.000  C
  C17      1.0000 0.57630  0.69090  0.41470  Biso   1.000  C
  C18      1.0000 0.62055  0.63425  0.35973  Biso   1.000  C
  C19      1.0000 0.91470  0.31810  0.07630  Biso   1.000  C
  C20      1.0000 0.85973  0.38547  0.12055  Biso   1.000  C
  C21      1.0000 0.81810  0.41470  0.69090  Biso   1.000  C
  C22      1.0000 0.88547  0.35973  0.63425  Biso   1.000  C
  C23      1.0000 0.19090  0.07630  0.31810  Biso   1.000  C
  C24      1.0000 0.13425  0.12055  0.38547  Biso   1.000  C
  C25      1.0000 0.58530  0.42370  0.18190  Biso   1.000  C
  C26      1.0000 0.64027  0.37945  0.11453  Biso   1.000  C
  C27      1.0000 0.92370  0.08530  0.80910  Biso   1.000  C
  C28      1.0000 0.87945  0.14027  0.86575  Biso   1.000  C
  C29      1.0000 0.30910  0.18190  0.42370  Biso   1.000  C
  C30      1.0000 0.36575  0.11453  0.37945  Biso   1.000  C
  C31      1.0000 0.68190  0.80910  0.08530  Biso   1.000  C
  C32      1.0000 0.61453  0.86575  0.14027  Biso   1.000  C
  C33      1.0000 0.68190  0.42370  0.80910  Biso   1.000  C
  C34      1.0000 0.61453  0.37945  0.86575  Biso   1.000  C
  C35      1.0000 0.30910  0.08530  0.18190  Biso   1.000  C
  C36      1.0000 0.36575  0.14027  0.11453  Biso   1.000  C
  C37      1.0000 0.92370  0.18190  0.08530  Biso   1.000  C
  C38      1.0000 0.87945  0.11453  0.14027  Biso   1.000  C
  C39      1.0000 0.58530  0.80910  0.42370  Biso   1.000  C
  C40      1.0000 0.64027  0.86575  0.37945  Biso   1.000  C
  C41      1.0000 0.30910  0.42370  0.08530  Biso   1.000  C
  C42      1.0000 0.36575  0.37945  0.14027  Biso   1.000  C
  C43      1.0000 0.68190  0.08530  0.42370  Biso   1.000  C
  C44      1.0000 0.61453  0.14027  0.37945  Biso   1.000  C
  C45      1.0000 0.58530  0.18190  0.80910  Biso   1.000  C
  C46      1.0000 0.64027  0.11453  0.86575  Biso   1.000  C
  C47      1.0000 0.92370  0.80910  0.18190  Biso   1.000  C
  C48      1.0000 0.87945  0.86575  0.11453  Biso   1.000  C
  C49      1.0000 0.42370  0.58530  0.68190  Biso   1.000  C
  C50      1.0000 0.37945  0.64027  0.61453  Biso   1.000  C
  C51      1.0000 0.08530  0.92370  0.30910  Biso   1.000  C
  C52      1.0000 0.14027  0.87945  0.36575  Biso   1.000  C
  C53      1.0000 0.18190  0.30910  0.92370  Biso   1.000  C
  C54      1.0000 0.11453  0.36575  0.87945  Biso   1.000  C
  C55      1.0000 0.80910  0.68190  0.58530  Biso   1.000  C
  C56      1.0000 0.86575  0.61453  0.64027  Biso   1.000  C
  C57      1.0000 0.42370  0.68190  0.30910  Biso   1.000  C
  C58      1.0000 0.37945  0.61453  0.36575  Biso   1.000  C
  C59      1.0000 0.08530  0.30910  0.68190  Biso   1.000  C
  C60      1.0000 0.14027  0.36575  0.61453  Biso   1.000  C
  C61      1.0000 0.18190  0.92370  0.58530  Biso   1.000  C
  C62      1.0000 0.11453  0.87945  0.64027  Biso   1.000  C
  C63      1.0000 0.80910  0.58530  0.92370  Biso   1.000  C
  C64      1.0000 0.86575  0.64027  0.87945  Biso   1.000  C
  C65      1.0000 0.42370  0.30910  0.58530  Biso   1.000  C
  C66      1.0000 0.37945  0.36575  0.64027  Biso   1.000  C
  C67      1.0000 0.08530  0.68190  0.92370  Biso   1.000  C
  C68      1.0000 0.14027  0.61453  0.87945  Biso   1.000  C
  C69      1.0000 0.18190  0.58530  0.30910  Biso   1.000  C
  C70      1.0000 0.11453  0.64027  0.36575  Biso   1.000  C
  C71      1.0000 0.80910  0.92370  0.68190  Biso   1.000  C
  C72      1.0000 0.86575  0.87945  0.61453  Biso   1.000  C
  C73      1.0000 0.41470  0.57630  0.81810  Biso   1.000  C
  C74      1.0000 0.35973  0.62055  0.88547  Biso   1.000  C
  C75      1.0000 0.07630  0.91470  0.19090  Biso   1.000  C
  C76      1.0000 0.12055  0.85973  0.13425  Biso   1.000  C
  C77      1.0000 0.69090  0.81810  0.57630  Biso   1.000  C
  C78      1.0000 0.63425  0.88547  0.62055  Biso   1.000  C
  C79      1.0000 0.31810  0.19090  0.91470  Biso   1.000  C
  C80      1.0000 0.38547  0.13425  0.85973  Biso   1.000  C
  C81      1.0000 0.31810  0.57630  0.19090  Biso   1.000  C
  C82      1.0000 0.38547  0.62055  0.13425  Biso   1.000  C
  C83      1.0000 0.69090  0.91470  0.81810  Biso   1.000  C
  C84      1.0000 0.63425  0.85973  0.88547  Biso   1.000  C
  C85      1.0000 0.07630  0.81810  0.91470  Biso   1.000  C
  C86      1.0000 0.12055  0.88547  0.85973  Biso   1.000  C
  C87      1.0000 0.41470  0.19090  0.57630  Biso   1.000  C
  C88      1.0000 0.35973  0.13425  0.62055  Biso   1.000  C
  C89      1.0000 0.69090  0.57630  0.91470  Biso   1.000  C
  C90      1.0000 0.63425  0.62055  0.85973  Biso   1.000  C
  C91      1.0000 0.31810  0.91470  0.57630  Biso   1.000  C
  C92      1.0000 0.38547  0.85973  0.62055  Biso   1.000  C
  C93      1.0000 0.41470  0.81810  0.19090  Biso   1.000  C
  C94      1.0000 0.35973  0.88547  0.13425  Biso   1.000  C
  C95      1.0000 0.07630  0.19090  0.81810  Biso   1.000  C
  C96      1.0000 0.12055  0.13425  0.88547  Biso   1.000  C
  O1       1.0000 0.68705  0.29561  0.37195  Biso   1.000  O
  O2       1.0000 0.58905  0.38161  0.45071  Biso   1.000  O
  O3       1.0000 0.79561  0.18705  0.64539  Biso   1.000  O
  O4       1.0000 0.88161  0.08905  0.57863  Biso   1.000  O
  O5       1.0000 0.87195  0.64539  0.18705  Biso   1.000  O
  O6       1.0000 0.95071  0.57863  0.08905  Biso   1.000  O
  O7       1.0000 0.14539  0.37195  0.29561  Biso   1.000  O
  O8       1.0000 0.07863  0.45071  0.38161  Biso   1.000  O
  O9       1.0000 0.68705  0.37195  0.64539  Biso   1.000  O
  O10      1.0000 0.58905  0.45071  0.57863  Biso   1.000  O
  O11      1.0000 0.79561  0.64539  0.37195  Biso   1.000  O
  O12      1.0000 0.88161  0.57863  0.45071  Biso   1.000  O
  O13      1.0000 0.87195  0.18705  0.29561  Biso   1.000  O
  O14      1.0000 0.95071  0.08905  0.38161  Biso   1.000  O
  O15      1.0000 0.14539  0.29561  0.18705  Biso   1.000  O
  O16      1.0000 0.07863  0.38161  0.08905  Biso   1.000  O
  O17      1.0000 0.68705  0.64539  0.29561  Biso   1.000  O
  O18      1.0000 0.58905  0.57863  0.38161  Biso   1.000  O
  O19      1.0000 0.79561  0.37195  0.18705  Biso   1.000  O
  O20      1.0000 0.88161  0.45071  0.08905  Biso   1.000  O
  O21      1.0000 0.87195  0.29561  0.64539  Biso   1.000  O
  O22      1.0000 0.95071  0.38161  0.57863  Biso   1.000  O
  O23      1.0000 0.14539  0.18705  0.37195  Biso   1.000  O
  O24      1.0000 0.07863  0.08905  0.45071  Biso   1.000  O
  O25      1.0000 0.70439  0.31295  0.12805  Biso   1.000  O
  O26      1.0000 0.61839  0.41095  0.04929  Biso   1.000  O
  O27      1.0000 0.81295  0.20439  0.85461  Biso   1.000  O
  O28      1.0000 0.91095  0.11839  0.92137  Biso   1.000  O
  O29      1.0000 0.35461  0.12805  0.31295  Biso   1.000  O
  O30      1.0000 0.42137  0.04929  0.41095  Biso   1.000  O
  O31      1.0000 0.62805  0.85461  0.20439  Biso   1.000  O
  O32      1.0000 0.54929  0.92137  0.11839  Biso   1.000  O
  O33      1.0000 0.62805  0.31295  0.85461  Biso   1.000  O
  O34      1.0000 0.54929  0.41095  0.92137  Biso   1.000  O
  O35      1.0000 0.35461  0.20439  0.12805  Biso   1.000  O
  O36      1.0000 0.42137  0.11839  0.04929  Biso   1.000  O
  O37      1.0000 0.81295  0.12805  0.20439  Biso   1.000  O
  O38      1.0000 0.91095  0.04929  0.11839  Biso   1.000  O
  O39      1.0000 0.70439  0.85461  0.31295  Biso   1.000  O
  O40      1.0000 0.61839  0.92137  0.41095  Biso   1.000  O
  O41      1.0000 0.35461  0.31295  0.20439  Biso   1.000  O
  O42      1.0000 0.42137  0.41095  0.11839  Biso   1.000  O
  O43      1.0000 0.62805  0.20439  0.31295  Biso   1.000  O
  O44      1.0000 0.54929  0.11839  0.41095  Biso   1.000  O
  O45      1.0000 0.70439  0.12805  0.85461  Biso   1.000  O
  O46      1.0000 0.61839  0.04929  0.92137  Biso   1.000  O
  O47      1.0000 0.81295  0.85461  0.12805  Biso   1.000  O
  O48      1.0000 0.91095  0.92137  0.04929  Biso   1.000  O
  O49      1.0000 0.31295  0.70439  0.62805  Biso   1.000  O
  O50      1.0000 0.41095  0.61839  0.54929  Biso   1.000  O
  O51      1.0000 0.20439  0.81295  0.35461  Biso   1.000  O
  O52      1.0000 0.11839  0.91095  0.42137  Biso   1.000  O
  O53      1.0000 0.12805  0.35461  0.81295  Biso   1.000  O
  O54      1.0000 0.04929  0.42137  0.91095  Biso   1.000  O
  O55      1.0000 0.85461  0.62805  0.70439  Biso   1.000  O
  O56      1.0000 0.92137  0.54929  0.61839  Biso   1.000  O
  O57      1.0000 0.31295  0.62805  0.35461  Biso   1.000  O
  O58      1.0000 0.41095  0.54929  0.42137  Biso   1.000  O
  O59      1.0000 0.20439  0.35461  0.62805  Biso   1.000  O
  O60      1.0000 0.11839  0.42137  0.54929  Biso   1.000  O
  O61      1.0000 0.12805  0.81295  0.70439  Biso   1.000  O
  O62      1.0000 0.04929  0.91095  0.61839  Biso   1.000  O
  O63      1.0000 0.85461  0.70439  0.81295  Biso   1.000  O
  O64      1.0000 0.92137  0.61839  0.91095  Biso   1.000  O
  O65      1.0000 0.31295  0.35461  0.70439  Biso   1.000  O
  O66      1.0000 0.41095  0.42137  0.61839  Biso   1.000  O
  O67      1.0000 0.20439  0.62805  0.81295  Biso   1.000  O
  O68      1.0000 0.11839  0.54929  0.91095  Biso   1.000  O
  O69      1.0000 0.12805  0.70439  0.35461  Biso   1.000  O
  O70      1.0000 0.04929  0.61839  0.42137  Biso   1.000  O
  O71      1.0000 0.85461  0.81295  0.62805  Biso   1.000  O
  O72      1.0000 0.92137  0.91095  0.54929  Biso   1.000  O
  O73      1.0000 0.29561  0.68705  0.87195  Biso   1.000  O
  O74      1.0000 0.38161  0.58905  0.95071  Biso   1.000  O
  O75      1.0000 0.18705  0.79561  0.14539  Biso   1.000  O
  O76      1.0000 0.08905  0.88161  0.07863  Biso   1.000  O
  O77      1.0000 0.64539  0.87195  0.68705  Biso   1.000  O
  O78      1.0000 0.57863  0.95071  0.58905  Biso   1.000  O
  O79      1.0000 0.37195  0.14539  0.79561  Biso   1.000  O
  O80      1.0000 0.45071  0.07863  0.88161  Biso   1.000  O
  O81      1.0000 0.37195  0.68705  0.14539  Biso   1.000  O
  O82      1.0000 0.45071  0.58905  0.07863  Biso   1.000  O
  O83      1.0000 0.64539  0.79561  0.87195  Biso   1.000  O
  O84      1.0000 0.57863  0.88161  0.95071  Biso   1.000  O
  O85      1.0000 0.18705  0.87195  0.79561  Biso   1.000  O
  O86      1.0000 0.08905  0.95071  0.88161  Biso   1.000  O
  O87      1.0000 0.29561  0.14539  0.68705  Biso   1.000  O
  O88      1.0000 0.38161  0.07863  0.58905  Biso   1.000  O
  O89      1.0000 0.64539  0.68705  0.79561  Biso   1.000  O
  O90      1.0000 0.57863  0.58905  0.88161  Biso   1.000  O
  O91      1.0000 0.37195  0.79561  0.68705  Biso   1.000  O
  O92      1.0000 0.45071  0.88161  0.58905  Biso   1.000  O
  O93      1.0000 0.29561  0.87195  0.14539  Biso   1.000  O
  O94      1.0000 0.38161  0.95071  0.07863  Biso   1.000  O
  O95      1.0000 0.18705  0.14539  0.87195  Biso   1.000  O
  O96      1.0000 0.08905  0.07863  0.95071  Biso   1.000  O
  O97      1.0000 0.61964  0.38036  0.25000  Biso   1.000  O
  O98      1.0000 0.88036  0.11964  0.75000  Biso   1.000  O
  O99      1.0000 0.75000  0.75000  0.11964  Biso   1.000  O
  O100     1.0000 0.25000  0.25000  0.38036  Biso   1.000  O
  O101     1.0000 0.61964  0.25000  0.75000  Biso   1.000  O
  O102     1.0000 0.88036  0.75000  0.25000  Biso   1.000  O
  O103     1.0000 0.75000  0.11964  0.38036  Biso   1.000  O
  O104     1.0000 0.25000  0.38036  0.11964  Biso   1.000  O
  O105     1.0000 0.61964  0.75000  0.38036  Biso   1.000  O
  O106     1.0000 0.88036  0.25000  0.11964  Biso   1.000  O
  O107     1.0000 0.75000  0.38036  0.75000  Biso   1.000  O
  O108     1.0000 0.25000  0.11964  0.25000  Biso   1.000  O
  O109     1.0000 0.38036  0.61964  0.75000  Biso   1.000  O
  O110     1.0000 0.11964  0.88036  0.25000  Biso   1.000  O
  O111     1.0000 0.25000  0.25000  0.88036  Biso   1.000  O
  O112     1.0000 0.75000  0.75000  0.61964  Biso   1.000  O
  O113     1.0000 0.38036  0.75000  0.25000  Biso   1.000  O
  O114     1.0000 0.11964  0.25000  0.75000  Biso   1.000  O
  O115     1.0000 0.25000  0.88036  0.61964  Biso   1.000  O
  O116     1.0000 0.75000  0.61964  0.88036  Biso   1.000  O
  O117     1.0000 0.38036  0.25000  0.61964  Biso   1.000  O
  O118     1.0000 0.11964  0.75000  0.88036  Biso   1.000  O
  O119     1.0000 0.25000  0.61964  0.25000  Biso   1.000  O
  O120     1.0000 0.75000  0.88036  0.75000  Biso   1.000  O
