data_image0
_cell_length_a       18.8846
_cell_length_b       18.8846
_cell_length_c       18.8846
_cell_angle_alpha    60
_cell_angle_beta     60
_cell_angle_gamma    60

_symmetry_space_group_name_H-M    P 1
_symmetry_int_tables_number       1

loop_
  _symmetry_equiv_pos_as_xyz
  'x, y, z'

loop_
  _atom_site_label
  _atom_site_occupancy
  _atom_site_fract_x
  _atom_site_fract_y
  _atom_site_fract_z
  _atom_site_thermal_displace_type
  _atom_site_B_iso_or_equiv
  _atom_site_type_symbol
  Eu1      1.0000 0.75000  0.25000  0.25000  Biso   1.000  Eu
  Eu2      1.0000 0.75000  0.25000  0.75000  Biso   1.000  Eu
  Eu3      1.0000 0.75000  0.75000  0.25000  Biso   1.000  Eu
  Eu4      1.0000 0.25000  0.25000  0.25000  Biso   1.000  Eu
  Eu5      1.0000 0.25000  0.75000  0.75000  Biso   1.000  Eu
  Eu6      1.0000 0.25000  0.75000  0.25000  Biso   1.000  Eu
  Eu7      1.0000 0.25000  0.25000  0.75000  Biso   1.000  Eu
  Eu8      1.0000 0.75000  0.75000  0.75000  Biso   1.000  Eu
  Ca1      1.0000 0.50000  0.50000  0.50000  Biso   1.000  Ca
  Ca2      1.0000 0.00000  0.00000  0.50000  Biso   1.000  Ca
  Ca3      1.0000 0.00000  0.50000  0.00000  Biso   1.000  Ca
  Ca4      1.0000 0.00000  0.50000  0.50000  Biso   1.000  Ca
  Ca5      1.0000 0.50000  0.50000  0.00000  Biso   1.000  Ca
  Ca6      1.0000 0.00000  0.00000  0.00000  Biso   1.000  Ca
  Ca7      1.0000 0.50000  0.00000  0.50000  Biso   1.000  Ca
  Ca8      1.0000 0.50000  0.00000  0.00000  Biso   1.000  Ca
  H1       1.0000 0.51620  0.41580  0.34480  Biso   1.000  H
  H2       1.0000 0.57450  0.47450  0.29470  Biso   1.000  H
  H3       1.0000 0.91580  0.01620  0.72320  Biso   1.000  H
  H4       1.0000 0.97450  0.07450  0.65630  Biso   1.000  H
  H5       1.0000 0.84480  0.72320  0.01620  Biso   1.000  H
  H6       1.0000 0.79470  0.65630  0.07450  Biso   1.000  H
  H7       1.0000 0.22320  0.34480  0.41580  Biso   1.000  H
  H8       1.0000 0.15630  0.29470  0.47450  Biso   1.000  H
  H9       1.0000 0.51620  0.34480  0.72320  Biso   1.000  H
  H10      1.0000 0.57450  0.29470  0.65630  Biso   1.000  H
  H11      1.0000 0.91580  0.72320  0.34480  Biso   1.000  H
  H12      1.0000 0.97450  0.65630  0.29470  Biso   1.000  H
  H13      1.0000 0.84480  0.01620  0.41580  Biso   1.000  H
  H14      1.0000 0.79470  0.07450  0.47450  Biso   1.000  H
  H15      1.0000 0.22320  0.41580  0.01620  Biso   1.000  H
  H16      1.0000 0.15630  0.47450  0.07450  Biso   1.000  H
  H17      1.0000 0.51620  0.72320  0.41580  Biso   1.000  H
  H18      1.0000 0.57450  0.65630  0.47450  Biso   1.000  H
  H19      1.0000 0.91580  0.34480  0.01620  Biso   1.000  H
  H20      1.0000 0.97450  0.29470  0.07450  Biso   1.000  H
  H21      1.0000 0.84480  0.41580  0.72320  Biso   1.000  H
  H22      1.0000 0.79470  0.47450  0.65630  Biso   1.000  H
  H23      1.0000 0.22320  0.01620  0.34480  Biso   1.000  H
  H24      1.0000 0.15630  0.07450  0.29470  Biso   1.000  H
  H25      1.0000 0.58420  0.48380  0.15520  Biso   1.000  H
  H26      1.0000 0.52550  0.42550  0.20530  Biso   1.000  H
  H27      1.0000 0.98380  0.08420  0.77680  Biso   1.000  H
  H28      1.0000 0.92550  0.02550  0.84370  Biso   1.000  H
  H29      1.0000 0.27680  0.15520  0.48380  Biso   1.000  H
  H30      1.0000 0.34370  0.20530  0.42550  Biso   1.000  H
  H31      1.0000 0.65520  0.77680  0.08420  Biso   1.000  H
  H32      1.0000 0.70530  0.84370  0.02550  Biso   1.000  H
  H33      1.0000 0.65520  0.48380  0.77680  Biso   1.000  H
  H34      1.0000 0.70530  0.42550  0.84370  Biso   1.000  H
  H35      1.0000 0.27680  0.08420  0.15520  Biso   1.000  H
  H36      1.0000 0.34370  0.02550  0.20530  Biso   1.000  H
  H37      1.0000 0.98380  0.15520  0.08420  Biso   1.000  H
  H38      1.0000 0.92550  0.20530  0.02550  Biso   1.000  H
  H39      1.0000 0.58420  0.77680  0.48380  Biso   1.000  H
  H40      1.0000 0.52550  0.84370  0.42550  Biso   1.000  H
  H41      1.0000 0.27680  0.48380  0.08420  Biso   1.000  H
  H42      1.0000 0.34370  0.42550  0.02550  Biso   1.000  H
  H43      1.0000 0.65520  0.08420  0.48380  Biso   1.000  H
  H44      1.0000 0.70530  0.02550  0.42550  Biso   1.000  H
  H45      1.0000 0.58420  0.15520  0.77680  Biso   1.000  H
  H46      1.0000 0.52550  0.20530  0.84370  Biso   1.000  H
  H47      1.0000 0.98380  0.77680  0.15520  Biso   1.000  H
  H48      1.0000 0.92550  0.84370  0.20530  Biso   1.000  H
  H49      1.0000 0.48380  0.58420  0.65520  Biso   1.000  H
  H50      1.0000 0.42550  0.52550  0.70530  Biso   1.000  H
  H51      1.0000 0.08420  0.98380  0.27680  Biso   1.000  H
  H52      1.0000 0.02550  0.92550  0.34370  Biso   1.000  H
  H53      1.0000 0.15520  0.27680  0.98380  Biso   1.000  H
  H54      1.0000 0.20530  0.34370  0.92550  Biso   1.000  H
  H55      1.0000 0.77680  0.65520  0.58420  Biso   1.000  H
  H56      1.0000 0.84370  0.70530  0.52550  Biso   1.000  H
  H57      1.0000 0.48380  0.65520  0.27680  Biso   1.000  H
  H58      1.0000 0.42550  0.70530  0.34370  Biso   1.000  H
  H59      1.0000 0.08420  0.27680  0.65520  Biso   1.000  H
  H60      1.0000 0.02550  0.34370  0.70530  Biso   1.000  H
  H61      1.0000 0.15520  0.98380  0.58420  Biso   1.000  H
  H62      1.0000 0.20530  0.92550  0.52550  Biso   1.000  H
  H63      1.0000 0.77680  0.58420  0.98380  Biso   1.000  H
  H64      1.0000 0.84370  0.52550  0.92550  Biso   1.000  H
  H65      1.0000 0.48380  0.27680  0.58420  Biso   1.000  H
  H66      1.0000 0.42550  0.34370  0.52550  Biso   1.000  H
  H67      1.0000 0.08420  0.65520  0.98380  Biso   1.000  H
  H68      1.0000 0.02550  0.70530  0.92550  Biso   1.000  H
  H69      1.0000 0.15520  0.58420  0.27680  Biso   1.000  H
  H70      1.0000 0.20530  0.52550  0.34370  Biso   1.000  H
  H71      1.0000 0.77680  0.98380  0.65520  Biso   1.000  H
  H72      1.0000 0.84370  0.92550  0.70530  Biso   1.000  H
  H73      1.0000 0.41580  0.51620  0.84480  Biso   1.000  H
  H74      1.0000 0.47450  0.57450  0.79470  Biso   1.000  H
  H75      1.0000 0.01620  0.91580  0.22320  Biso   1.000  H
  H76      1.0000 0.07450  0.97450  0.15630  Biso   1.000  H
  H77      1.0000 0.72320  0.84480  0.51620  Biso   1.000  H
  H78      1.0000 0.65630  0.79470  0.57450  Biso   1.000  H
  H79      1.0000 0.34480  0.22320  0.91580  Biso   1.000  H
  H80      1.0000 0.29470  0.15630  0.97450  Biso   1.000  H
  H81      1.0000 0.34480  0.51620  0.22320  Biso   1.000  H
  H82      1.0000 0.29470  0.57450  0.15630  Biso   1.000  H
  H83      1.0000 0.72320  0.91580  0.84480  Biso   1.000  H
  H84      1.0000 0.65630  0.97450  0.79470  Biso   1.000  H
  H85      1.0000 0.01620  0.84480  0.91580  Biso   1.000  H
  H86      1.0000 0.07450  0.79470  0.97450  Biso   1.000  H
  H87      1.0000 0.41580  0.22320  0.51620  Biso   1.000  H
  H88      1.0000 0.47450  0.15630  0.57450  Biso   1.000  H
  H89      1.0000 0.72320  0.51620  0.91580  Biso   1.000  H
  H90      1.0000 0.65630  0.57450  0.97450  Biso   1.000  H
  H91      1.0000 0.34480  0.91580  0.51620  Biso   1.000  H
  H92      1.0000 0.29470  0.97450  0.57450  Biso   1.000  H
  H93      1.0000 0.41580  0.84480  0.22320  Biso   1.000  H
  H94      1.0000 0.47450  0.79470  0.15630  Biso   1.000  H
  H95      1.0000 0.01620  0.22320  0.84480  Biso   1.000  H
  H96      1.0000 0.07450  0.15630  0.79470  Biso   1.000  H
  C1       1.0000 0.57560  0.41520  0.31800  Biso   1.000  C
  C2       1.0000 0.61960  0.36240  0.38360  Biso   1.000  C
  C3       1.0000 0.91520  0.07560  0.69120  Biso   1.000  C
  C4       1.0000 0.86240  0.11960  0.63440  Biso   1.000  C
  C5       1.0000 0.81800  0.69120  0.07560  Biso   1.000  C
  C6       1.0000 0.88360  0.63440  0.11960  Biso   1.000  C
  C7       1.0000 0.19120  0.31800  0.41520  Biso   1.000  C
  C8       1.0000 0.13440  0.38360  0.36240  Biso   1.000  C
  C9       1.0000 0.57560  0.31800  0.69120  Biso   1.000  C
  C10      1.0000 0.61960  0.38360  0.63440  Biso   1.000  C
  C11      1.0000 0.91520  0.69120  0.31800  Biso   1.000  C
  C12      1.0000 0.86240  0.63440  0.38360  Biso   1.000  C
  C13      1.0000 0.81800  0.07560  0.41520  Biso   1.000  C
  C14      1.0000 0.88360  0.11960  0.36240  Biso   1.000  C
  C15      1.0000 0.19120  0.41520  0.07560  Biso   1.000  C
  C16      1.0000 0.13440  0.36240  0.11960  Biso   1.000  C
  C17      1.0000 0.57560  0.69120  0.41520  Biso   1.000  C
  C18      1.0000 0.61960  0.63440  0.36240  Biso   1.000  C
  C19      1.0000 0.91520  0.31800  0.07560  Biso   1.000  C
  C20      1.0000 0.86240  0.38360  0.11960  Biso   1.000  C
  C21      1.0000 0.81800  0.41520  0.69120  Biso   1.000  C
  C22      1.0000 0.88360  0.36240  0.63440  Biso   1.000  C
  C23      1.0000 0.19120  0.07560  0.31800  Biso   1.000  C
  C24      1.0000 0.13440  0.11960  0.38360  Biso   1.000  C
  C25      1.0000 0.58480  0.42440  0.18200  Biso   1.000  C
  C26      1.0000 0.63760  0.38040  0.11640  Biso   1.000  C
  C27      1.0000 0.92440  0.08480  0.80880  Biso   1.000  C
  C28      1.0000 0.88040  0.13760  0.86560  Biso   1.000  C
  C29      1.0000 0.30880  0.18200  0.42440  Biso   1.000  C
  C30      1.0000 0.36560  0.11640  0.38040  Biso   1.000  C
  C31      1.0000 0.68200  0.80880  0.08480  Biso   1.000  C
  C32      1.0000 0.61640  0.86560  0.13760  Biso   1.000  C
  C33      1.0000 0.68200  0.42440  0.80880  Biso   1.000  C
  C34      1.0000 0.61640  0.38040  0.86560  Biso   1.000  C
  C35      1.0000 0.30880  0.08480  0.18200  Biso   1.000  C
  C36      1.0000 0.36560  0.13760  0.11640  Biso   1.000  C
  C37      1.0000 0.92440  0.18200  0.08480  Biso   1.000  C
  C38      1.0000 0.88040  0.11640  0.13760  Biso   1.000  C
  C39      1.0000 0.58480  0.80880  0.42440  Biso   1.000  C
  C40      1.0000 0.63760  0.86560  0.38040  Biso   1.000  C
  C41      1.0000 0.30880  0.42440  0.08480  Biso   1.000  C
  C42      1.0000 0.36560  0.38040  0.13760  Biso   1.000  C
  C43      1.0000 0.68200  0.08480  0.42440  Biso   1.000  C
  C44      1.0000 0.61640  0.13760  0.38040  Biso   1.000  C
  C45      1.0000 0.58480  0.18200  0.80880  Biso   1.000  C
  C46      1.0000 0.63760  0.11640  0.86560  Biso   1.000  C
  C47      1.0000 0.92440  0.80880  0.18200  Biso   1.000  C
  C48      1.0000 0.88040  0.86560  0.11640  Biso   1.000  C
  C49      1.0000 0.42440  0.58480  0.68200  Biso   1.000  C
  C50      1.0000 0.38040  0.63760  0.61640  Biso   1.000  C
  C51      1.0000 0.08480  0.92440  0.30880  Biso   1.000  C
  C52      1.0000 0.13760  0.88040  0.36560  Biso   1.000  C
  C53      1.0000 0.18200  0.30880  0.92440  Biso   1.000  C
  C54      1.0000 0.11640  0.36560  0.88040  Biso   1.000  C
  C55      1.0000 0.80880  0.68200  0.58480  Biso   1.000  C
  C56      1.0000 0.86560  0.61640  0.63760  Biso   1.000  C
  C57      1.0000 0.42440  0.68200  0.30880  Biso   1.000  C
  C58      1.0000 0.38040  0.61640  0.36560  Biso   1.000  C
  C59      1.0000 0.08480  0.30880  0.68200  Biso   1.000  C
  C60      1.0000 0.13760  0.36560  0.61640  Biso   1.000  C
  C61      1.0000 0.18200  0.92440  0.58480  Biso   1.000  C
  C62      1.0000 0.11640  0.88040  0.63760  Biso   1.000  C
  C63      1.0000 0.80880  0.58480  0.92440  Biso   1.000  C
  C64      1.0000 0.86560  0.63760  0.88040  Biso   1.000  C
  C65      1.0000 0.42440  0.30880  0.58480  Biso   1.000  C
  C66      1.0000 0.38040  0.36560  0.63760  Biso   1.000  C
  C67      1.0000 0.08480  0.68200  0.92440  Biso   1.000  C
  C68      1.0000 0.13760  0.61640  0.88040  Biso   1.000  C
  C69      1.0000 0.18200  0.58480  0.30880  Biso   1.000  C
  C70      1.0000 0.11640  0.63760  0.36560  Biso   1.000  C
  C71      1.0000 0.80880  0.92440  0.68200  Biso   1.000  C
  C72      1.0000 0.86560  0.88040  0.61640  Biso   1.000  C
  C73      1.0000 0.41520  0.57560  0.81800  Biso   1.000  C
  C74      1.0000 0.36240  0.61960  0.88360  Biso   1.000  C
  C75      1.0000 0.07560  0.91520  0.19120  Biso   1.000  C
  C76      1.0000 0.11960  0.86240  0.13440  Biso   1.000  C
  C77      1.0000 0.69120  0.81800  0.57560  Biso   1.000  C
  C78      1.0000 0.63440  0.88360  0.61960  Biso   1.000  C
  C79      1.0000 0.31800  0.19120  0.91520  Biso   1.000  C
  C80      1.0000 0.38360  0.13440  0.86240  Biso   1.000  C
  C81      1.0000 0.31800  0.57560  0.19120  Biso   1.000  C
  C82      1.0000 0.38360  0.61960  0.13440  Biso   1.000  C
  C83      1.0000 0.69120  0.91520  0.81800  Biso   1.000  C
  C84      1.0000 0.63440  0.86240  0.88360  Biso   1.000  C
  C85      1.0000 0.07560  0.81800  0.91520  Biso   1.000  C
  C86      1.0000 0.11960  0.88360  0.86240  Biso   1.000  C
  C87      1.0000 0.41520  0.19120  0.57560  Biso   1.000  C
  C88      1.0000 0.36240  0.13440  0.61960  Biso   1.000  C
  C89      1.0000 0.69120  0.57560  0.91520  Biso   1.000  C
  C90      1.0000 0.63440  0.61960  0.86240  Biso   1.000  C
  C91      1.0000 0.31800  0.91520  0.57560  Biso   1.000  C
  C92      1.0000 0.38360  0.86240  0.61960  Biso   1.000  C
  C93      1.0000 0.41520  0.81800  0.19120  Biso   1.000  C
  C94      1.0000 0.36240  0.88360  0.13440  Biso   1.000  C
  C95      1.0000 0.07560  0.19120  0.81800  Biso   1.000  C
  C96      1.0000 0.11960  0.13440  0.88360  Biso   1.000  C
  O1       1.0000 0.68589  0.29773  0.37209  Biso   1.000  O
  O2       1.0000 0.58862  0.38384  0.44890  Biso   1.000  O
  O3       1.0000 0.79773  0.18589  0.64429  Biso   1.000  O
  O4       1.0000 0.88384  0.08862  0.57864  Biso   1.000  O
  O5       1.0000 0.87209  0.64429  0.18589  Biso   1.000  O
  O6       1.0000 0.94890  0.57864  0.08862  Biso   1.000  O
  O7       1.0000 0.14429  0.37209  0.29773  Biso   1.000  O
  O8       1.0000 0.07864  0.44890  0.38384  Biso   1.000  O
  O9       1.0000 0.68589  0.37209  0.64429  Biso   1.000  O
  O10      1.0000 0.58862  0.44890  0.57864  Biso   1.000  O
  O11      1.0000 0.79773  0.64429  0.37209  Biso   1.000  O
  O12      1.0000 0.88384  0.57864  0.44890  Biso   1.000  O
  O13      1.0000 0.87209  0.18589  0.29773  Biso   1.000  O
  O14      1.0000 0.94890  0.08862  0.38384  Biso   1.000  O
  O15      1.0000 0.14429  0.29773  0.18589  Biso   1.000  O
  O16      1.0000 0.07864  0.38384  0.08862  Biso   1.000  O
  O17      1.0000 0.68589  0.64429  0.29773  Biso   1.000  O
  O18      1.0000 0.58862  0.57864  0.38384  Biso   1.000  O
  O19      1.0000 0.79773  0.37209  0.18589  Biso   1.000  O
  O20      1.0000 0.88384  0.44890  0.08862  Biso   1.000  O
  O21      1.0000 0.87209  0.29773  0.64429  Biso   1.000  O
  O22      1.0000 0.94890  0.38384  0.57864  Biso   1.000  O
  O23      1.0000 0.14429  0.18589  0.37209  Biso   1.000  O
  O24      1.0000 0.07864  0.08862  0.44890  Biso   1.000  O
  O25      1.0000 0.70227  0.31411  0.12791  Biso   1.000  O
  O26      1.0000 0.61616  0.41138  0.05110  Biso   1.000  O
  O27      1.0000 0.81411  0.20227  0.85571  Biso   1.000  O
  O28      1.0000 0.91138  0.11616  0.92136  Biso   1.000  O
  O29      1.0000 0.35571  0.12791  0.31411  Biso   1.000  O
  O30      1.0000 0.42136  0.05110  0.41138  Biso   1.000  O
  O31      1.0000 0.62791  0.85571  0.20227  Biso   1.000  O
  O32      1.0000 0.55110  0.92136  0.11616  Biso   1.000  O
  O33      1.0000 0.62791  0.31411  0.85571  Biso   1.000  O
  O34      1.0000 0.55110  0.41138  0.92136  Biso   1.000  O
  O35      1.0000 0.35571  0.20227  0.12791  Biso   1.000  O
  O36      1.0000 0.42136  0.11616  0.05110  Biso   1.000  O
  O37      1.0000 0.81411  0.12791  0.20227  Biso   1.000  O
  O38      1.0000 0.91138  0.05110  0.11616  Biso   1.000  O
  O39      1.0000 0.70227  0.85571  0.31411  Biso   1.000  O
  O40      1.0000 0.61616  0.92136  0.41138  Biso   1.000  O
  O41      1.0000 0.35571  0.31411  0.20227  Biso   1.000  O
  O42      1.0000 0.42136  0.41138  0.11616  Biso   1.000  O
  O43      1.0000 0.62791  0.20227  0.31411  Biso   1.000  O
  O44      1.0000 0.55110  0.11616  0.41138  Biso   1.000  O
  O45      1.0000 0.70227  0.12791  0.85571  Biso   1.000  O
  O46      1.0000 0.61616  0.05110  0.92136  Biso   1.000  O
  O47      1.0000 0.81411  0.85571  0.12791  Biso   1.000  O
  O48      1.0000 0.91138  0.92136  0.05110  Biso   1.000  O
  O49      1.0000 0.31411  0.70227  0.62791  Biso   1.000  O
  O50      1.0000 0.41138  0.61616  0.55110  Biso   1.000  O
  O51      1.0000 0.20227  0.81411  0.35571  Biso   1.000  O
  O52      1.0000 0.11616  0.91138  0.42136  Biso   1.000  O
  O53      1.0000 0.12791  0.35571  0.81411  Biso   1.000  O
  O54      1.0000 0.05110  0.42136  0.91138  Biso   1.000  O
  O55      1.0000 0.85571  0.62791  0.70227  Biso   1.000  O
  O56      1.0000 0.92136  0.55110  0.61616  Biso   1.000  O
  O57      1.0000 0.31411  0.62791  0.35571  Biso   1.000  O
  O58      1.0000 0.41138  0.55110  0.42136  Biso   1.000  O
  O59      1.0000 0.20227  0.35571  0.62791  Biso   1.000  O
  O60      1.0000 0.11616  0.42136  0.55110  Biso   1.000  O
  O61      1.0000 0.12791  0.81411  0.70227  Biso   1.000  O
  O62      1.0000 0.05110  0.91138  0.61616  Biso   1.000  O
  O63      1.0000 0.85571  0.70227  0.81411  Biso   1.000  O
  O64      1.0000 0.92136  0.61616  0.91138  Biso   1.000  O
  O65      1.0000 0.31411  0.35571  0.70227  Biso   1.000  O
  O66      1.0000 0.41138  0.42136  0.61616  Biso   1.000  O
  O67      1.0000 0.20227  0.62791  0.81411  Biso   1.000  O
  O68      1.0000 0.11616  0.55110  0.91138  Biso   1.000  O
  O69      1.0000 0.12791  0.70227  0.35571  Biso   1.000  O
  O70      1.0000 0.05110  0.61616  0.42136  Biso   1.000  O
  O71      1.0000 0.85571  0.81411  0.62791  Biso   1.000  O
  O72      1.0000 0.92136  0.91138  0.55110  Biso   1.000  O
  O73      1.0000 0.29773  0.68589  0.87209  Biso   1.000  O
  O74      1.0000 0.38384  0.58862  0.94890  Biso   1.000  O
  O75      1.0000 0.18589  0.79773  0.14429  Biso   1.000  O
  O76      1.0000 0.08862  0.88384  0.07864  Biso   1.000  O
  O77      1.0000 0.64429  0.87209  0.68589  Biso   1.000  O
  O78      1.0000 0.57864  0.94890  0.58862  Biso   1.000  O
  O79      1.0000 0.37209  0.14429  0.79773  Biso   1.000  O
  O80      1.0000 0.44890  0.07864  0.88384  Biso   1.000  O
  O81      1.0000 0.37209  0.68589  0.14429  Biso   1.000  O
  O82      1.0000 0.44890  0.58862  0.07864  Biso   1.000  O
  O83      1.0000 0.64429  0.79773  0.87209  Biso   1.000  O
  O84      1.0000 0.57864  0.88384  0.94890  Biso   1.000  O
  O85      1.0000 0.18589  0.87209  0.79773  Biso   1.000  O
  O86      1.0000 0.08862  0.94890  0.88384  Biso   1.000  O
  O87      1.0000 0.29773  0.14429  0.68589  Biso   1.000  O
  O88      1.0000 0.38384  0.07864  0.58862  Biso   1.000  O
  O89      1.0000 0.64429  0.68589  0.79773  Biso   1.000  O
  O90      1.0000 0.57864  0.58862  0.88384  Biso   1.000  O
  O91      1.0000 0.37209  0.79773  0.68589  Biso   1.000  O
  O92      1.0000 0.44890  0.88384  0.58862  Biso   1.000  O
  O93      1.0000 0.29773  0.87209  0.14429  Biso   1.000  O
  O94      1.0000 0.38384  0.94890  0.07864  Biso   1.000  O
  O95      1.0000 0.18589  0.14429  0.87209  Biso   1.000  O
  O96      1.0000 0.08862  0.07864  0.94890  Biso   1.000  O
  O97      1.0000 0.61926  0.38074  0.25000  Biso   1.000  O
  O98      1.0000 0.88074  0.11926  0.75000  Biso   1.000  O
  O99      1.0000 0.75000  0.75000  0.11926  Biso   1.000  O
  O100     1.0000 0.25000  0.25000  0.38074  Biso   1.000  O
  O101     1.0000 0.61926  0.25000  0.75000  Biso   1.000  O
  O102     1.0000 0.88074  0.75000  0.25000  Biso   1.000  O
  O103     1.0000 0.75000  0.11926  0.38074  Biso   1.000  O
  O104     1.0000 0.25000  0.38074  0.11926  Biso   1.000  O
  O105     1.0000 0.61926  0.75000  0.38074  Biso   1.000  O
  O106     1.0000 0.88074  0.25000  0.11926  Biso   1.000  O
  O107     1.0000 0.75000  0.38074  0.75000  Biso   1.000  O
  O108     1.0000 0.25000  0.11926  0.25000  Biso   1.000  O
  O109     1.0000 0.38074  0.61926  0.75000  Biso   1.000  O
  O110     1.0000 0.11926  0.88074  0.25000  Biso   1.000  O
  O111     1.0000 0.25000  0.25000  0.88074  Biso   1.000  O
  O112     1.0000 0.75000  0.75000  0.61926  Biso   1.000  O
  O113     1.0000 0.38074  0.75000  0.25000  Biso   1.000  O
  O114     1.0000 0.11926  0.25000  0.75000  Biso   1.000  O
  O115     1.0000 0.25000  0.88074  0.61926  Biso   1.000  O
  O116     1.0000 0.75000  0.61926  0.88074  Biso   1.000  O
  O117     1.0000 0.38074  0.25000  0.61926  Biso   1.000  O
  O118     1.0000 0.11926  0.75000  0.88074  Biso   1.000  O
  O119     1.0000 0.25000  0.61926  0.25000  Biso   1.000  O
  O120     1.0000 0.75000  0.88074  0.75000  Biso   1.000  O
