data_image0
_cell_length_a       18.7316
_cell_length_b       18.7316
_cell_length_c       18.7316
_cell_angle_alpha    60
_cell_angle_beta     60
_cell_angle_gamma    60

_symmetry_space_group_name_H-M    P 1
_symmetry_int_tables_number       1

loop_
  _symmetry_equiv_pos_as_xyz
  'x, y, z'

loop_
  _atom_site_label
  _atom_site_occupancy
  _atom_site_fract_x
  _atom_site_fract_y
  _atom_site_fract_z
  _atom_site_thermal_displace_type
  _atom_site_B_iso_or_equiv
  _atom_site_type_symbol
  Ca1      1.0000 0.50000  0.50000  0.50000  Biso   1.000  Ca
  Ca2      1.0000 0.00000  0.00000  0.50000  Biso   1.000  Ca
  Ca3      1.0000 0.00000  0.50000  0.00000  Biso   1.000  Ca
  Ca4      1.0000 0.00000  0.50000  0.50000  Biso   1.000  Ca
  Ca5      1.0000 0.50000  0.50000  0.00000  Biso   1.000  Ca
  Ca6      1.0000 0.00000  0.00000  0.00000  Biso   1.000  Ca
  Ca7      1.0000 0.50000  0.00000  0.50000  Biso   1.000  Ca
  Ca8      1.0000 0.50000  0.00000  0.00000  Biso   1.000  Ca
  Ho1      1.0000 0.75000  0.25000  0.25000  Biso   1.000  Ho
  Ho2      1.0000 0.75000  0.25000  0.75000  Biso   1.000  Ho
  Ho3      1.0000 0.75000  0.75000  0.25000  Biso   1.000  Ho
  Ho4      1.0000 0.25000  0.25000  0.25000  Biso   1.000  Ho
  Ho5      1.0000 0.25000  0.75000  0.75000  Biso   1.000  Ho
  Ho6      1.0000 0.25000  0.75000  0.25000  Biso   1.000  Ho
  Ho7      1.0000 0.25000  0.25000  0.75000  Biso   1.000  Ho
  Ho8      1.0000 0.75000  0.75000  0.75000  Biso   1.000  Ho
  H1       1.0000 0.51570  0.41650  0.34430  Biso   1.000  H
  H2       1.0000 0.57570  0.47430  0.29470  Biso   1.000  H
  H3       1.0000 0.91650  0.01570  0.72350  Biso   1.000  H
  H4       1.0000 0.97430  0.07570  0.65530  Biso   1.000  H
  H5       1.0000 0.84430  0.72350  0.01570  Biso   1.000  H
  H6       1.0000 0.79470  0.65530  0.07570  Biso   1.000  H
  H7       1.0000 0.22350  0.34430  0.41650  Biso   1.000  H
  H8       1.0000 0.15530  0.29470  0.47430  Biso   1.000  H
  H9       1.0000 0.51570  0.34430  0.72350  Biso   1.000  H
  H10      1.0000 0.57570  0.29470  0.65530  Biso   1.000  H
  H11      1.0000 0.91650  0.72350  0.34430  Biso   1.000  H
  H12      1.0000 0.97430  0.65530  0.29470  Biso   1.000  H
  H13      1.0000 0.84430  0.01570  0.41650  Biso   1.000  H
  H14      1.0000 0.79470  0.07570  0.47430  Biso   1.000  H
  H15      1.0000 0.22350  0.41650  0.01570  Biso   1.000  H
  H16      1.0000 0.15530  0.47430  0.07570  Biso   1.000  H
  H17      1.0000 0.51570  0.72350  0.41650  Biso   1.000  H
  H18      1.0000 0.57570  0.65530  0.47430  Biso   1.000  H
  H19      1.0000 0.91650  0.34430  0.01570  Biso   1.000  H
  H20      1.0000 0.97430  0.29470  0.07570  Biso   1.000  H
  H21      1.0000 0.84430  0.41650  0.72350  Biso   1.000  H
  H22      1.0000 0.79470  0.47430  0.65530  Biso   1.000  H
  H23      1.0000 0.22350  0.01570  0.34430  Biso   1.000  H
  H24      1.0000 0.15530  0.07570  0.29470  Biso   1.000  H
  H25      1.0000 0.58350  0.48430  0.15570  Biso   1.000  H
  H26      1.0000 0.52570  0.42430  0.20530  Biso   1.000  H
  H27      1.0000 0.98430  0.08350  0.77650  Biso   1.000  H
  H28      1.0000 0.92430  0.02570  0.84470  Biso   1.000  H
  H29      1.0000 0.27650  0.15570  0.48430  Biso   1.000  H
  H30      1.0000 0.34470  0.20530  0.42430  Biso   1.000  H
  H31      1.0000 0.65570  0.77650  0.08350  Biso   1.000  H
  H32      1.0000 0.70530  0.84470  0.02570  Biso   1.000  H
  H33      1.0000 0.65570  0.48430  0.77650  Biso   1.000  H
  H34      1.0000 0.70530  0.42430  0.84470  Biso   1.000  H
  H35      1.0000 0.27650  0.08350  0.15570  Biso   1.000  H
  H36      1.0000 0.34470  0.02570  0.20530  Biso   1.000  H
  H37      1.0000 0.98430  0.15570  0.08350  Biso   1.000  H
  H38      1.0000 0.92430  0.20530  0.02570  Biso   1.000  H
  H39      1.0000 0.58350  0.77650  0.48430  Biso   1.000  H
  H40      1.0000 0.52570  0.84470  0.42430  Biso   1.000  H
  H41      1.0000 0.27650  0.48430  0.08350  Biso   1.000  H
  H42      1.0000 0.34470  0.42430  0.02570  Biso   1.000  H
  H43      1.0000 0.65570  0.08350  0.48430  Biso   1.000  H
  H44      1.0000 0.70530  0.02570  0.42430  Biso   1.000  H
  H45      1.0000 0.58350  0.15570  0.77650  Biso   1.000  H
  H46      1.0000 0.52570  0.20530  0.84470  Biso   1.000  H
  H47      1.0000 0.98430  0.77650  0.15570  Biso   1.000  H
  H48      1.0000 0.92430  0.84470  0.20530  Biso   1.000  H
  H49      1.0000 0.48430  0.58350  0.65570  Biso   1.000  H
  H50      1.0000 0.42430  0.52570  0.70530  Biso   1.000  H
  H51      1.0000 0.08350  0.98430  0.27650  Biso   1.000  H
  H52      1.0000 0.02570  0.92430  0.34470  Biso   1.000  H
  H53      1.0000 0.15570  0.27650  0.98430  Biso   1.000  H
  H54      1.0000 0.20530  0.34470  0.92430  Biso   1.000  H
  H55      1.0000 0.77650  0.65570  0.58350  Biso   1.000  H
  H56      1.0000 0.84470  0.70530  0.52570  Biso   1.000  H
  H57      1.0000 0.48430  0.65570  0.27650  Biso   1.000  H
  H58      1.0000 0.42430  0.70530  0.34470  Biso   1.000  H
  H59      1.0000 0.08350  0.27650  0.65570  Biso   1.000  H
  H60      1.0000 0.02570  0.34470  0.70530  Biso   1.000  H
  H61      1.0000 0.15570  0.98430  0.58350  Biso   1.000  H
  H62      1.0000 0.20530  0.92430  0.52570  Biso   1.000  H
  H63      1.0000 0.77650  0.58350  0.98430  Biso   1.000  H
  H64      1.0000 0.84470  0.52570  0.92430  Biso   1.000  H
  H65      1.0000 0.48430  0.27650  0.58350  Biso   1.000  H
  H66      1.0000 0.42430  0.34470  0.52570  Biso   1.000  H
  H67      1.0000 0.08350  0.65570  0.98430  Biso   1.000  H
  H68      1.0000 0.02570  0.70530  0.92430  Biso   1.000  H
  H69      1.0000 0.15570  0.58350  0.27650  Biso   1.000  H
  H70      1.0000 0.20530  0.52570  0.34470  Biso   1.000  H
  H71      1.0000 0.77650  0.98430  0.65570  Biso   1.000  H
  H72      1.0000 0.84470  0.92430  0.70530  Biso   1.000  H
  H73      1.0000 0.41650  0.51570  0.84430  Biso   1.000  H
  H74      1.0000 0.47430  0.57570  0.79470  Biso   1.000  H
  H75      1.0000 0.01570  0.91650  0.22350  Biso   1.000  H
  H76      1.0000 0.07570  0.97430  0.15530  Biso   1.000  H
  H77      1.0000 0.72350  0.84430  0.51570  Biso   1.000  H
  H78      1.0000 0.65530  0.79470  0.57570  Biso   1.000  H
  H79      1.0000 0.34430  0.22350  0.91650  Biso   1.000  H
  H80      1.0000 0.29470  0.15530  0.97430  Biso   1.000  H
  H81      1.0000 0.34430  0.51570  0.22350  Biso   1.000  H
  H82      1.0000 0.29470  0.57570  0.15530  Biso   1.000  H
  H83      1.0000 0.72350  0.91650  0.84430  Biso   1.000  H
  H84      1.0000 0.65530  0.97430  0.79470  Biso   1.000  H
  H85      1.0000 0.01570  0.84430  0.91650  Biso   1.000  H
  H86      1.0000 0.07570  0.79470  0.97430  Biso   1.000  H
  H87      1.0000 0.41650  0.22350  0.51570  Biso   1.000  H
  H88      1.0000 0.47430  0.15530  0.57570  Biso   1.000  H
  H89      1.0000 0.72350  0.51570  0.91650  Biso   1.000  H
  H90      1.0000 0.65530  0.57570  0.97430  Biso   1.000  H
  H91      1.0000 0.34430  0.91650  0.51570  Biso   1.000  H
  H92      1.0000 0.29470  0.97430  0.57570  Biso   1.000  H
  H93      1.0000 0.41650  0.84430  0.22350  Biso   1.000  H
  H94      1.0000 0.47430  0.79470  0.15530  Biso   1.000  H
  H95      1.0000 0.01570  0.22350  0.84430  Biso   1.000  H
  H96      1.0000 0.07570  0.15530  0.79470  Biso   1.000  H
  C1       1.0000 0.57581  0.41499  0.31787  Biso   1.000  C
  C2       1.0000 0.62062  0.35944  0.38558  Biso   1.000  C
  C3       1.0000 0.91499  0.07581  0.69133  Biso   1.000  C
  C4       1.0000 0.85944  0.12062  0.63436  Biso   1.000  C
  C5       1.0000 0.81787  0.69133  0.07581  Biso   1.000  C
  C6       1.0000 0.88558  0.63436  0.12062  Biso   1.000  C
  C7       1.0000 0.19133  0.31787  0.41499  Biso   1.000  C
  C8       1.0000 0.13436  0.38558  0.35944  Biso   1.000  C
  C9       1.0000 0.57581  0.31787  0.69133  Biso   1.000  C
  C10      1.0000 0.62062  0.38558  0.63436  Biso   1.000  C
  C11      1.0000 0.91499  0.69133  0.31787  Biso   1.000  C
  C12      1.0000 0.85944  0.63436  0.38558  Biso   1.000  C
  C13      1.0000 0.81787  0.07581  0.41499  Biso   1.000  C
  C14      1.0000 0.88558  0.12062  0.35944  Biso   1.000  C
  C15      1.0000 0.19133  0.41499  0.07581  Biso   1.000  C
  C16      1.0000 0.13436  0.35944  0.12062  Biso   1.000  C
  C17      1.0000 0.57581  0.69133  0.41499  Biso   1.000  C
  C18      1.0000 0.62062  0.63436  0.35944  Biso   1.000  C
  C19      1.0000 0.91499  0.31787  0.07581  Biso   1.000  C
  C20      1.0000 0.85944  0.38558  0.12062  Biso   1.000  C
  C21      1.0000 0.81787  0.41499  0.69133  Biso   1.000  C
  C22      1.0000 0.88558  0.35944  0.63436  Biso   1.000  C
  C23      1.0000 0.19133  0.07581  0.31787  Biso   1.000  C
  C24      1.0000 0.13436  0.12062  0.38558  Biso   1.000  C
  C25      1.0000 0.58501  0.42419  0.18213  Biso   1.000  C
  C26      1.0000 0.64056  0.37938  0.11442  Biso   1.000  C
  C27      1.0000 0.92419  0.08501  0.80867  Biso   1.000  C
  C28      1.0000 0.87938  0.14056  0.86564  Biso   1.000  C
  C29      1.0000 0.30867  0.18213  0.42419  Biso   1.000  C
  C30      1.0000 0.36564  0.11442  0.37938  Biso   1.000  C
  C31      1.0000 0.68213  0.80867  0.08501  Biso   1.000  C
  C32      1.0000 0.61442  0.86564  0.14056  Biso   1.000  C
  C33      1.0000 0.68213  0.42419  0.80867  Biso   1.000  C
  C34      1.0000 0.61442  0.37938  0.86564  Biso   1.000  C
  C35      1.0000 0.30867  0.08501  0.18213  Biso   1.000  C
  C36      1.0000 0.36564  0.14056  0.11442  Biso   1.000  C
  C37      1.0000 0.92419  0.18213  0.08501  Biso   1.000  C
  C38      1.0000 0.87938  0.11442  0.14056  Biso   1.000  C
  C39      1.0000 0.58501  0.80867  0.42419  Biso   1.000  C
  C40      1.0000 0.64056  0.86564  0.37938  Biso   1.000  C
  C41      1.0000 0.30867  0.42419  0.08501  Biso   1.000  C
  C42      1.0000 0.36564  0.37938  0.14056  Biso   1.000  C
  C43      1.0000 0.68213  0.08501  0.42419  Biso   1.000  C
  C44      1.0000 0.61442  0.14056  0.37938  Biso   1.000  C
  C45      1.0000 0.58501  0.18213  0.80867  Biso   1.000  C
  C46      1.0000 0.64056  0.11442  0.86564  Biso   1.000  C
  C47      1.0000 0.92419  0.80867  0.18213  Biso   1.000  C
  C48      1.0000 0.87938  0.86564  0.11442  Biso   1.000  C
  C49      1.0000 0.42419  0.58501  0.68213  Biso   1.000  C
  C50      1.0000 0.37938  0.64056  0.61442  Biso   1.000  C
  C51      1.0000 0.08501  0.92419  0.30867  Biso   1.000  C
  C52      1.0000 0.14056  0.87938  0.36564  Biso   1.000  C
  C53      1.0000 0.18213  0.30867  0.92419  Biso   1.000  C
  C54      1.0000 0.11442  0.36564  0.87938  Biso   1.000  C
  C55      1.0000 0.80867  0.68213  0.58501  Biso   1.000  C
  C56      1.0000 0.86564  0.61442  0.64056  Biso   1.000  C
  C57      1.0000 0.42419  0.68213  0.30867  Biso   1.000  C
  C58      1.0000 0.37938  0.61442  0.36564  Biso   1.000  C
  C59      1.0000 0.08501  0.30867  0.68213  Biso   1.000  C
  C60      1.0000 0.14056  0.36564  0.61442  Biso   1.000  C
  C61      1.0000 0.18213  0.92419  0.58501  Biso   1.000  C
  C62      1.0000 0.11442  0.87938  0.64056  Biso   1.000  C
  C63      1.0000 0.80867  0.58501  0.92419  Biso   1.000  C
  C64      1.0000 0.86564  0.64056  0.87938  Biso   1.000  C
  C65      1.0000 0.42419  0.30867  0.58501  Biso   1.000  C
  C66      1.0000 0.37938  0.36564  0.64056  Biso   1.000  C
  C67      1.0000 0.08501  0.68213  0.92419  Biso   1.000  C
  C68      1.0000 0.14056  0.61442  0.87938  Biso   1.000  C
  C69      1.0000 0.18213  0.58501  0.30867  Biso   1.000  C
  C70      1.0000 0.11442  0.64056  0.36564  Biso   1.000  C
  C71      1.0000 0.80867  0.92419  0.68213  Biso   1.000  C
  C72      1.0000 0.86564  0.87938  0.61442  Biso   1.000  C
  C73      1.0000 0.41499  0.57581  0.81787  Biso   1.000  C
  C74      1.0000 0.35944  0.62062  0.88558  Biso   1.000  C
  C75      1.0000 0.07581  0.91499  0.19133  Biso   1.000  C
  C76      1.0000 0.12062  0.85944  0.13436  Biso   1.000  C
  C77      1.0000 0.69133  0.81787  0.57581  Biso   1.000  C
  C78      1.0000 0.63436  0.88558  0.62062  Biso   1.000  C
  C79      1.0000 0.31787  0.19133  0.91499  Biso   1.000  C
  C80      1.0000 0.38558  0.13436  0.85944  Biso   1.000  C
  C81      1.0000 0.31787  0.57581  0.19133  Biso   1.000  C
  C82      1.0000 0.38558  0.62062  0.13436  Biso   1.000  C
  C83      1.0000 0.69133  0.91499  0.81787  Biso   1.000  C
  C84      1.0000 0.63436  0.85944  0.88558  Biso   1.000  C
  C85      1.0000 0.07581  0.81787  0.91499  Biso   1.000  C
  C86      1.0000 0.12062  0.88558  0.85944  Biso   1.000  C
  C87      1.0000 0.41499  0.19133  0.57581  Biso   1.000  C
  C88      1.0000 0.35944  0.13436  0.62062  Biso   1.000  C
  C89      1.0000 0.69133  0.57581  0.91499  Biso   1.000  C
  C90      1.0000 0.63436  0.62062  0.85944  Biso   1.000  C
  C91      1.0000 0.31787  0.91499  0.57581  Biso   1.000  C
  C92      1.0000 0.38558  0.85944  0.62062  Biso   1.000  C
  C93      1.0000 0.41499  0.81787  0.19133  Biso   1.000  C
  C94      1.0000 0.35944  0.88558  0.13436  Biso   1.000  C
  C95      1.0000 0.07581  0.19133  0.81787  Biso   1.000  C
  C96      1.0000 0.12062  0.13436  0.88558  Biso   1.000  C
  O1       1.0000 0.68745  0.29497  0.37199  Biso   1.000  O
  O2       1.0000 0.58941  0.38137  0.45047  Biso   1.000  O
  O3       1.0000 0.79497  0.18745  0.64559  Biso   1.000  O
  O4       1.0000 0.88137  0.08941  0.57875  Biso   1.000  O
  O5       1.0000 0.87199  0.64559  0.18745  Biso   1.000  O
  O6       1.0000 0.95047  0.57875  0.08941  Biso   1.000  O
  O7       1.0000 0.14559  0.37199  0.29497  Biso   1.000  O
  O8       1.0000 0.07875  0.45047  0.38137  Biso   1.000  O
  O9       1.0000 0.68745  0.37199  0.64559  Biso   1.000  O
  O10      1.0000 0.58941  0.45047  0.57875  Biso   1.000  O
  O11      1.0000 0.79497  0.64559  0.37199  Biso   1.000  O
  O12      1.0000 0.88137  0.57875  0.45047  Biso   1.000  O
  O13      1.0000 0.87199  0.18745  0.29497  Biso   1.000  O
  O14      1.0000 0.95047  0.08941  0.38137  Biso   1.000  O
  O15      1.0000 0.14559  0.29497  0.18745  Biso   1.000  O
  O16      1.0000 0.07875  0.38137  0.08941  Biso   1.000  O
  O17      1.0000 0.68745  0.64559  0.29497  Biso   1.000  O
  O18      1.0000 0.58941  0.57875  0.38137  Biso   1.000  O
  O19      1.0000 0.79497  0.37199  0.18745  Biso   1.000  O
  O20      1.0000 0.88137  0.45047  0.08941  Biso   1.000  O
  O21      1.0000 0.87199  0.29497  0.64559  Biso   1.000  O
  O22      1.0000 0.95047  0.38137  0.57875  Biso   1.000  O
  O23      1.0000 0.14559  0.18745  0.37199  Biso   1.000  O
  O24      1.0000 0.07875  0.08941  0.45047  Biso   1.000  O
  O25      1.0000 0.70503  0.31255  0.12801  Biso   1.000  O
  O26      1.0000 0.61863  0.41059  0.04953  Biso   1.000  O
  O27      1.0000 0.81255  0.20503  0.85441  Biso   1.000  O
  O28      1.0000 0.91059  0.11863  0.92125  Biso   1.000  O
  O29      1.0000 0.35441  0.12801  0.31255  Biso   1.000  O
  O30      1.0000 0.42125  0.04953  0.41059  Biso   1.000  O
  O31      1.0000 0.62801  0.85441  0.20503  Biso   1.000  O
  O32      1.0000 0.54953  0.92125  0.11863  Biso   1.000  O
  O33      1.0000 0.62801  0.31255  0.85441  Biso   1.000  O
  O34      1.0000 0.54953  0.41059  0.92125  Biso   1.000  O
  O35      1.0000 0.35441  0.20503  0.12801  Biso   1.000  O
  O36      1.0000 0.42125  0.11863  0.04953  Biso   1.000  O
  O37      1.0000 0.81255  0.12801  0.20503  Biso   1.000  O
  O38      1.0000 0.91059  0.04953  0.11863  Biso   1.000  O
  O39      1.0000 0.70503  0.85441  0.31255  Biso   1.000  O
  O40      1.0000 0.61863  0.92125  0.41059  Biso   1.000  O
  O41      1.0000 0.35441  0.31255  0.20503  Biso   1.000  O
  O42      1.0000 0.42125  0.41059  0.11863  Biso   1.000  O
  O43      1.0000 0.62801  0.20503  0.31255  Biso   1.000  O
  O44      1.0000 0.54953  0.11863  0.41059  Biso   1.000  O
  O45      1.0000 0.70503  0.12801  0.85441  Biso   1.000  O
  O46      1.0000 0.61863  0.04953  0.92125  Biso   1.000  O
  O47      1.0000 0.81255  0.85441  0.12801  Biso   1.000  O
  O48      1.0000 0.91059  0.92125  0.04953  Biso   1.000  O
  O49      1.0000 0.31255  0.70503  0.62801  Biso   1.000  O
  O50      1.0000 0.41059  0.61863  0.54953  Biso   1.000  O
  O51      1.0000 0.20503  0.81255  0.35441  Biso   1.000  O
  O52      1.0000 0.11863  0.91059  0.42125  Biso   1.000  O
  O53      1.0000 0.12801  0.35441  0.81255  Biso   1.000  O
  O54      1.0000 0.04953  0.42125  0.91059  Biso   1.000  O
  O55      1.0000 0.85441  0.62801  0.70503  Biso   1.000  O
  O56      1.0000 0.92125  0.54953  0.61863  Biso   1.000  O
  O57      1.0000 0.31255  0.62801  0.35441  Biso   1.000  O
  O58      1.0000 0.41059  0.54953  0.42125  Biso   1.000  O
  O59      1.0000 0.20503  0.35441  0.62801  Biso   1.000  O
  O60      1.0000 0.11863  0.42125  0.54953  Biso   1.000  O
  O61      1.0000 0.12801  0.81255  0.70503  Biso   1.000  O
  O62      1.0000 0.04953  0.91059  0.61863  Biso   1.000  O
  O63      1.0000 0.85441  0.70503  0.81255  Biso   1.000  O
  O64      1.0000 0.92125  0.61863  0.91059  Biso   1.000  O
  O65      1.0000 0.31255  0.35441  0.70503  Biso   1.000  O
  O66      1.0000 0.41059  0.42125  0.61863  Biso   1.000  O
  O67      1.0000 0.20503  0.62801  0.81255  Biso   1.000  O
  O68      1.0000 0.11863  0.54953  0.91059  Biso   1.000  O
  O69      1.0000 0.12801  0.70503  0.35441  Biso   1.000  O
  O70      1.0000 0.04953  0.61863  0.42125  Biso   1.000  O
  O71      1.0000 0.85441  0.81255  0.62801  Biso   1.000  O
  O72      1.0000 0.92125  0.91059  0.54953  Biso   1.000  O
  O73      1.0000 0.29497  0.68745  0.87199  Biso   1.000  O
  O74      1.0000 0.38137  0.58941  0.95047  Biso   1.000  O
  O75      1.0000 0.18745  0.79497  0.14559  Biso   1.000  O
  O76      1.0000 0.08941  0.88137  0.07875  Biso   1.000  O
  O77      1.0000 0.64559  0.87199  0.68745  Biso   1.000  O
  O78      1.0000 0.57875  0.95047  0.58941  Biso   1.000  O
  O79      1.0000 0.37199  0.14559  0.79497  Biso   1.000  O
  O80      1.0000 0.45047  0.07875  0.88137  Biso   1.000  O
  O81      1.0000 0.37199  0.68745  0.14559  Biso   1.000  O
  O82      1.0000 0.45047  0.58941  0.07875  Biso   1.000  O
  O83      1.0000 0.64559  0.79497  0.87199  Biso   1.000  O
  O84      1.0000 0.57875  0.88137  0.95047  Biso   1.000  O
  O85      1.0000 0.18745  0.87199  0.79497  Biso   1.000  O
  O86      1.0000 0.08941  0.95047  0.88137  Biso   1.000  O
  O87      1.0000 0.29497  0.14559  0.68745  Biso   1.000  O
  O88      1.0000 0.38137  0.07875  0.58941  Biso   1.000  O
  O89      1.0000 0.64559  0.68745  0.79497  Biso   1.000  O
  O90      1.0000 0.57875  0.58941  0.88137  Biso   1.000  O
  O91      1.0000 0.37199  0.79497  0.68745  Biso   1.000  O
  O92      1.0000 0.45047  0.88137  0.58941  Biso   1.000  O
  O93      1.0000 0.29497  0.87199  0.14559  Biso   1.000  O
  O94      1.0000 0.38137  0.95047  0.07875  Biso   1.000  O
  O95      1.0000 0.18745  0.14559  0.87199  Biso   1.000  O
  O96      1.0000 0.08941  0.07875  0.95047  Biso   1.000  O
  O97      1.0000 0.62012  0.37988  0.25000  Biso   1.000  O
  O98      1.0000 0.87988  0.12012  0.75000  Biso   1.000  O
  O99      1.0000 0.75000  0.75000  0.12012  Biso   1.000  O
  O100     1.0000 0.25000  0.25000  0.37988  Biso   1.000  O
  O101     1.0000 0.62012  0.25000  0.75000  Biso   1.000  O
  O102     1.0000 0.87988  0.75000  0.25000  Biso   1.000  O
  O103     1.0000 0.75000  0.12012  0.37988  Biso   1.000  O
  O104     1.0000 0.25000  0.37988  0.12012  Biso   1.000  O
  O105     1.0000 0.62012  0.75000  0.37988  Biso   1.000  O
  O106     1.0000 0.87988  0.25000  0.12012  Biso   1.000  O
  O107     1.0000 0.75000  0.37988  0.75000  Biso   1.000  O
  O108     1.0000 0.25000  0.12012  0.25000  Biso   1.000  O
  O109     1.0000 0.37988  0.62012  0.75000  Biso   1.000  O
  O110     1.0000 0.12012  0.87988  0.25000  Biso   1.000  O
  O111     1.0000 0.25000  0.25000  0.87988  Biso   1.000  O
  O112     1.0000 0.75000  0.75000  0.62012  Biso   1.000  O
  O113     1.0000 0.37988  0.75000  0.25000  Biso   1.000  O
  O114     1.0000 0.12012  0.25000  0.75000  Biso   1.000  O
  O115     1.0000 0.25000  0.87988  0.62012  Biso   1.000  O
  O116     1.0000 0.75000  0.62012  0.87988  Biso   1.000  O
  O117     1.0000 0.37988  0.25000  0.62012  Biso   1.000  O
  O118     1.0000 0.12012  0.75000  0.87988  Biso   1.000  O
  O119     1.0000 0.25000  0.62012  0.25000  Biso   1.000  O
  O120     1.0000 0.75000  0.87988  0.75000  Biso   1.000  O
