data_image0
_cell_length_a       18.7269
_cell_length_b       18.7269
_cell_length_c       18.7269
_cell_angle_alpha    60
_cell_angle_beta     60
_cell_angle_gamma    60

_symmetry_space_group_name_H-M    P 1
_symmetry_int_tables_number       1

loop_
  _symmetry_equiv_pos_as_xyz
  'x, y, z'

loop_
  _atom_site_label
  _atom_site_occupancy
  _atom_site_fract_x
  _atom_site_fract_y
  _atom_site_fract_z
  _atom_site_thermal_displace_type
  _atom_site_B_iso_or_equiv
  _atom_site_type_symbol
  Ca1      1.0000 0.50000  0.50000  0.50000  Biso   1.000  Ca
  Ca2      1.0000 0.00000  0.00000  0.50000  Biso   1.000  Ca
  Ca3      1.0000 0.00000  0.50000  0.00000  Biso   1.000  Ca
  Ca4      1.0000 1.00000  0.50000  0.50000  Biso   1.000  Ca
  Ca5      1.0000 0.50000  0.50000  0.00000  Biso   1.000  Ca
  Ca6      1.0000 0.00000  0.00000  0.00000  Biso   1.000  Ca
  Ca7      1.0000 0.50000  0.00000  0.50000  Biso   1.000  Ca
  Ca8      1.0000 0.50000  0.00000  0.00000  Biso   1.000  Ca
  Er1      1.0000 0.75000  0.25000  0.25000  Biso   1.000  Er
  Er2      1.0000 0.75000  0.25000  0.75000  Biso   1.000  Er
  Er3      1.0000 0.75000  0.75000  0.25000  Biso   1.000  Er
  Er4      1.0000 0.25000  0.25000  0.25000  Biso   1.000  Er
  Er5      1.0000 0.25000  0.75000  0.75000  Biso   1.000  Er
  Er6      1.0000 0.25000  0.75000  0.25000  Biso   1.000  Er
  Er7      1.0000 0.25000  0.25000  0.75000  Biso   1.000  Er
  Er8      1.0000 0.75000  0.75000  0.75000  Biso   1.000  Er
  H1       1.0000 0.51660  0.41540  0.34480  Biso   1.000  H
  H2       1.0000 0.57630  0.47370  0.29490  Biso   1.000  H
  H3       1.0000 0.91540  0.01660  0.72320  Biso   1.000  H
  H4       1.0000 0.97370  0.07630  0.65510  Biso   1.000  H
  H5       1.0000 0.84480  0.72320  0.01660  Biso   1.000  H
  H6       1.0000 0.79490  0.65510  0.07630  Biso   1.000  H
  H7       1.0000 0.22320  0.34480  0.41540  Biso   1.000  H
  H8       1.0000 0.15510  0.29490  0.47370  Biso   1.000  H
  H9       1.0000 0.51660  0.34480  0.72320  Biso   1.000  H
  H10      1.0000 0.57630  0.29490  0.65510  Biso   1.000  H
  H11      1.0000 0.91540  0.72320  0.34480  Biso   1.000  H
  H12      1.0000 0.97370  0.65510  0.29490  Biso   1.000  H
  H13      1.0000 0.84480  0.01660  0.41540  Biso   1.000  H
  H14      1.0000 0.79490  0.07630  0.47370  Biso   1.000  H
  H15      1.0000 0.22320  0.41540  0.01660  Biso   1.000  H
  H16      1.0000 0.15510  0.47370  0.07630  Biso   1.000  H
  H17      1.0000 0.51660  0.72320  0.41540  Biso   1.000  H
  H18      1.0000 0.57630  0.65510  0.47370  Biso   1.000  H
  H19      1.0000 0.91540  0.34480  0.01660  Biso   1.000  H
  H20      1.0000 0.97370  0.29490  0.07630  Biso   1.000  H
  H21      1.0000 0.84480  0.41540  0.72320  Biso   1.000  H
  H22      1.0000 0.79490  0.47370  0.65510  Biso   1.000  H
  H23      1.0000 0.22320  0.01660  0.34480  Biso   1.000  H
  H24      1.0000 0.15510  0.07630  0.29490  Biso   1.000  H
  H25      1.0000 0.58460  0.48340  0.15520  Biso   1.000  H
  H26      1.0000 0.52630  0.42370  0.20510  Biso   1.000  H
  H27      1.0000 0.98340  0.08460  0.77680  Biso   1.000  H
  H28      1.0000 0.92370  0.02630  0.84490  Biso   1.000  H
  H29      1.0000 0.27680  0.15520  0.48340  Biso   1.000  H
  H30      1.0000 0.34490  0.20510  0.42370  Biso   1.000  H
  H31      1.0000 0.65520  0.77680  0.08460  Biso   1.000  H
  H32      1.0000 0.70510  0.84490  0.02630  Biso   1.000  H
  H33      1.0000 0.65520  0.48340  0.77680  Biso   1.000  H
  H34      1.0000 0.70510  0.42370  0.84490  Biso   1.000  H
  H35      1.0000 0.27680  0.08460  0.15520  Biso   1.000  H
  H36      1.0000 0.34490  0.02630  0.20510  Biso   1.000  H
  H37      1.0000 0.98340  0.15520  0.08460  Biso   1.000  H
  H38      1.0000 0.92370  0.20510  0.02630  Biso   1.000  H
  H39      1.0000 0.58460  0.77680  0.48340  Biso   1.000  H
  H40      1.0000 0.52630  0.84490  0.42370  Biso   1.000  H
  H41      1.0000 0.27680  0.48340  0.08460  Biso   1.000  H
  H42      1.0000 0.34490  0.42370  0.02630  Biso   1.000  H
  H43      1.0000 0.65520  0.08460  0.48340  Biso   1.000  H
  H44      1.0000 0.70510  0.02630  0.42370  Biso   1.000  H
  H45      1.0000 0.58460  0.15520  0.77680  Biso   1.000  H
  H46      1.0000 0.52630  0.20510  0.84490  Biso   1.000  H
  H47      1.0000 0.98340  0.77680  0.15520  Biso   1.000  H
  H48      1.0000 0.92370  0.84490  0.20510  Biso   1.000  H
  H49      1.0000 0.48340  0.58460  0.65520  Biso   1.000  H
  H50      1.0000 0.42370  0.52630  0.70510  Biso   1.000  H
  H51      1.0000 0.08460  0.98340  0.27680  Biso   1.000  H
  H52      1.0000 0.02630  0.92370  0.34490  Biso   1.000  H
  H53      1.0000 0.15520  0.27680  0.98340  Biso   1.000  H
  H54      1.0000 0.20510  0.34490  0.92370  Biso   1.000  H
  H55      1.0000 0.77680  0.65520  0.58460  Biso   1.000  H
  H56      1.0000 0.84490  0.70510  0.52630  Biso   1.000  H
  H57      1.0000 0.48340  0.65520  0.27680  Biso   1.000  H
  H58      1.0000 0.42370  0.70510  0.34490  Biso   1.000  H
  H59      1.0000 0.08460  0.27680  0.65520  Biso   1.000  H
  H60      1.0000 0.02630  0.34490  0.70510  Biso   1.000  H
  H61      1.0000 0.15520  0.98340  0.58460  Biso   1.000  H
  H62      1.0000 0.20510  0.92370  0.52630  Biso   1.000  H
  H63      1.0000 0.77680  0.58460  0.98340  Biso   1.000  H
  H64      1.0000 0.84490  0.52630  0.92370  Biso   1.000  H
  H65      1.0000 0.48340  0.27680  0.58460  Biso   1.000  H
  H66      1.0000 0.42370  0.34490  0.52630  Biso   1.000  H
  H67      1.0000 0.08460  0.65520  0.98340  Biso   1.000  H
  H68      1.0000 0.02630  0.70510  0.92370  Biso   1.000  H
  H69      1.0000 0.15520  0.58460  0.27680  Biso   1.000  H
  H70      1.0000 0.20510  0.52630  0.34490  Biso   1.000  H
  H71      1.0000 0.77680  0.98340  0.65520  Biso   1.000  H
  H72      1.0000 0.84490  0.92370  0.70510  Biso   1.000  H
  H73      1.0000 0.41540  0.51660  0.84480  Biso   1.000  H
  H74      1.0000 0.47370  0.57630  0.79490  Biso   1.000  H
  H75      1.0000 0.01660  0.91540  0.22320  Biso   1.000  H
  H76      1.0000 0.07630  0.97370  0.15510  Biso   1.000  H
  H77      1.0000 0.72320  0.84480  0.51660  Biso   1.000  H
  H78      1.0000 0.65510  0.79490  0.57630  Biso   1.000  H
  H79      1.0000 0.34480  0.22320  0.91540  Biso   1.000  H
  H80      1.0000 0.29490  0.15510  0.97370  Biso   1.000  H
  H81      1.0000 0.34480  0.51660  0.22320  Biso   1.000  H
  H82      1.0000 0.29490  0.57630  0.15510  Biso   1.000  H
  H83      1.0000 0.72320  0.91540  0.84480  Biso   1.000  H
  H84      1.0000 0.65510  0.97370  0.79490  Biso   1.000  H
  H85      1.0000 0.01660  0.84480  0.91540  Biso   1.000  H
  H86      1.0000 0.07630  0.79490  0.97370  Biso   1.000  H
  H87      1.0000 0.41540  0.22320  0.51660  Biso   1.000  H
  H88      1.0000 0.47370  0.15510  0.57630  Biso   1.000  H
  H89      1.0000 0.72320  0.51660  0.91540  Biso   1.000  H
  H90      1.0000 0.65510  0.57630  0.97370  Biso   1.000  H
  H91      1.0000 0.34480  0.91540  0.51660  Biso   1.000  H
  H92      1.0000 0.29490  0.97370  0.57630  Biso   1.000  H
  H93      1.0000 0.41540  0.84480  0.22320  Biso   1.000  H
  H94      1.0000 0.47370  0.79490  0.15510  Biso   1.000  H
  H95      1.0000 0.01660  0.22320  0.84480  Biso   1.000  H
  H96      1.0000 0.07630  0.15510  0.79490  Biso   1.000  H
  C1       1.0000 0.57670  0.41414  0.31806  Biso   1.000  C
  C2       1.0000 0.62120  0.35952  0.38508  Biso   1.000  C
  C3       1.0000 0.91414  0.07670  0.69110  Biso   1.000  C
  C4       1.0000 0.85952  0.12120  0.63420  Biso   1.000  C
  C5       1.0000 0.81806  0.69110  0.07670  Biso   1.000  C
  C6       1.0000 0.88508  0.63420  0.12120  Biso   1.000  C
  C7       1.0000 0.19110  0.31806  0.41414  Biso   1.000  C
  C8       1.0000 0.13420  0.38508  0.35952  Biso   1.000  C
  C9       1.0000 0.57670  0.31806  0.69110  Biso   1.000  C
  C10      1.0000 0.62120  0.38508  0.63420  Biso   1.000  C
  C11      1.0000 0.91414  0.69110  0.31806  Biso   1.000  C
  C12      1.0000 0.85952  0.63420  0.38508  Biso   1.000  C
  C13      1.0000 0.81806  0.07670  0.41414  Biso   1.000  C
  C14      1.0000 0.88508  0.12120  0.35952  Biso   1.000  C
  C15      1.0000 0.19110  0.41414  0.07670  Biso   1.000  C
  C16      1.0000 0.13420  0.35952  0.12120  Biso   1.000  C
  C17      1.0000 0.57670  0.69110  0.41414  Biso   1.000  C
  C18      1.0000 0.62120  0.63420  0.35952  Biso   1.000  C
  C19      1.0000 0.91414  0.31806  0.07670  Biso   1.000  C
  C20      1.0000 0.85952  0.38508  0.12120  Biso   1.000  C
  C21      1.0000 0.81806  0.41414  0.69110  Biso   1.000  C
  C22      1.0000 0.88508  0.35952  0.63420  Biso   1.000  C
  C23      1.0000 0.19110  0.07670  0.31806  Biso   1.000  C
  C24      1.0000 0.13420  0.12120  0.38508  Biso   1.000  C
  C25      1.0000 0.58586  0.42330  0.18194  Biso   1.000  C
  C26      1.0000 0.64048  0.37880  0.11492  Biso   1.000  C
  C27      1.0000 0.92330  0.08586  0.80890  Biso   1.000  C
  C28      1.0000 0.87880  0.14048  0.86580  Biso   1.000  C
  C29      1.0000 0.30890  0.18194  0.42330  Biso   1.000  C
  C30      1.0000 0.36580  0.11492  0.37880  Biso   1.000  C
  C31      1.0000 0.68194  0.80890  0.08586  Biso   1.000  C
  C32      1.0000 0.61492  0.86580  0.14048  Biso   1.000  C
  C33      1.0000 0.68194  0.42330  0.80890  Biso   1.000  C
  C34      1.0000 0.61492  0.37880  0.86580  Biso   1.000  C
  C35      1.0000 0.30890  0.08586  0.18194  Biso   1.000  C
  C36      1.0000 0.36580  0.14048  0.11492  Biso   1.000  C
  C37      1.0000 0.92330  0.18194  0.08586  Biso   1.000  C
  C38      1.0000 0.87880  0.11492  0.14048  Biso   1.000  C
  C39      1.0000 0.58586  0.80890  0.42330  Biso   1.000  C
  C40      1.0000 0.64048  0.86580  0.37880  Biso   1.000  C
  C41      1.0000 0.30890  0.42330  0.08586  Biso   1.000  C
  C42      1.0000 0.36580  0.37880  0.14048  Biso   1.000  C
  C43      1.0000 0.68194  0.08586  0.42330  Biso   1.000  C
  C44      1.0000 0.61492  0.14048  0.37880  Biso   1.000  C
  C45      1.0000 0.58586  0.18194  0.80890  Biso   1.000  C
  C46      1.0000 0.64048  0.11492  0.86580  Biso   1.000  C
  C47      1.0000 0.92330  0.80890  0.18194  Biso   1.000  C
  C48      1.0000 0.87880  0.86580  0.11492  Biso   1.000  C
  C49      1.0000 0.42330  0.58586  0.68194  Biso   1.000  C
  C50      1.0000 0.37880  0.64048  0.61492  Biso   1.000  C
  C51      1.0000 0.08586  0.92330  0.30890  Biso   1.000  C
  C52      1.0000 0.14048  0.87880  0.36580  Biso   1.000  C
  C53      1.0000 0.18194  0.30890  0.92330  Biso   1.000  C
  C54      1.0000 0.11492  0.36580  0.87880  Biso   1.000  C
  C55      1.0000 0.80890  0.68194  0.58586  Biso   1.000  C
  C56      1.0000 0.86580  0.61492  0.64048  Biso   1.000  C
  C57      1.0000 0.42330  0.68194  0.30890  Biso   1.000  C
  C58      1.0000 0.37880  0.61492  0.36580  Biso   1.000  C
  C59      1.0000 0.08586  0.30890  0.68194  Biso   1.000  C
  C60      1.0000 0.14048  0.36580  0.61492  Biso   1.000  C
  C61      1.0000 0.18194  0.92330  0.58586  Biso   1.000  C
  C62      1.0000 0.11492  0.87880  0.64048  Biso   1.000  C
  C63      1.0000 0.80890  0.58586  0.92330  Biso   1.000  C
  C64      1.0000 0.86580  0.64048  0.87880  Biso   1.000  C
  C65      1.0000 0.42330  0.30890  0.58586  Biso   1.000  C
  C66      1.0000 0.37880  0.36580  0.64048  Biso   1.000  C
  C67      1.0000 0.08586  0.68194  0.92330  Biso   1.000  C
  C68      1.0000 0.14048  0.61492  0.87880  Biso   1.000  C
  C69      1.0000 0.18194  0.58586  0.30890  Biso   1.000  C
  C70      1.0000 0.11492  0.64048  0.36580  Biso   1.000  C
  C71      1.0000 0.80890  0.92330  0.68194  Biso   1.000  C
  C72      1.0000 0.86580  0.87880  0.61492  Biso   1.000  C
  C73      1.0000 0.41414  0.57670  0.81806  Biso   1.000  C
  C74      1.0000 0.35952  0.62120  0.88508  Biso   1.000  C
  C75      1.0000 0.07670  0.91414  0.19110  Biso   1.000  C
  C76      1.0000 0.12120  0.85952  0.13420  Biso   1.000  C
  C77      1.0000 0.69110  0.81806  0.57670  Biso   1.000  C
  C78      1.0000 0.63420  0.88508  0.62120  Biso   1.000  C
  C79      1.0000 0.31806  0.19110  0.91414  Biso   1.000  C
  C80      1.0000 0.38508  0.13420  0.85952  Biso   1.000  C
  C81      1.0000 0.31806  0.57670  0.19110  Biso   1.000  C
  C82      1.0000 0.38508  0.62120  0.13420  Biso   1.000  C
  C83      1.0000 0.69110  0.91414  0.81806  Biso   1.000  C
  C84      1.0000 0.63420  0.85952  0.88508  Biso   1.000  C
  C85      1.0000 0.07670  0.81806  0.91414  Biso   1.000  C
  C86      1.0000 0.12120  0.88508  0.85952  Biso   1.000  C
  C87      1.0000 0.41414  0.19110  0.57670  Biso   1.000  C
  C88      1.0000 0.35952  0.13420  0.62120  Biso   1.000  C
  C89      1.0000 0.69110  0.57670  0.91414  Biso   1.000  C
  C90      1.0000 0.63420  0.62120  0.85952  Biso   1.000  C
  C91      1.0000 0.31806  0.91414  0.57670  Biso   1.000  C
  C92      1.0000 0.38508  0.85952  0.62120  Biso   1.000  C
  C93      1.0000 0.41414  0.81806  0.19110  Biso   1.000  C
  C94      1.0000 0.35952  0.88508  0.13420  Biso   1.000  C
  C95      1.0000 0.07670  0.19110  0.81806  Biso   1.000  C
  C96      1.0000 0.12120  0.13420  0.88508  Biso   1.000  C
  O1       1.0000 0.68759  0.29479  0.37181  Biso   1.000  O
  O2       1.0000 0.59022  0.38060  0.45080  Biso   1.000  O
  O3       1.0000 0.79479  0.18759  0.64581  Biso   1.000  O
  O4       1.0000 0.88060  0.09022  0.57838  Biso   1.000  O
  O5       1.0000 0.87181  0.64581  0.18759  Biso   1.000  O
  O6       1.0000 0.95080  0.57838  0.09022  Biso   1.000  O
  O7       1.0000 0.14581  0.37181  0.29479  Biso   1.000  O
  O8       1.0000 0.07838  0.45080  0.38060  Biso   1.000  O
  O9       1.0000 0.68759  0.37181  0.64581  Biso   1.000  O
  O10      1.0000 0.59022  0.45080  0.57838  Biso   1.000  O
  O11      1.0000 0.79479  0.64581  0.37181  Biso   1.000  O
  O12      1.0000 0.88060  0.57838  0.45080  Biso   1.000  O
  O13      1.0000 0.87181  0.18759  0.29479  Biso   1.000  O
  O14      1.0000 0.95080  0.09022  0.38060  Biso   1.000  O
  O15      1.0000 0.14581  0.29479  0.18759  Biso   1.000  O
  O16      1.0000 0.07838  0.38060  0.09022  Biso   1.000  O
  O17      1.0000 0.68759  0.64581  0.29479  Biso   1.000  O
  O18      1.0000 0.59022  0.57838  0.38060  Biso   1.000  O
  O19      1.0000 0.79479  0.37181  0.18759  Biso   1.000  O
  O20      1.0000 0.88060  0.45080  0.09022  Biso   1.000  O
  O21      1.0000 0.87181  0.29479  0.64581  Biso   1.000  O
  O22      1.0000 0.95080  0.38060  0.57838  Biso   1.000  O
  O23      1.0000 0.14581  0.18759  0.37181  Biso   1.000  O
  O24      1.0000 0.07838  0.09022  0.45080  Biso   1.000  O
  O25      1.0000 0.70521  0.31241  0.12819  Biso   1.000  O
  O26      1.0000 0.61940  0.40978  0.04920  Biso   1.000  O
  O27      1.0000 0.81241  0.20521  0.85419  Biso   1.000  O
  O28      1.0000 0.90978  0.11940  0.92162  Biso   1.000  O
  O29      1.0000 0.35419  0.12819  0.31241  Biso   1.000  O
  O30      1.0000 0.42162  0.04920  0.40978  Biso   1.000  O
  O31      1.0000 0.62819  0.85419  0.20521  Biso   1.000  O
  O32      1.0000 0.54920  0.92162  0.11940  Biso   1.000  O
  O33      1.0000 0.62819  0.31241  0.85419  Biso   1.000  O
  O34      1.0000 0.54920  0.40978  0.92162  Biso   1.000  O
  O35      1.0000 0.35419  0.20521  0.12819  Biso   1.000  O
  O36      1.0000 0.42162  0.11940  0.04920  Biso   1.000  O
  O37      1.0000 0.81241  0.12819  0.20521  Biso   1.000  O
  O38      1.0000 0.90978  0.04920  0.11940  Biso   1.000  O
  O39      1.0000 0.70521  0.85419  0.31241  Biso   1.000  O
  O40      1.0000 0.61940  0.92162  0.40978  Biso   1.000  O
  O41      1.0000 0.35419  0.31241  0.20521  Biso   1.000  O
  O42      1.0000 0.42162  0.40978  0.11940  Biso   1.000  O
  O43      1.0000 0.62819  0.20521  0.31241  Biso   1.000  O
  O44      1.0000 0.54920  0.11940  0.40978  Biso   1.000  O
  O45      1.0000 0.70521  0.12819  0.85419  Biso   1.000  O
  O46      1.0000 0.61940  0.04920  0.92162  Biso   1.000  O
  O47      1.0000 0.81241  0.85419  0.12819  Biso   1.000  O
  O48      1.0000 0.90978  0.92162  0.04920  Biso   1.000  O
  O49      1.0000 0.31241  0.70521  0.62819  Biso   1.000  O
  O50      1.0000 0.40978  0.61940  0.54920  Biso   1.000  O
  O51      1.0000 0.20521  0.81241  0.35419  Biso   1.000  O
  O52      1.0000 0.11940  0.90978  0.42162  Biso   1.000  O
  O53      1.0000 0.12819  0.35419  0.81241  Biso   1.000  O
  O54      1.0000 0.04920  0.42162  0.90978  Biso   1.000  O
  O55      1.0000 0.85419  0.62819  0.70521  Biso   1.000  O
  O56      1.0000 0.92162  0.54920  0.61940  Biso   1.000  O
  O57      1.0000 0.31241  0.62819  0.35419  Biso   1.000  O
  O58      1.0000 0.40978  0.54920  0.42162  Biso   1.000  O
  O59      1.0000 0.20521  0.35419  0.62819  Biso   1.000  O
  O60      1.0000 0.11940  0.42162  0.54920  Biso   1.000  O
  O61      1.0000 0.12819  0.81241  0.70521  Biso   1.000  O
  O62      1.0000 0.04920  0.90978  0.61940  Biso   1.000  O
  O63      1.0000 0.85419  0.70521  0.81241  Biso   1.000  O
  O64      1.0000 0.92162  0.61940  0.90978  Biso   1.000  O
  O65      1.0000 0.31241  0.35419  0.70521  Biso   1.000  O
  O66      1.0000 0.40978  0.42162  0.61940  Biso   1.000  O
  O67      1.0000 0.20521  0.62819  0.81241  Biso   1.000  O
  O68      1.0000 0.11940  0.54920  0.90978  Biso   1.000  O
  O69      1.0000 0.12819  0.70521  0.35419  Biso   1.000  O
  O70      1.0000 0.04920  0.61940  0.42162  Biso   1.000  O
  O71      1.0000 0.85419  0.81241  0.62819  Biso   1.000  O
  O72      1.0000 0.92162  0.90978  0.54920  Biso   1.000  O
  O73      1.0000 0.29479  0.68759  0.87181  Biso   1.000  O
  O74      1.0000 0.38060  0.59022  0.95080  Biso   1.000  O
  O75      1.0000 0.18759  0.79479  0.14581  Biso   1.000  O
  O76      1.0000 0.09022  0.88060  0.07838  Biso   1.000  O
  O77      1.0000 0.64581  0.87181  0.68759  Biso   1.000  O
  O78      1.0000 0.57838  0.95080  0.59022  Biso   1.000  O
  O79      1.0000 0.37181  0.14581  0.79479  Biso   1.000  O
  O80      1.0000 0.45080  0.07838  0.88060  Biso   1.000  O
  O81      1.0000 0.37181  0.68759  0.14581  Biso   1.000  O
  O82      1.0000 0.45080  0.59022  0.07838  Biso   1.000  O
  O83      1.0000 0.64581  0.79479  0.87181  Biso   1.000  O
  O84      1.0000 0.57838  0.88060  0.95080  Biso   1.000  O
  O85      1.0000 0.18759  0.87181  0.79479  Biso   1.000  O
  O86      1.0000 0.09022  0.95080  0.88060  Biso   1.000  O
  O87      1.0000 0.29479  0.14581  0.68759  Biso   1.000  O
  O88      1.0000 0.38060  0.07838  0.59022  Biso   1.000  O
  O89      1.0000 0.64581  0.68759  0.79479  Biso   1.000  O
  O90      1.0000 0.57838  0.59022  0.88060  Biso   1.000  O
  O91      1.0000 0.37181  0.79479  0.68759  Biso   1.000  O
  O92      1.0000 0.45080  0.88060  0.59022  Biso   1.000  O
  O93      1.0000 0.29479  0.87181  0.14581  Biso   1.000  O
  O94      1.0000 0.38060  0.95080  0.07838  Biso   1.000  O
  O95      1.0000 0.18759  0.14581  0.87181  Biso   1.000  O
  O96      1.0000 0.09022  0.07838  0.95080  Biso   1.000  O
  O97      1.0000 0.62036  0.37964  0.25000  Biso   1.000  O
  O98      1.0000 0.87964  0.12036  0.75000  Biso   1.000  O
  O99      1.0000 0.75000  0.75000  0.12036  Biso   1.000  O
  O100     1.0000 0.25000  0.25000  0.37964  Biso   1.000  O
  O101     1.0000 0.62036  0.25000  0.75000  Biso   1.000  O
  O102     1.0000 0.87964  0.75000  0.25000  Biso   1.000  O
  O103     1.0000 0.75000  0.12036  0.37964  Biso   1.000  O
  O104     1.0000 0.25000  0.37964  0.12036  Biso   1.000  O
  O105     1.0000 0.62036  0.75000  0.37964  Biso   1.000  O
  O106     1.0000 0.87964  0.25000  0.12036  Biso   1.000  O
  O107     1.0000 0.75000  0.37964  0.75000  Biso   1.000  O
  O108     1.0000 0.25000  0.12036  0.25000  Biso   1.000  O
  O109     1.0000 0.37964  0.62036  0.75000  Biso   1.000  O
  O110     1.0000 0.12036  0.87964  0.25000  Biso   1.000  O
  O111     1.0000 0.25000  0.25000  0.87964  Biso   1.000  O
  O112     1.0000 0.75000  0.75000  0.62036  Biso   1.000  O
  O113     1.0000 0.37964  0.75000  0.25000  Biso   1.000  O
  O114     1.0000 0.12036  0.25000  0.75000  Biso   1.000  O
  O115     1.0000 0.25000  0.87964  0.62036  Biso   1.000  O
  O116     1.0000 0.75000  0.62036  0.87964  Biso   1.000  O
  O117     1.0000 0.37964  0.25000  0.62036  Biso   1.000  O
  O118     1.0000 0.12036  0.75000  0.87964  Biso   1.000  O
  O119     1.0000 0.25000  0.62036  0.25000  Biso   1.000  O
  O120     1.0000 0.75000  0.87964  0.75000  Biso   1.000  O
