data_image0
_cell_length_a       18.6759
_cell_length_b       18.6759
_cell_length_c       18.6759
_cell_angle_alpha    60
_cell_angle_beta     60
_cell_angle_gamma    60

_symmetry_space_group_name_H-M    P 1
_symmetry_int_tables_number       1

loop_
  _symmetry_equiv_pos_as_xyz
  'x, y, z'

loop_
  _atom_site_label
  _atom_site_occupancy
  _atom_site_fract_x
  _atom_site_fract_y
  _atom_site_fract_z
  _atom_site_thermal_displace_type
  _atom_site_B_iso_or_equiv
  _atom_site_type_symbol
  Ca1      1.0000 0.50000  0.50000  0.50000  Biso   1.000  Ca
  Ca2      1.0000 0.00000  0.00000  0.50000  Biso   1.000  Ca
  Ca3      1.0000 0.00000  0.50000  0.00000  Biso   1.000  Ca
  Ca4      1.0000 0.00000  0.50000  0.50000  Biso   1.000  Ca
  Ca5      1.0000 0.50000  0.50000  0.00000  Biso   1.000  Ca
  Ca6      1.0000 0.00000  0.00000  0.00000  Biso   1.000  Ca
  Ca7      1.0000 0.50000  0.00000  0.50000  Biso   1.000  Ca
  Ca8      1.0000 0.50000  0.00000  0.00000  Biso   1.000  Ca
  Tm1      1.0000 0.75000  0.25000  0.25000  Biso   1.000  Tm
  Tm2      1.0000 0.75000  0.25000  0.75000  Biso   1.000  Tm
  Tm3      1.0000 0.75000  0.75000  0.25000  Biso   1.000  Tm
  Tm4      1.0000 0.25000  0.25000  0.25000  Biso   1.000  Tm
  Tm5      1.0000 0.25000  0.75000  0.75000  Biso   1.000  Tm
  Tm6      1.0000 0.25000  0.75000  0.25000  Biso   1.000  Tm
  Tm7      1.0000 0.25000  0.25000  0.75000  Biso   1.000  Tm
  Tm8      1.0000 0.75000  0.75000  0.75000  Biso   1.000  Tm
  H1       1.0000 0.51650  0.41630  0.34410  Biso   1.000  H
  H2       1.0000 0.57750  0.47350  0.29430  Biso   1.000  H
  H3       1.0000 0.91630  0.01650  0.72310  Biso   1.000  H
  H4       1.0000 0.97350  0.07750  0.65470  Biso   1.000  H
  H5       1.0000 0.84410  0.72310  0.01650  Biso   1.000  H
  H6       1.0000 0.79430  0.65470  0.07750  Biso   1.000  H
  H7       1.0000 0.22310  0.34410  0.41630  Biso   1.000  H
  H8       1.0000 0.15470  0.29430  0.47350  Biso   1.000  H
  H9       1.0000 0.51650  0.34410  0.72310  Biso   1.000  H
  H10      1.0000 0.57750  0.29430  0.65470  Biso   1.000  H
  H11      1.0000 0.91630  0.72310  0.34410  Biso   1.000  H
  H12      1.0000 0.97350  0.65470  0.29430  Biso   1.000  H
  H13      1.0000 0.84410  0.01650  0.41630  Biso   1.000  H
  H14      1.0000 0.79430  0.07750  0.47350  Biso   1.000  H
  H15      1.0000 0.22310  0.41630  0.01650  Biso   1.000  H
  H16      1.0000 0.15470  0.47350  0.07750  Biso   1.000  H
  H17      1.0000 0.51650  0.72310  0.41630  Biso   1.000  H
  H18      1.0000 0.57750  0.65470  0.47350  Biso   1.000  H
  H19      1.0000 0.91630  0.34410  0.01650  Biso   1.000  H
  H20      1.0000 0.97350  0.29430  0.07750  Biso   1.000  H
  H21      1.0000 0.84410  0.41630  0.72310  Biso   1.000  H
  H22      1.0000 0.79430  0.47350  0.65470  Biso   1.000  H
  H23      1.0000 0.22310  0.01650  0.34410  Biso   1.000  H
  H24      1.0000 0.15470  0.07750  0.29430  Biso   1.000  H
  H25      1.0000 0.58370  0.48350  0.15590  Biso   1.000  H
  H26      1.0000 0.52650  0.42250  0.20570  Biso   1.000  H
  H27      1.0000 0.98350  0.08370  0.77690  Biso   1.000  H
  H28      1.0000 0.92250  0.02650  0.84530  Biso   1.000  H
  H29      1.0000 0.27690  0.15590  0.48350  Biso   1.000  H
  H30      1.0000 0.34530  0.20570  0.42250  Biso   1.000  H
  H31      1.0000 0.65590  0.77690  0.08370  Biso   1.000  H
  H32      1.0000 0.70570  0.84530  0.02650  Biso   1.000  H
  H33      1.0000 0.65590  0.48350  0.77690  Biso   1.000  H
  H34      1.0000 0.70570  0.42250  0.84530  Biso   1.000  H
  H35      1.0000 0.27690  0.08370  0.15590  Biso   1.000  H
  H36      1.0000 0.34530  0.02650  0.20570  Biso   1.000  H
  H37      1.0000 0.98350  0.15590  0.08370  Biso   1.000  H
  H38      1.0000 0.92250  0.20570  0.02650  Biso   1.000  H
  H39      1.0000 0.58370  0.77690  0.48350  Biso   1.000  H
  H40      1.0000 0.52650  0.84530  0.42250  Biso   1.000  H
  H41      1.0000 0.27690  0.48350  0.08370  Biso   1.000  H
  H42      1.0000 0.34530  0.42250  0.02650  Biso   1.000  H
  H43      1.0000 0.65590  0.08370  0.48350  Biso   1.000  H
  H44      1.0000 0.70570  0.02650  0.42250  Biso   1.000  H
  H45      1.0000 0.58370  0.15590  0.77690  Biso   1.000  H
  H46      1.0000 0.52650  0.20570  0.84530  Biso   1.000  H
  H47      1.0000 0.98350  0.77690  0.15590  Biso   1.000  H
  H48      1.0000 0.92250  0.84530  0.20570  Biso   1.000  H
  H49      1.0000 0.48350  0.58370  0.65590  Biso   1.000  H
  H50      1.0000 0.42250  0.52650  0.70570  Biso   1.000  H
  H51      1.0000 0.08370  0.98350  0.27690  Biso   1.000  H
  H52      1.0000 0.02650  0.92250  0.34530  Biso   1.000  H
  H53      1.0000 0.15590  0.27690  0.98350  Biso   1.000  H
  H54      1.0000 0.20570  0.34530  0.92250  Biso   1.000  H
  H55      1.0000 0.77690  0.65590  0.58370  Biso   1.000  H
  H56      1.0000 0.84530  0.70570  0.52650  Biso   1.000  H
  H57      1.0000 0.48350  0.65590  0.27690  Biso   1.000  H
  H58      1.0000 0.42250  0.70570  0.34530  Biso   1.000  H
  H59      1.0000 0.08370  0.27690  0.65590  Biso   1.000  H
  H60      1.0000 0.02650  0.34530  0.70570  Biso   1.000  H
  H61      1.0000 0.15590  0.98350  0.58370  Biso   1.000  H
  H62      1.0000 0.20570  0.92250  0.52650  Biso   1.000  H
  H63      1.0000 0.77690  0.58370  0.98350  Biso   1.000  H
  H64      1.0000 0.84530  0.52650  0.92250  Biso   1.000  H
  H65      1.0000 0.48350  0.27690  0.58370  Biso   1.000  H
  H66      1.0000 0.42250  0.34530  0.52650  Biso   1.000  H
  H67      1.0000 0.08370  0.65590  0.98350  Biso   1.000  H
  H68      1.0000 0.02650  0.70570  0.92250  Biso   1.000  H
  H69      1.0000 0.15590  0.58370  0.27690  Biso   1.000  H
  H70      1.0000 0.20570  0.52650  0.34530  Biso   1.000  H
  H71      1.0000 0.77690  0.98350  0.65590  Biso   1.000  H
  H72      1.0000 0.84530  0.92250  0.70570  Biso   1.000  H
  H73      1.0000 0.41630  0.51650  0.84410  Biso   1.000  H
  H74      1.0000 0.47350  0.57750  0.79430  Biso   1.000  H
  H75      1.0000 0.01650  0.91630  0.22310  Biso   1.000  H
  H76      1.0000 0.07750  0.97350  0.15470  Biso   1.000  H
  H77      1.0000 0.72310  0.84410  0.51650  Biso   1.000  H
  H78      1.0000 0.65470  0.79430  0.57750  Biso   1.000  H
  H79      1.0000 0.34410  0.22310  0.91630  Biso   1.000  H
  H80      1.0000 0.29430  0.15470  0.97350  Biso   1.000  H
  H81      1.0000 0.34410  0.51650  0.22310  Biso   1.000  H
  H82      1.0000 0.29430  0.57750  0.15470  Biso   1.000  H
  H83      1.0000 0.72310  0.91630  0.84410  Biso   1.000  H
  H84      1.0000 0.65470  0.97350  0.79430  Biso   1.000  H
  H85      1.0000 0.01650  0.84410  0.91630  Biso   1.000  H
  H86      1.0000 0.07750  0.79430  0.97350  Biso   1.000  H
  H87      1.0000 0.41630  0.22310  0.51650  Biso   1.000  H
  H88      1.0000 0.47350  0.15470  0.57750  Biso   1.000  H
  H89      1.0000 0.72310  0.51650  0.91630  Biso   1.000  H
  H90      1.0000 0.65470  0.57750  0.97350  Biso   1.000  H
  H91      1.0000 0.34410  0.91630  0.51650  Biso   1.000  H
  H92      1.0000 0.29430  0.97350  0.57750  Biso   1.000  H
  H93      1.0000 0.41630  0.84410  0.22310  Biso   1.000  H
  H94      1.0000 0.47350  0.79430  0.15470  Biso   1.000  H
  H95      1.0000 0.01650  0.22310  0.84410  Biso   1.000  H
  H96      1.0000 0.07750  0.15470  0.79430  Biso   1.000  H
  C1       1.0000 0.57722  0.41418  0.31748  Biso   1.000  C
  C2       1.0000 0.62140  0.35860  0.38560  Biso   1.000  C
  C3       1.0000 0.91418  0.07722  0.69112  Biso   1.000  C
  C4       1.0000 0.85860  0.12140  0.63440  Biso   1.000  C
  C5       1.0000 0.81748  0.69112  0.07722  Biso   1.000  C
  C6       1.0000 0.88560  0.63440  0.12140  Biso   1.000  C
  C7       1.0000 0.19112  0.31748  0.41418  Biso   1.000  C
  C8       1.0000 0.13440  0.38560  0.35860  Biso   1.000  C
  C9       1.0000 0.57722  0.31748  0.69112  Biso   1.000  C
  C10      1.0000 0.62140  0.38560  0.63440  Biso   1.000  C
  C11      1.0000 0.91418  0.69112  0.31748  Biso   1.000  C
  C12      1.0000 0.85860  0.63440  0.38560  Biso   1.000  C
  C13      1.0000 0.81748  0.07722  0.41418  Biso   1.000  C
  C14      1.0000 0.88560  0.12140  0.35860  Biso   1.000  C
  C15      1.0000 0.19112  0.41418  0.07722  Biso   1.000  C
  C16      1.0000 0.13440  0.35860  0.12140  Biso   1.000  C
  C17      1.0000 0.57722  0.69112  0.41418  Biso   1.000  C
  C18      1.0000 0.62140  0.63440  0.35860  Biso   1.000  C
  C19      1.0000 0.91418  0.31748  0.07722  Biso   1.000  C
  C20      1.0000 0.85860  0.38560  0.12140  Biso   1.000  C
  C21      1.0000 0.81748  0.41418  0.69112  Biso   1.000  C
  C22      1.0000 0.88560  0.35860  0.63440  Biso   1.000  C
  C23      1.0000 0.19112  0.07722  0.31748  Biso   1.000  C
  C24      1.0000 0.13440  0.12140  0.38560  Biso   1.000  C
  C25      1.0000 0.58582  0.42278  0.18252  Biso   1.000  C
  C26      1.0000 0.64140  0.37860  0.11440  Biso   1.000  C
  C27      1.0000 0.92278  0.08582  0.80888  Biso   1.000  C
  C28      1.0000 0.87860  0.14140  0.86560  Biso   1.000  C
  C29      1.0000 0.30888  0.18252  0.42278  Biso   1.000  C
  C30      1.0000 0.36560  0.11440  0.37860  Biso   1.000  C
  C31      1.0000 0.68252  0.80888  0.08582  Biso   1.000  C
  C32      1.0000 0.61440  0.86560  0.14140  Biso   1.000  C
  C33      1.0000 0.68252  0.42278  0.80888  Biso   1.000  C
  C34      1.0000 0.61440  0.37860  0.86560  Biso   1.000  C
  C35      1.0000 0.30888  0.08582  0.18252  Biso   1.000  C
  C36      1.0000 0.36560  0.14140  0.11440  Biso   1.000  C
  C37      1.0000 0.92278  0.18252  0.08582  Biso   1.000  C
  C38      1.0000 0.87860  0.11440  0.14140  Biso   1.000  C
  C39      1.0000 0.58582  0.80888  0.42278  Biso   1.000  C
  C40      1.0000 0.64140  0.86560  0.37860  Biso   1.000  C
  C41      1.0000 0.30888  0.42278  0.08582  Biso   1.000  C
  C42      1.0000 0.36560  0.37860  0.14140  Biso   1.000  C
  C43      1.0000 0.68252  0.08582  0.42278  Biso   1.000  C
  C44      1.0000 0.61440  0.14140  0.37860  Biso   1.000  C
  C45      1.0000 0.58582  0.18252  0.80888  Biso   1.000  C
  C46      1.0000 0.64140  0.11440  0.86560  Biso   1.000  C
  C47      1.0000 0.92278  0.80888  0.18252  Biso   1.000  C
  C48      1.0000 0.87860  0.86560  0.11440  Biso   1.000  C
  C49      1.0000 0.42278  0.58582  0.68252  Biso   1.000  C
  C50      1.0000 0.37860  0.64140  0.61440  Biso   1.000  C
  C51      1.0000 0.08582  0.92278  0.30888  Biso   1.000  C
  C52      1.0000 0.14140  0.87860  0.36560  Biso   1.000  C
  C53      1.0000 0.18252  0.30888  0.92278  Biso   1.000  C
  C54      1.0000 0.11440  0.36560  0.87860  Biso   1.000  C
  C55      1.0000 0.80888  0.68252  0.58582  Biso   1.000  C
  C56      1.0000 0.86560  0.61440  0.64140  Biso   1.000  C
  C57      1.0000 0.42278  0.68252  0.30888  Biso   1.000  C
  C58      1.0000 0.37860  0.61440  0.36560  Biso   1.000  C
  C59      1.0000 0.08582  0.30888  0.68252  Biso   1.000  C
  C60      1.0000 0.14140  0.36560  0.61440  Biso   1.000  C
  C61      1.0000 0.18252  0.92278  0.58582  Biso   1.000  C
  C62      1.0000 0.11440  0.87860  0.64140  Biso   1.000  C
  C63      1.0000 0.80888  0.58582  0.92278  Biso   1.000  C
  C64      1.0000 0.86560  0.64140  0.87860  Biso   1.000  C
  C65      1.0000 0.42278  0.30888  0.58582  Biso   1.000  C
  C66      1.0000 0.37860  0.36560  0.64140  Biso   1.000  C
  C67      1.0000 0.08582  0.68252  0.92278  Biso   1.000  C
  C68      1.0000 0.14140  0.61440  0.87860  Biso   1.000  C
  C69      1.0000 0.18252  0.58582  0.30888  Biso   1.000  C
  C70      1.0000 0.11440  0.64140  0.36560  Biso   1.000  C
  C71      1.0000 0.80888  0.92278  0.68252  Biso   1.000  C
  C72      1.0000 0.86560  0.87860  0.61440  Biso   1.000  C
  C73      1.0000 0.41418  0.57722  0.81748  Biso   1.000  C
  C74      1.0000 0.35860  0.62140  0.88560  Biso   1.000  C
  C75      1.0000 0.07722  0.91418  0.19112  Biso   1.000  C
  C76      1.0000 0.12140  0.85860  0.13440  Biso   1.000  C
  C77      1.0000 0.69112  0.81748  0.57722  Biso   1.000  C
  C78      1.0000 0.63440  0.88560  0.62140  Biso   1.000  C
  C79      1.0000 0.31748  0.19112  0.91418  Biso   1.000  C
  C80      1.0000 0.38560  0.13440  0.85860  Biso   1.000  C
  C81      1.0000 0.31748  0.57722  0.19112  Biso   1.000  C
  C82      1.0000 0.38560  0.62140  0.13440  Biso   1.000  C
  C83      1.0000 0.69112  0.91418  0.81748  Biso   1.000  C
  C84      1.0000 0.63440  0.85860  0.88560  Biso   1.000  C
  C85      1.0000 0.07722  0.81748  0.91418  Biso   1.000  C
  C86      1.0000 0.12140  0.88560  0.85860  Biso   1.000  C
  C87      1.0000 0.41418  0.19112  0.57722  Biso   1.000  C
  C88      1.0000 0.35860  0.13440  0.62140  Biso   1.000  C
  C89      1.0000 0.69112  0.57722  0.91418  Biso   1.000  C
  C90      1.0000 0.63440  0.62140  0.85860  Biso   1.000  C
  C91      1.0000 0.31748  0.91418  0.57722  Biso   1.000  C
  C92      1.0000 0.38560  0.85860  0.62140  Biso   1.000  C
  C93      1.0000 0.41418  0.81748  0.19112  Biso   1.000  C
  C94      1.0000 0.35860  0.88560  0.13440  Biso   1.000  C
  C95      1.0000 0.07722  0.19112  0.81748  Biso   1.000  C
  C96      1.0000 0.12140  0.13440  0.88560  Biso   1.000  C
  O1       1.0000 0.68812  0.29406  0.37178  Biso   1.000  O
  O2       1.0000 0.59020  0.38044  0.45134  Biso   1.000  O
  O3       1.0000 0.79406  0.18812  0.64604  Biso   1.000  O
  O4       1.0000 0.88044  0.09020  0.57802  Biso   1.000  O
  O5       1.0000 0.87178  0.64604  0.18812  Biso   1.000  O
  O6       1.0000 0.95134  0.57802  0.09020  Biso   1.000  O
  O7       1.0000 0.14604  0.37178  0.29406  Biso   1.000  O
  O8       1.0000 0.07802  0.45134  0.38044  Biso   1.000  O
  O9       1.0000 0.68812  0.37178  0.64604  Biso   1.000  O
  O10      1.0000 0.59020  0.45134  0.57802  Biso   1.000  O
  O11      1.0000 0.79406  0.64604  0.37178  Biso   1.000  O
  O12      1.0000 0.88044  0.57802  0.45134  Biso   1.000  O
  O13      1.0000 0.87178  0.18812  0.29406  Biso   1.000  O
  O14      1.0000 0.95134  0.09020  0.38044  Biso   1.000  O
  O15      1.0000 0.14604  0.29406  0.18812  Biso   1.000  O
  O16      1.0000 0.07802  0.38044  0.09020  Biso   1.000  O
  O17      1.0000 0.68812  0.64604  0.29406  Biso   1.000  O
  O18      1.0000 0.59020  0.57802  0.38044  Biso   1.000  O
  O19      1.0000 0.79406  0.37178  0.18812  Biso   1.000  O
  O20      1.0000 0.88044  0.45134  0.09020  Biso   1.000  O
  O21      1.0000 0.87178  0.29406  0.64604  Biso   1.000  O
  O22      1.0000 0.95134  0.38044  0.57802  Biso   1.000  O
  O23      1.0000 0.14604  0.18812  0.37178  Biso   1.000  O
  O24      1.0000 0.07802  0.09020  0.45134  Biso   1.000  O
  O25      1.0000 0.70594  0.31188  0.12822  Biso   1.000  O
  O26      1.0000 0.61956  0.40980  0.04866  Biso   1.000  O
  O27      1.0000 0.81188  0.20594  0.85396  Biso   1.000  O
  O28      1.0000 0.90980  0.11956  0.92198  Biso   1.000  O
  O29      1.0000 0.35396  0.12822  0.31188  Biso   1.000  O
  O30      1.0000 0.42198  0.04866  0.40980  Biso   1.000  O
  O31      1.0000 0.62822  0.85396  0.20594  Biso   1.000  O
  O32      1.0000 0.54866  0.92198  0.11956  Biso   1.000  O
  O33      1.0000 0.62822  0.31188  0.85396  Biso   1.000  O
  O34      1.0000 0.54866  0.40980  0.92198  Biso   1.000  O
  O35      1.0000 0.35396  0.20594  0.12822  Biso   1.000  O
  O36      1.0000 0.42198  0.11956  0.04866  Biso   1.000  O
  O37      1.0000 0.81188  0.12822  0.20594  Biso   1.000  O
  O38      1.0000 0.90980  0.04866  0.11956  Biso   1.000  O
  O39      1.0000 0.70594  0.85396  0.31188  Biso   1.000  O
  O40      1.0000 0.61956  0.92198  0.40980  Biso   1.000  O
  O41      1.0000 0.35396  0.31188  0.20594  Biso   1.000  O
  O42      1.0000 0.42198  0.40980  0.11956  Biso   1.000  O
  O43      1.0000 0.62822  0.20594  0.31188  Biso   1.000  O
  O44      1.0000 0.54866  0.11956  0.40980  Biso   1.000  O
  O45      1.0000 0.70594  0.12822  0.85396  Biso   1.000  O
  O46      1.0000 0.61956  0.04866  0.92198  Biso   1.000  O
  O47      1.0000 0.81188  0.85396  0.12822  Biso   1.000  O
  O48      1.0000 0.90980  0.92198  0.04866  Biso   1.000  O
  O49      1.0000 0.31188  0.70594  0.62822  Biso   1.000  O
  O50      1.0000 0.40980  0.61956  0.54866  Biso   1.000  O
  O51      1.0000 0.20594  0.81188  0.35396  Biso   1.000  O
  O52      1.0000 0.11956  0.90980  0.42198  Biso   1.000  O
  O53      1.0000 0.12822  0.35396  0.81188  Biso   1.000  O
  O54      1.0000 0.04866  0.42198  0.90980  Biso   1.000  O
  O55      1.0000 0.85396  0.62822  0.70594  Biso   1.000  O
  O56      1.0000 0.92198  0.54866  0.61956  Biso   1.000  O
  O57      1.0000 0.31188  0.62822  0.35396  Biso   1.000  O
  O58      1.0000 0.40980  0.54866  0.42198  Biso   1.000  O
  O59      1.0000 0.20594  0.35396  0.62822  Biso   1.000  O
  O60      1.0000 0.11956  0.42198  0.54866  Biso   1.000  O
  O61      1.0000 0.12822  0.81188  0.70594  Biso   1.000  O
  O62      1.0000 0.04866  0.90980  0.61956  Biso   1.000  O
  O63      1.0000 0.85396  0.70594  0.81188  Biso   1.000  O
  O64      1.0000 0.92198  0.61956  0.90980  Biso   1.000  O
  O65      1.0000 0.31188  0.35396  0.70594  Biso   1.000  O
  O66      1.0000 0.40980  0.42198  0.61956  Biso   1.000  O
  O67      1.0000 0.20594  0.62822  0.81188  Biso   1.000  O
  O68      1.0000 0.11956  0.54866  0.90980  Biso   1.000  O
  O69      1.0000 0.12822  0.70594  0.35396  Biso   1.000  O
  O70      1.0000 0.04866  0.61956  0.42198  Biso   1.000  O
  O71      1.0000 0.85396  0.81188  0.62822  Biso   1.000  O
  O72      1.0000 0.92198  0.90980  0.54866  Biso   1.000  O
  O73      1.0000 0.29406  0.68812  0.87178  Biso   1.000  O
  O74      1.0000 0.38044  0.59020  0.95134  Biso   1.000  O
  O75      1.0000 0.18812  0.79406  0.14604  Biso   1.000  O
  O76      1.0000 0.09020  0.88044  0.07802  Biso   1.000  O
  O77      1.0000 0.64604  0.87178  0.68812  Biso   1.000  O
  O78      1.0000 0.57802  0.95134  0.59020  Biso   1.000  O
  O79      1.0000 0.37178  0.14604  0.79406  Biso   1.000  O
  O80      1.0000 0.45134  0.07802  0.88044  Biso   1.000  O
  O81      1.0000 0.37178  0.68812  0.14604  Biso   1.000  O
  O82      1.0000 0.45134  0.59020  0.07802  Biso   1.000  O
  O83      1.0000 0.64604  0.79406  0.87178  Biso   1.000  O
  O84      1.0000 0.57802  0.88044  0.95134  Biso   1.000  O
  O85      1.0000 0.18812  0.87178  0.79406  Biso   1.000  O
  O86      1.0000 0.09020  0.95134  0.88044  Biso   1.000  O
  O87      1.0000 0.29406  0.14604  0.68812  Biso   1.000  O
  O88      1.0000 0.38044  0.07802  0.59020  Biso   1.000  O
  O89      1.0000 0.64604  0.68812  0.79406  Biso   1.000  O
  O90      1.0000 0.57802  0.59020  0.88044  Biso   1.000  O
  O91      1.0000 0.37178  0.79406  0.68812  Biso   1.000  O
  O92      1.0000 0.45134  0.88044  0.59020  Biso   1.000  O
  O93      1.0000 0.29406  0.87178  0.14604  Biso   1.000  O
  O94      1.0000 0.38044  0.95134  0.07802  Biso   1.000  O
  O95      1.0000 0.18812  0.14604  0.87178  Biso   1.000  O
  O96      1.0000 0.09020  0.07802  0.95134  Biso   1.000  O
  O97      1.0000 0.62018  0.37982  0.25000  Biso   1.000  O
  O98      1.0000 0.87982  0.12018  0.75000  Biso   1.000  O
  O99      1.0000 0.75000  0.75000  0.12018  Biso   1.000  O
  O100     1.0000 0.25000  0.25000  0.37982  Biso   1.000  O
  O101     1.0000 0.62018  0.25000  0.75000  Biso   1.000  O
  O102     1.0000 0.87982  0.75000  0.25000  Biso   1.000  O
  O103     1.0000 0.75000  0.12018  0.37982  Biso   1.000  O
  O104     1.0000 0.25000  0.37982  0.12018  Biso   1.000  O
  O105     1.0000 0.62018  0.75000  0.37982  Biso   1.000  O
  O106     1.0000 0.87982  0.25000  0.12018  Biso   1.000  O
  O107     1.0000 0.75000  0.37982  0.75000  Biso   1.000  O
  O108     1.0000 0.25000  0.12018  0.25000  Biso   1.000  O
  O109     1.0000 0.37982  0.62018  0.75000  Biso   1.000  O
  O110     1.0000 0.12018  0.87982  0.25000  Biso   1.000  O
  O111     1.0000 0.25000  0.25000  0.87982  Biso   1.000  O
  O112     1.0000 0.75000  0.75000  0.62018  Biso   1.000  O
  O113     1.0000 0.37982  0.75000  0.25000  Biso   1.000  O
  O114     1.0000 0.12018  0.25000  0.75000  Biso   1.000  O
  O115     1.0000 0.25000  0.87982  0.62018  Biso   1.000  O
  O116     1.0000 0.75000  0.62018  0.87982  Biso   1.000  O
  O117     1.0000 0.37982  0.25000  0.62018  Biso   1.000  O
  O118     1.0000 0.12018  0.75000  0.87982  Biso   1.000  O
  O119     1.0000 0.25000  0.62018  0.25000  Biso   1.000  O
  O120     1.0000 0.75000  0.87982  0.75000  Biso   1.000  O
