data_image0
_cell_length_a       18.6874
_cell_length_b       18.6874
_cell_length_c       18.6874
_cell_angle_alpha    60
_cell_angle_beta     60
_cell_angle_gamma    60

_symmetry_space_group_name_H-M    P 1
_symmetry_int_tables_number       1

loop_
  _symmetry_equiv_pos_as_xyz
  'x, y, z'

loop_
  _atom_site_label
  _atom_site_occupancy
  _atom_site_fract_x
  _atom_site_fract_y
  _atom_site_fract_z
  _atom_site_thermal_displace_type
  _atom_site_B_iso_or_equiv
  _atom_site_type_symbol
  Yb1      1.0000 0.75000  0.25000  0.75000  Biso   1.000  Yb
  Yb2      1.0000 0.75000  0.25000  0.25000  Biso   1.000  Yb
  Yb3      1.0000 0.25000  0.25000  0.25000  Biso   1.000  Yb
  Yb4      1.0000 0.75000  0.75000  0.25000  Biso   1.000  Yb
  Yb5      1.0000 0.25000  0.75000  0.25000  Biso   1.000  Yb
  Yb6      1.0000 0.25000  0.75000  0.75000  Biso   1.000  Yb
  Yb7      1.0000 0.75000  0.75000  0.75000  Biso   1.000  Yb
  Yb8      1.0000 0.25000  0.25000  0.75000  Biso   1.000  Yb
  Ca1      1.0000 0.50000  0.50000  0.50000  Biso   1.000  Ca
  Ca2      1.0000 0.00000  0.00000  0.50000  Biso   1.000  Ca
  Ca3      1.0000 0.00000  0.50000  0.00000  Biso   1.000  Ca
  Ca4      1.0000 0.00000  0.50000  0.50000  Biso   1.000  Ca
  Ca5      1.0000 0.50000  0.50000  0.00000  Biso   1.000  Ca
  Ca6      1.0000 0.00000  0.00000  0.00000  Biso   1.000  Ca
  Ca7      1.0000 0.50000  0.00000  0.50000  Biso   1.000  Ca
  Ca8      1.0000 0.50000  0.00000  0.00000  Biso   1.000  Ca
  H1       1.0000 0.51620  0.34480  0.72240  Biso   1.000  H
  H2       1.0000 0.57690  0.29470  0.65430  Biso   1.000  H
  H3       1.0000 0.84480  0.01620  0.41660  Biso   1.000  H
  H4       1.0000 0.79470  0.07690  0.47410  Biso   1.000  H
  H5       1.0000 0.22240  0.41660  0.01620  Biso   1.000  H
  H6       1.0000 0.15430  0.47410  0.07690  Biso   1.000  H
  H7       1.0000 0.91660  0.72240  0.34480  Biso   1.000  H
  H8       1.0000 0.97410  0.65430  0.29470  Biso   1.000  H
  H9       1.0000 0.51620  0.72240  0.41660  Biso   1.000  H
  H10      1.0000 0.57690  0.65430  0.47410  Biso   1.000  H
  H11      1.0000 0.84480  0.41660  0.72240  Biso   1.000  H
  H12      1.0000 0.79470  0.47410  0.65430  Biso   1.000  H
  H13      1.0000 0.22240  0.01620  0.34480  Biso   1.000  H
  H14      1.0000 0.15430  0.07690  0.29470  Biso   1.000  H
  H15      1.0000 0.91660  0.34480  0.01620  Biso   1.000  H
  H16      1.0000 0.97410  0.29470  0.07690  Biso   1.000  H
  H17      1.0000 0.51620  0.41660  0.34480  Biso   1.000  H
  H18      1.0000 0.57690  0.47410  0.29470  Biso   1.000  H
  H19      1.0000 0.84480  0.72240  0.01620  Biso   1.000  H
  H20      1.0000 0.79470  0.65430  0.07690  Biso   1.000  H
  H21      1.0000 0.22240  0.34480  0.41660  Biso   1.000  H
  H22      1.0000 0.15430  0.29470  0.47410  Biso   1.000  H
  H23      1.0000 0.91660  0.01620  0.72240  Biso   1.000  H
  H24      1.0000 0.97410  0.07690  0.65430  Biso   1.000  H
  H25      1.0000 0.65520  0.48380  0.77760  Biso   1.000  H
  H26      1.0000 0.70530  0.42310  0.84570  Biso   1.000  H
  H27      1.0000 0.98380  0.15520  0.08340  Biso   1.000  H
  H28      1.0000 0.92310  0.20530  0.02590  Biso   1.000  H
  H29      1.0000 0.58340  0.77760  0.48380  Biso   1.000  H
  H30      1.0000 0.52590  0.84570  0.42310  Biso   1.000  H
  H31      1.0000 0.27760  0.08340  0.15520  Biso   1.000  H
  H32      1.0000 0.34570  0.02590  0.20530  Biso   1.000  H
  H33      1.0000 0.27760  0.48380  0.08340  Biso   1.000  H
  H34      1.0000 0.34570  0.42310  0.02590  Biso   1.000  H
  H35      1.0000 0.58340  0.15520  0.77760  Biso   1.000  H
  H36      1.0000 0.52590  0.20530  0.84570  Biso   1.000  H
  H37      1.0000 0.98380  0.77760  0.15520  Biso   1.000  H
  H38      1.0000 0.92310  0.84570  0.20530  Biso   1.000  H
  H39      1.0000 0.65520  0.08340  0.48380  Biso   1.000  H
  H40      1.0000 0.70530  0.02590  0.42310  Biso   1.000  H
  H41      1.0000 0.58340  0.48380  0.15520  Biso   1.000  H
  H42      1.0000 0.52590  0.42310  0.20530  Biso   1.000  H
  H43      1.0000 0.27760  0.15520  0.48380  Biso   1.000  H
  H44      1.0000 0.34570  0.20530  0.42310  Biso   1.000  H
  H45      1.0000 0.65520  0.77760  0.08340  Biso   1.000  H
  H46      1.0000 0.70530  0.84570  0.02590  Biso   1.000  H
  H47      1.0000 0.98380  0.08340  0.77760  Biso   1.000  H
  H48      1.0000 0.92310  0.02590  0.84570  Biso   1.000  H
  H49      1.0000 0.48380  0.65520  0.27760  Biso   1.000  H
  H50      1.0000 0.42310  0.70530  0.34570  Biso   1.000  H
  H51      1.0000 0.15520  0.98380  0.58340  Biso   1.000  H
  H52      1.0000 0.20530  0.92310  0.52590  Biso   1.000  H
  H53      1.0000 0.77760  0.58340  0.98380  Biso   1.000  H
  H54      1.0000 0.84570  0.52590  0.92310  Biso   1.000  H
  H55      1.0000 0.08340  0.27760  0.65520  Biso   1.000  H
  H56      1.0000 0.02590  0.34570  0.70530  Biso   1.000  H
  H57      1.0000 0.48380  0.27760  0.58340  Biso   1.000  H
  H58      1.0000 0.42310  0.34570  0.52590  Biso   1.000  H
  H59      1.0000 0.15520  0.58340  0.27760  Biso   1.000  H
  H60      1.0000 0.20530  0.52590  0.34570  Biso   1.000  H
  H61      1.0000 0.77760  0.98380  0.65520  Biso   1.000  H
  H62      1.0000 0.84570  0.92310  0.70530  Biso   1.000  H
  H63      1.0000 0.08340  0.65520  0.98380  Biso   1.000  H
  H64      1.0000 0.02590  0.70530  0.92310  Biso   1.000  H
  H65      1.0000 0.48380  0.58340  0.65520  Biso   1.000  H
  H66      1.0000 0.42310  0.52590  0.70530  Biso   1.000  H
  H67      1.0000 0.15520  0.27760  0.98380  Biso   1.000  H
  H68      1.0000 0.20530  0.34570  0.92310  Biso   1.000  H
  H69      1.0000 0.77760  0.65520  0.58340  Biso   1.000  H
  H70      1.0000 0.84570  0.70530  0.52590  Biso   1.000  H
  H71      1.0000 0.08340  0.98380  0.27760  Biso   1.000  H
  H72      1.0000 0.02590  0.92310  0.34570  Biso   1.000  H
  H73      1.0000 0.34480  0.51620  0.22240  Biso   1.000  H
  H74      1.0000 0.29470  0.57690  0.15430  Biso   1.000  H
  H75      1.0000 0.01620  0.84480  0.91660  Biso   1.000  H
  H76      1.0000 0.07690  0.79470  0.97410  Biso   1.000  H
  H77      1.0000 0.41660  0.22240  0.51620  Biso   1.000  H
  H78      1.0000 0.47410  0.15430  0.57690  Biso   1.000  H
  H79      1.0000 0.72240  0.91660  0.84480  Biso   1.000  H
  H80      1.0000 0.65430  0.97410  0.79470  Biso   1.000  H
  H81      1.0000 0.72240  0.51620  0.91660  Biso   1.000  H
  H82      1.0000 0.65430  0.57690  0.97410  Biso   1.000  H
  H83      1.0000 0.41660  0.84480  0.22240  Biso   1.000  H
  H84      1.0000 0.47410  0.79470  0.15430  Biso   1.000  H
  H85      1.0000 0.01620  0.22240  0.84480  Biso   1.000  H
  H86      1.0000 0.07690  0.15430  0.79470  Biso   1.000  H
  H87      1.0000 0.34480  0.91660  0.51620  Biso   1.000  H
  H88      1.0000 0.29470  0.97410  0.57690  Biso   1.000  H
  H89      1.0000 0.41660  0.51620  0.84480  Biso   1.000  H
  H90      1.0000 0.47410  0.57690  0.79470  Biso   1.000  H
  H91      1.0000 0.72240  0.84480  0.51620  Biso   1.000  H
  H92      1.0000 0.65430  0.79470  0.57690  Biso   1.000  H
  H93      1.0000 0.34480  0.22240  0.91660  Biso   1.000  H
  H94      1.0000 0.29470  0.15430  0.97410  Biso   1.000  H
  H95      1.0000 0.01620  0.91660  0.22240  Biso   1.000  H
  H96      1.0000 0.07690  0.97410  0.15430  Biso   1.000  H
  C1       1.0000 0.57660  0.31800  0.69060  Biso   1.000  C
  C2       1.0000 0.62168  0.38488  0.63452  Biso   1.000  C
  C3       1.0000 0.81800  0.07660  0.41480  Biso   1.000  C
  C4       1.0000 0.88488  0.12168  0.35892  Biso   1.000  C
  C5       1.0000 0.19060  0.41480  0.07660  Biso   1.000  C
  C6       1.0000 0.13452  0.35892  0.12168  Biso   1.000  C
  C7       1.0000 0.91480  0.69060  0.31800  Biso   1.000  C
  C8       1.0000 0.85892  0.63452  0.38488  Biso   1.000  C
  C9       1.0000 0.57660  0.69060  0.41480  Biso   1.000  C
  C10      1.0000 0.62168  0.63452  0.35892  Biso   1.000  C
  C11      1.0000 0.81800  0.41480  0.69060  Biso   1.000  C
  C12      1.0000 0.88488  0.35892  0.63452  Biso   1.000  C
  C13      1.0000 0.19060  0.07660  0.31800  Biso   1.000  C
  C14      1.0000 0.13452  0.12168  0.38488  Biso   1.000  C
  C15      1.0000 0.91480  0.31800  0.07660  Biso   1.000  C
  C16      1.0000 0.85892  0.38488  0.12168  Biso   1.000  C
  C17      1.0000 0.57660  0.41480  0.31800  Biso   1.000  C
  C18      1.0000 0.62168  0.35892  0.38488  Biso   1.000  C
  C19      1.0000 0.81800  0.69060  0.07660  Biso   1.000  C
  C20      1.0000 0.88488  0.63452  0.12168  Biso   1.000  C
  C21      1.0000 0.19060  0.31800  0.41480  Biso   1.000  C
  C22      1.0000 0.13452  0.38488  0.35892  Biso   1.000  C
  C23      1.0000 0.91480  0.07660  0.69060  Biso   1.000  C
  C24      1.0000 0.85892  0.12168  0.63452  Biso   1.000  C
  C25      1.0000 0.68200  0.42340  0.80940  Biso   1.000  C
  C26      1.0000 0.61512  0.37832  0.86548  Biso   1.000  C
  C27      1.0000 0.92340  0.18200  0.08520  Biso   1.000  C
  C28      1.0000 0.87832  0.11512  0.14108  Biso   1.000  C
  C29      1.0000 0.58520  0.80940  0.42340  Biso   1.000  C
  C30      1.0000 0.64108  0.86548  0.37832  Biso   1.000  C
  C31      1.0000 0.30940  0.08520  0.18200  Biso   1.000  C
  C32      1.0000 0.36548  0.14108  0.11512  Biso   1.000  C
  C33      1.0000 0.30940  0.42340  0.08520  Biso   1.000  C
  C34      1.0000 0.36548  0.37832  0.14108  Biso   1.000  C
  C35      1.0000 0.58520  0.18200  0.80940  Biso   1.000  C
  C36      1.0000 0.64108  0.11512  0.86548  Biso   1.000  C
  C37      1.0000 0.92340  0.80940  0.18200  Biso   1.000  C
  C38      1.0000 0.87832  0.86548  0.11512  Biso   1.000  C
  C39      1.0000 0.68200  0.08520  0.42340  Biso   1.000  C
  C40      1.0000 0.61512  0.14108  0.37832  Biso   1.000  C
  C41      1.0000 0.58520  0.42340  0.18200  Biso   1.000  C
  C42      1.0000 0.64108  0.37832  0.11512  Biso   1.000  C
  C43      1.0000 0.30940  0.18200  0.42340  Biso   1.000  C
  C44      1.0000 0.36548  0.11512  0.37832  Biso   1.000  C
  C45      1.0000 0.68200  0.80940  0.08520  Biso   1.000  C
  C46      1.0000 0.61512  0.86548  0.14108  Biso   1.000  C
  C47      1.0000 0.92340  0.08520  0.80940  Biso   1.000  C
  C48      1.0000 0.87832  0.14108  0.86548  Biso   1.000  C
  C49      1.0000 0.42340  0.68200  0.30940  Biso   1.000  C
  C50      1.0000 0.37832  0.61512  0.36548  Biso   1.000  C
  C51      1.0000 0.18200  0.92340  0.58520  Biso   1.000  C
  C52      1.0000 0.11512  0.87832  0.64108  Biso   1.000  C
  C53      1.0000 0.80940  0.58520  0.92340  Biso   1.000  C
  C54      1.0000 0.86548  0.64108  0.87832  Biso   1.000  C
  C55      1.0000 0.08520  0.30940  0.68200  Biso   1.000  C
  C56      1.0000 0.14108  0.36548  0.61512  Biso   1.000  C
  C57      1.0000 0.42340  0.30940  0.58520  Biso   1.000  C
  C58      1.0000 0.37832  0.36548  0.64108  Biso   1.000  C
  C59      1.0000 0.18200  0.58520  0.30940  Biso   1.000  C
  C60      1.0000 0.11512  0.64108  0.36548  Biso   1.000  C
  C61      1.0000 0.80940  0.92340  0.68200  Biso   1.000  C
  C62      1.0000 0.86548  0.87832  0.61512  Biso   1.000  C
  C63      1.0000 0.08520  0.68200  0.92340  Biso   1.000  C
  C64      1.0000 0.14108  0.61512  0.87832  Biso   1.000  C
  C65      1.0000 0.42340  0.58520  0.68200  Biso   1.000  C
  C66      1.0000 0.37832  0.64108  0.61512  Biso   1.000  C
  C67      1.0000 0.18200  0.30940  0.92340  Biso   1.000  C
  C68      1.0000 0.11512  0.36548  0.87832  Biso   1.000  C
  C69      1.0000 0.80940  0.68200  0.58520  Biso   1.000  C
  C70      1.0000 0.86548  0.61512  0.64108  Biso   1.000  C
  C71      1.0000 0.08520  0.92340  0.30940  Biso   1.000  C
  C72      1.0000 0.14108  0.87832  0.36548  Biso   1.000  C
  C73      1.0000 0.31800  0.57660  0.19060  Biso   1.000  C
  C74      1.0000 0.38488  0.62168  0.13452  Biso   1.000  C
  C75      1.0000 0.07660  0.81800  0.91480  Biso   1.000  C
  C76      1.0000 0.12168  0.88488  0.85892  Biso   1.000  C
  C77      1.0000 0.41480  0.19060  0.57660  Biso   1.000  C
  C78      1.0000 0.35892  0.13452  0.62168  Biso   1.000  C
  C79      1.0000 0.69060  0.91480  0.81800  Biso   1.000  C
  C80      1.0000 0.63452  0.85892  0.88488  Biso   1.000  C
  C81      1.0000 0.69060  0.57660  0.91480  Biso   1.000  C
  C82      1.0000 0.63452  0.62168  0.85892  Biso   1.000  C
  C83      1.0000 0.41480  0.81800  0.19060  Biso   1.000  C
  C84      1.0000 0.35892  0.88488  0.13452  Biso   1.000  C
  C85      1.0000 0.07660  0.19060  0.81800  Biso   1.000  C
  C86      1.0000 0.12168  0.13452  0.88488  Biso   1.000  C
  C87      1.0000 0.31800  0.91480  0.57660  Biso   1.000  C
  C88      1.0000 0.38488  0.85892  0.62168  Biso   1.000  C
  C89      1.0000 0.41480  0.57660  0.81800  Biso   1.000  C
  C90      1.0000 0.35892  0.62168  0.88488  Biso   1.000  C
  C91      1.0000 0.69060  0.81800  0.57660  Biso   1.000  C
  C92      1.0000 0.63452  0.88488  0.62168  Biso   1.000  C
  C93      1.0000 0.31800  0.19060  0.91480  Biso   1.000  C
  C94      1.0000 0.38488  0.13452  0.85892  Biso   1.000  C
  C95      1.0000 0.07660  0.91480  0.19060  Biso   1.000  C
  C96      1.0000 0.12168  0.85892  0.13452  Biso   1.000  C
  O1       1.0000 0.68847  0.37119  0.64627  Biso   1.000  O
  O2       1.0000 0.59062  0.45118  0.57836  Biso   1.000  O
  O3       1.0000 0.87119  0.18847  0.29407  Biso   1.000  O
  O4       1.0000 0.95118  0.09062  0.37984  Biso   1.000  O
  O5       1.0000 0.14627  0.29407  0.18847  Biso   1.000  O
  O6       1.0000 0.07836  0.37984  0.09062  Biso   1.000  O
  O7       1.0000 0.79407  0.64627  0.37119  Biso   1.000  O
  O8       1.0000 0.87984  0.57836  0.45118  Biso   1.000  O
  O9       1.0000 0.68847  0.64627  0.29407  Biso   1.000  O
  O10      1.0000 0.59062  0.57836  0.37984  Biso   1.000  O
  O11      1.0000 0.87119  0.29407  0.64627  Biso   1.000  O
  O12      1.0000 0.95118  0.37984  0.57836  Biso   1.000  O
  O13      1.0000 0.14627  0.18847  0.37119  Biso   1.000  O
  O14      1.0000 0.07836  0.09062  0.45118  Biso   1.000  O
  O15      1.0000 0.79407  0.37119  0.18847  Biso   1.000  O
  O16      1.0000 0.87984  0.45118  0.09062  Biso   1.000  O
  O17      1.0000 0.68847  0.29407  0.37119  Biso   1.000  O
  O18      1.0000 0.59062  0.37984  0.45118  Biso   1.000  O
  O19      1.0000 0.87119  0.64627  0.18847  Biso   1.000  O
  O20      1.0000 0.95118  0.57836  0.09062  Biso   1.000  O
  O21      1.0000 0.14627  0.37119  0.29407  Biso   1.000  O
  O22      1.0000 0.07836  0.45118  0.37984  Biso   1.000  O
  O23      1.0000 0.79407  0.18847  0.64627  Biso   1.000  O
  O24      1.0000 0.87984  0.09062  0.57836  Biso   1.000  O
  O25      1.0000 0.62881  0.31153  0.85373  Biso   1.000  O
  O26      1.0000 0.54882  0.40938  0.92164  Biso   1.000  O
  O27      1.0000 0.81153  0.12881  0.20593  Biso   1.000  O
  O28      1.0000 0.90938  0.04882  0.12016  Biso   1.000  O
  O29      1.0000 0.70593  0.85373  0.31153  Biso   1.000  O
  O30      1.0000 0.62016  0.92164  0.40938  Biso   1.000  O
  O31      1.0000 0.35373  0.20593  0.12881  Biso   1.000  O
  O32      1.0000 0.42164  0.12016  0.04882  Biso   1.000  O
  O33      1.0000 0.35373  0.31153  0.20593  Biso   1.000  O
  O34      1.0000 0.42164  0.40938  0.12016  Biso   1.000  O
  O35      1.0000 0.70593  0.12881  0.85373  Biso   1.000  O
  O36      1.0000 0.62016  0.04882  0.92164  Biso   1.000  O
  O37      1.0000 0.81153  0.85373  0.12881  Biso   1.000  O
  O38      1.0000 0.90938  0.92164  0.04882  Biso   1.000  O
  O39      1.0000 0.62881  0.20593  0.31153  Biso   1.000  O
  O40      1.0000 0.54882  0.12016  0.40938  Biso   1.000  O
  O41      1.0000 0.70593  0.31153  0.12881  Biso   1.000  O
  O42      1.0000 0.62016  0.40938  0.04882  Biso   1.000  O
  O43      1.0000 0.35373  0.12881  0.31153  Biso   1.000  O
  O44      1.0000 0.42164  0.04882  0.40938  Biso   1.000  O
  O45      1.0000 0.62881  0.85373  0.20593  Biso   1.000  O
  O46      1.0000 0.54882  0.92164  0.12016  Biso   1.000  O
  O47      1.0000 0.81153  0.20593  0.85373  Biso   1.000  O
  O48      1.0000 0.90938  0.12016  0.92164  Biso   1.000  O
  O49      1.0000 0.31153  0.62881  0.35373  Biso   1.000  O
  O50      1.0000 0.40938  0.54882  0.42164  Biso   1.000  O
  O51      1.0000 0.12881  0.81153  0.70593  Biso   1.000  O
  O52      1.0000 0.04882  0.90938  0.62016  Biso   1.000  O
  O53      1.0000 0.85373  0.70593  0.81153  Biso   1.000  O
  O54      1.0000 0.92164  0.62016  0.90938  Biso   1.000  O
  O55      1.0000 0.20593  0.35373  0.62881  Biso   1.000  O
  O56      1.0000 0.12016  0.42164  0.54882  Biso   1.000  O
  O57      1.0000 0.31153  0.35373  0.70593  Biso   1.000  O
  O58      1.0000 0.40938  0.42164  0.62016  Biso   1.000  O
  O59      1.0000 0.12881  0.70593  0.35373  Biso   1.000  O
  O60      1.0000 0.04882  0.62016  0.42164  Biso   1.000  O
  O61      1.0000 0.85373  0.81153  0.62881  Biso   1.000  O
  O62      1.0000 0.92164  0.90938  0.54882  Biso   1.000  O
  O63      1.0000 0.20593  0.62881  0.81153  Biso   1.000  O
  O64      1.0000 0.12016  0.54882  0.90938  Biso   1.000  O
  O65      1.0000 0.31153  0.70593  0.62881  Biso   1.000  O
  O66      1.0000 0.40938  0.62016  0.54882  Biso   1.000  O
  O67      1.0000 0.12881  0.35373  0.81153  Biso   1.000  O
  O68      1.0000 0.04882  0.42164  0.90938  Biso   1.000  O
  O69      1.0000 0.85373  0.62881  0.70593  Biso   1.000  O
  O70      1.0000 0.92164  0.54882  0.62016  Biso   1.000  O
  O71      1.0000 0.20593  0.81153  0.35373  Biso   1.000  O
  O72      1.0000 0.12016  0.90938  0.42164  Biso   1.000  O
  O73      1.0000 0.37119  0.68847  0.14627  Biso   1.000  O
  O74      1.0000 0.45118  0.59062  0.07836  Biso   1.000  O
  O75      1.0000 0.18847  0.87119  0.79407  Biso   1.000  O
  O76      1.0000 0.09062  0.95118  0.87984  Biso   1.000  O
  O77      1.0000 0.29407  0.14627  0.68847  Biso   1.000  O
  O78      1.0000 0.37984  0.07836  0.59062  Biso   1.000  O
  O79      1.0000 0.64627  0.79407  0.87119  Biso   1.000  O
  O80      1.0000 0.57836  0.87984  0.95118  Biso   1.000  O
  O81      1.0000 0.64627  0.68847  0.79407  Biso   1.000  O
  O82      1.0000 0.57836  0.59062  0.87984  Biso   1.000  O
  O83      1.0000 0.29407  0.87119  0.14627  Biso   1.000  O
  O84      1.0000 0.37984  0.95118  0.07836  Biso   1.000  O
  O85      1.0000 0.18847  0.14627  0.87119  Biso   1.000  O
  O86      1.0000 0.09062  0.07836  0.95118  Biso   1.000  O
  O87      1.0000 0.37119  0.79407  0.68847  Biso   1.000  O
  O88      1.0000 0.45118  0.87984  0.59062  Biso   1.000  O
  O89      1.0000 0.29407  0.68847  0.87119  Biso   1.000  O
  O90      1.0000 0.37984  0.59062  0.95118  Biso   1.000  O
  O91      1.0000 0.64627  0.87119  0.68847  Biso   1.000  O
  O92      1.0000 0.57836  0.95118  0.59062  Biso   1.000  O
  O93      1.0000 0.37119  0.14627  0.79407  Biso   1.000  O
  O94      1.0000 0.45118  0.07836  0.87984  Biso   1.000  O
  O95      1.0000 0.18847  0.79407  0.14627  Biso   1.000  O
  O96      1.0000 0.09062  0.87984  0.07836  Biso   1.000  O
  O97      1.0000 0.62050  0.25000  0.75000  Biso   1.000  O
  O98      1.0000 0.75000  0.12050  0.37950  Biso   1.000  O
  O99      1.0000 0.25000  0.37950  0.12050  Biso   1.000  O
  O100     1.0000 0.87950  0.75000  0.25000  Biso   1.000  O
  O101     1.0000 0.62050  0.75000  0.37950  Biso   1.000  O
  O102     1.0000 0.75000  0.37950  0.75000  Biso   1.000  O
  O103     1.0000 0.25000  0.12050  0.25000  Biso   1.000  O
  O104     1.0000 0.87950  0.25000  0.12050  Biso   1.000  O
  O105     1.0000 0.62050  0.37950  0.25000  Biso   1.000  O
  O106     1.0000 0.75000  0.75000  0.12050  Biso   1.000  O
  O107     1.0000 0.25000  0.25000  0.37950  Biso   1.000  O
  O108     1.0000 0.87950  0.12050  0.75000  Biso   1.000  O
  O109     1.0000 0.37950  0.75000  0.25000  Biso   1.000  O
  O110     1.0000 0.25000  0.87950  0.62050  Biso   1.000  O
  O111     1.0000 0.75000  0.62050  0.87950  Biso   1.000  O
  O112     1.0000 0.12050  0.25000  0.75000  Biso   1.000  O
  O113     1.0000 0.37950  0.25000  0.62050  Biso   1.000  O
  O114     1.0000 0.25000  0.62050  0.25000  Biso   1.000  O
  O115     1.0000 0.75000  0.87950  0.75000  Biso   1.000  O
  O116     1.0000 0.12050  0.75000  0.87950  Biso   1.000  O
  O117     1.0000 0.37950  0.62050  0.75000  Biso   1.000  O
  O118     1.0000 0.25000  0.25000  0.87950  Biso   1.000  O
  O119     1.0000 0.75000  0.75000  0.62050  Biso   1.000  O
  O120     1.0000 0.12050  0.87950  0.25000  Biso   1.000  O
