data_image0
_cell_length_a       18.7447
_cell_length_b       18.7447
_cell_length_c       18.7447
_cell_angle_alpha    60
_cell_angle_beta     60
_cell_angle_gamma    60

_symmetry_space_group_name_H-M    P 1
_symmetry_int_tables_number       1

loop_
  _symmetry_equiv_pos_as_xyz
  'x, y, z'

loop_
  _atom_site_label
  _atom_site_occupancy
  _atom_site_fract_x
  _atom_site_fract_y
  _atom_site_fract_z
  _atom_site_thermal_displace_type
  _atom_site_B_iso_or_equiv
  _atom_site_type_symbol
  Ca1      1.0000 0.50000  0.50000  0.50000  Biso   1.000  Ca
  Ca2      1.0000 0.00000  0.00000  0.50000  Biso   1.000  Ca
  Ca3      1.0000 0.00000  0.50000  0.00000  Biso   1.000  Ca
  Ca4      1.0000 0.00000  0.50000  0.50000  Biso   1.000  Ca
  Ca5      1.0000 0.50000  0.50000  0.00000  Biso   1.000  Ca
  Ca6      1.0000 0.00000  0.00000  0.00000  Biso   1.000  Ca
  Ca7      1.0000 0.50000  0.00000  0.50000  Biso   1.000  Ca
  Ca8      1.0000 0.50000  0.00000  0.00000  Biso   1.000  Ca
  Y1       1.0000 0.75000  0.25000  0.25000  Biso   1.000  Y
  Y2       1.0000 0.75000  0.25000  0.75000  Biso   1.000  Y
  Y3       1.0000 0.75000  0.75000  0.25000  Biso   1.000  Y
  Y4       1.0000 0.25000  0.25000  0.25000  Biso   1.000  Y
  Y5       1.0000 0.25000  0.75000  0.75000  Biso   1.000  Y
  Y6       1.0000 0.25000  0.75000  0.25000  Biso   1.000  Y
  Y7       1.0000 0.25000  0.25000  0.75000  Biso   1.000  Y
  Y8       1.0000 0.75000  0.75000  0.75000  Biso   1.000  Y
  H1       1.0000 0.51630  0.41550  0.34530  Biso   1.000  H
  H2       1.0000 0.57570  0.47390  0.29530  Biso   1.000  H
  H3       1.0000 0.91550  0.01630  0.72290  Biso   1.000  H
  H4       1.0000 0.97390  0.07570  0.65510  Biso   1.000  H
  H5       1.0000 0.84530  0.72290  0.01630  Biso   1.000  H
  H6       1.0000 0.79530  0.65510  0.07570  Biso   1.000  H
  H7       1.0000 0.22290  0.34530  0.41550  Biso   1.000  H
  H8       1.0000 0.15510  0.29530  0.47390  Biso   1.000  H
  H9       1.0000 0.51630  0.34530  0.72290  Biso   1.000  H
  H10      1.0000 0.57570  0.29530  0.65510  Biso   1.000  H
  H11      1.0000 0.91550  0.72290  0.34530  Biso   1.000  H
  H12      1.0000 0.97390  0.65510  0.29530  Biso   1.000  H
  H13      1.0000 0.84530  0.01630  0.41550  Biso   1.000  H
  H14      1.0000 0.79530  0.07570  0.47390  Biso   1.000  H
  H15      1.0000 0.22290  0.41550  0.01630  Biso   1.000  H
  H16      1.0000 0.15510  0.47390  0.07570  Biso   1.000  H
  H17      1.0000 0.51630  0.72290  0.41550  Biso   1.000  H
  H18      1.0000 0.57570  0.65510  0.47390  Biso   1.000  H
  H19      1.0000 0.91550  0.34530  0.01630  Biso   1.000  H
  H20      1.0000 0.97390  0.29530  0.07570  Biso   1.000  H
  H21      1.0000 0.84530  0.41550  0.72290  Biso   1.000  H
  H22      1.0000 0.79530  0.47390  0.65510  Biso   1.000  H
  H23      1.0000 0.22290  0.01630  0.34530  Biso   1.000  H
  H24      1.0000 0.15510  0.07570  0.29530  Biso   1.000  H
  H25      1.0000 0.58450  0.48370  0.15470  Biso   1.000  H
  H26      1.0000 0.52610  0.42430  0.20470  Biso   1.000  H
  H27      1.0000 0.98370  0.08450  0.77710  Biso   1.000  H
  H28      1.0000 0.92430  0.02610  0.84490  Biso   1.000  H
  H29      1.0000 0.27710  0.15470  0.48370  Biso   1.000  H
  H30      1.0000 0.34490  0.20470  0.42430  Biso   1.000  H
  H31      1.0000 0.65470  0.77710  0.08450  Biso   1.000  H
  H32      1.0000 0.70470  0.84490  0.02610  Biso   1.000  H
  H33      1.0000 0.65470  0.48370  0.77710  Biso   1.000  H
  H34      1.0000 0.70470  0.42430  0.84490  Biso   1.000  H
  H35      1.0000 0.27710  0.08450  0.15470  Biso   1.000  H
  H36      1.0000 0.34490  0.02610  0.20470  Biso   1.000  H
  H37      1.0000 0.98370  0.15470  0.08450  Biso   1.000  H
  H38      1.0000 0.92430  0.20470  0.02610  Biso   1.000  H
  H39      1.0000 0.58450  0.77710  0.48370  Biso   1.000  H
  H40      1.0000 0.52610  0.84490  0.42430  Biso   1.000  H
  H41      1.0000 0.27710  0.48370  0.08450  Biso   1.000  H
  H42      1.0000 0.34490  0.42430  0.02610  Biso   1.000  H
  H43      1.0000 0.65470  0.08450  0.48370  Biso   1.000  H
  H44      1.0000 0.70470  0.02610  0.42430  Biso   1.000  H
  H45      1.0000 0.58450  0.15470  0.77710  Biso   1.000  H
  H46      1.0000 0.52610  0.20470  0.84490  Biso   1.000  H
  H47      1.0000 0.98370  0.77710  0.15470  Biso   1.000  H
  H48      1.0000 0.92430  0.84490  0.20470  Biso   1.000  H
  H49      1.0000 0.48370  0.58450  0.65470  Biso   1.000  H
  H50      1.0000 0.42430  0.52610  0.70470  Biso   1.000  H
  H51      1.0000 0.08450  0.98370  0.27710  Biso   1.000  H
  H52      1.0000 0.02610  0.92430  0.34490  Biso   1.000  H
  H53      1.0000 0.15470  0.27710  0.98370  Biso   1.000  H
  H54      1.0000 0.20470  0.34490  0.92430  Biso   1.000  H
  H55      1.0000 0.77710  0.65470  0.58450  Biso   1.000  H
  H56      1.0000 0.84490  0.70470  0.52610  Biso   1.000  H
  H57      1.0000 0.48370  0.65470  0.27710  Biso   1.000  H
  H58      1.0000 0.42430  0.70470  0.34490  Biso   1.000  H
  H59      1.0000 0.08450  0.27710  0.65470  Biso   1.000  H
  H60      1.0000 0.02610  0.34490  0.70470  Biso   1.000  H
  H61      1.0000 0.15470  0.98370  0.58450  Biso   1.000  H
  H62      1.0000 0.20470  0.92430  0.52610  Biso   1.000  H
  H63      1.0000 0.77710  0.58450  0.98370  Biso   1.000  H
  H64      1.0000 0.84490  0.52610  0.92430  Biso   1.000  H
  H65      1.0000 0.48370  0.27710  0.58450  Biso   1.000  H
  H66      1.0000 0.42430  0.34490  0.52610  Biso   1.000  H
  H67      1.0000 0.08450  0.65470  0.98370  Biso   1.000  H
  H68      1.0000 0.02610  0.70470  0.92430  Biso   1.000  H
  H69      1.0000 0.15470  0.58450  0.27710  Biso   1.000  H
  H70      1.0000 0.20470  0.52610  0.34490  Biso   1.000  H
  H71      1.0000 0.77710  0.98370  0.65470  Biso   1.000  H
  H72      1.0000 0.84490  0.92430  0.70470  Biso   1.000  H
  H73      1.0000 0.41550  0.51630  0.84530  Biso   1.000  H
  H74      1.0000 0.47390  0.57570  0.79530  Biso   1.000  H
  H75      1.0000 0.01630  0.91550  0.22290  Biso   1.000  H
  H76      1.0000 0.07570  0.97390  0.15510  Biso   1.000  H
  H77      1.0000 0.72290  0.84530  0.51630  Biso   1.000  H
  H78      1.0000 0.65510  0.79530  0.57570  Biso   1.000  H
  H79      1.0000 0.34530  0.22290  0.91550  Biso   1.000  H
  H80      1.0000 0.29530  0.15510  0.97390  Biso   1.000  H
  H81      1.0000 0.34530  0.51630  0.22290  Biso   1.000  H
  H82      1.0000 0.29530  0.57570  0.15510  Biso   1.000  H
  H83      1.0000 0.72290  0.91550  0.84530  Biso   1.000  H
  H84      1.0000 0.65510  0.97390  0.79530  Biso   1.000  H
  H85      1.0000 0.01630  0.84530  0.91550  Biso   1.000  H
  H86      1.0000 0.07570  0.79530  0.97390  Biso   1.000  H
  H87      1.0000 0.41550  0.22290  0.51630  Biso   1.000  H
  H88      1.0000 0.47390  0.15510  0.57570  Biso   1.000  H
  H89      1.0000 0.72290  0.51630  0.91550  Biso   1.000  H
  H90      1.0000 0.65510  0.57570  0.97390  Biso   1.000  H
  H91      1.0000 0.34530  0.91550  0.51630  Biso   1.000  H
  H92      1.0000 0.29530  0.97390  0.57570  Biso   1.000  H
  H93      1.0000 0.41550  0.84530  0.22290  Biso   1.000  H
  H94      1.0000 0.47390  0.79530  0.15510  Biso   1.000  H
  H95      1.0000 0.01630  0.22290  0.84530  Biso   1.000  H
  H96      1.0000 0.07570  0.15510  0.79530  Biso   1.000  H
  C1       1.0000 0.57643  0.41437  0.31837  Biso   1.000  C
  C2       1.0000 0.62093  0.36025  0.38457  Biso   1.000  C
  C3       1.0000 0.91437  0.07643  0.69083  Biso   1.000  C
  C4       1.0000 0.86025  0.12093  0.63425  Biso   1.000  C
  C5       1.0000 0.81837  0.69083  0.07643  Biso   1.000  C
  C6       1.0000 0.88457  0.63425  0.12093  Biso   1.000  C
  C7       1.0000 0.19083  0.31837  0.41437  Biso   1.000  C
  C8       1.0000 0.13425  0.38457  0.36025  Biso   1.000  C
  C9       1.0000 0.57643  0.31837  0.69083  Biso   1.000  C
  C10      1.0000 0.62093  0.38457  0.63425  Biso   1.000  C
  C11      1.0000 0.91437  0.69083  0.31837  Biso   1.000  C
  C12      1.0000 0.86025  0.63425  0.38457  Biso   1.000  C
  C13      1.0000 0.81837  0.07643  0.41437  Biso   1.000  C
  C14      1.0000 0.88457  0.12093  0.36025  Biso   1.000  C
  C15      1.0000 0.19083  0.41437  0.07643  Biso   1.000  C
  C16      1.0000 0.13425  0.36025  0.12093  Biso   1.000  C
  C17      1.0000 0.57643  0.69083  0.41437  Biso   1.000  C
  C18      1.0000 0.62093  0.63425  0.36025  Biso   1.000  C
  C19      1.0000 0.91437  0.31837  0.07643  Biso   1.000  C
  C20      1.0000 0.86025  0.38457  0.12093  Biso   1.000  C
  C21      1.0000 0.81837  0.41437  0.69083  Biso   1.000  C
  C22      1.0000 0.88457  0.36025  0.63425  Biso   1.000  C
  C23      1.0000 0.19083  0.07643  0.31837  Biso   1.000  C
  C24      1.0000 0.13425  0.12093  0.38457  Biso   1.000  C
  C25      1.0000 0.58563  0.42357  0.18163  Biso   1.000  C
  C26      1.0000 0.63975  0.37907  0.11543  Biso   1.000  C
  C27      1.0000 0.92357  0.08563  0.80917  Biso   1.000  C
  C28      1.0000 0.87907  0.13975  0.86575  Biso   1.000  C
  C29      1.0000 0.30917  0.18163  0.42357  Biso   1.000  C
  C30      1.0000 0.36575  0.11543  0.37907  Biso   1.000  C
  C31      1.0000 0.68163  0.80917  0.08563  Biso   1.000  C
  C32      1.0000 0.61543  0.86575  0.13975  Biso   1.000  C
  C33      1.0000 0.68163  0.42357  0.80917  Biso   1.000  C
  C34      1.0000 0.61543  0.37907  0.86575  Biso   1.000  C
  C35      1.0000 0.30917  0.08563  0.18163  Biso   1.000  C
  C36      1.0000 0.36575  0.13975  0.11543  Biso   1.000  C
  C37      1.0000 0.92357  0.18163  0.08563  Biso   1.000  C
  C38      1.0000 0.87907  0.11543  0.13975  Biso   1.000  C
  C39      1.0000 0.58563  0.80917  0.42357  Biso   1.000  C
  C40      1.0000 0.63975  0.86575  0.37907  Biso   1.000  C
  C41      1.0000 0.30917  0.42357  0.08563  Biso   1.000  C
  C42      1.0000 0.36575  0.37907  0.13975  Biso   1.000  C
  C43      1.0000 0.68163  0.08563  0.42357  Biso   1.000  C
  C44      1.0000 0.61543  0.13975  0.37907  Biso   1.000  C
  C45      1.0000 0.58563  0.18163  0.80917  Biso   1.000  C
  C46      1.0000 0.63975  0.11543  0.86575  Biso   1.000  C
  C47      1.0000 0.92357  0.80917  0.18163  Biso   1.000  C
  C48      1.0000 0.87907  0.86575  0.11543  Biso   1.000  C
  C49      1.0000 0.42357  0.58563  0.68163  Biso   1.000  C
  C50      1.0000 0.37907  0.63975  0.61543  Biso   1.000  C
  C51      1.0000 0.08563  0.92357  0.30917  Biso   1.000  C
  C52      1.0000 0.13975  0.87907  0.36575  Biso   1.000  C
  C53      1.0000 0.18163  0.30917  0.92357  Biso   1.000  C
  C54      1.0000 0.11543  0.36575  0.87907  Biso   1.000  C
  C55      1.0000 0.80917  0.68163  0.58563  Biso   1.000  C
  C56      1.0000 0.86575  0.61543  0.63975  Biso   1.000  C
  C57      1.0000 0.42357  0.68163  0.30917  Biso   1.000  C
  C58      1.0000 0.37907  0.61543  0.36575  Biso   1.000  C
  C59      1.0000 0.08563  0.30917  0.68163  Biso   1.000  C
  C60      1.0000 0.13975  0.36575  0.61543  Biso   1.000  C
  C61      1.0000 0.18163  0.92357  0.58563  Biso   1.000  C
  C62      1.0000 0.11543  0.87907  0.63975  Biso   1.000  C
  C63      1.0000 0.80917  0.58563  0.92357  Biso   1.000  C
  C64      1.0000 0.86575  0.63975  0.87907  Biso   1.000  C
  C65      1.0000 0.42357  0.30917  0.58563  Biso   1.000  C
  C66      1.0000 0.37907  0.36575  0.63975  Biso   1.000  C
  C67      1.0000 0.08563  0.68163  0.92357  Biso   1.000  C
  C68      1.0000 0.13975  0.61543  0.87907  Biso   1.000  C
  C69      1.0000 0.18163  0.58563  0.30917  Biso   1.000  C
  C70      1.0000 0.11543  0.63975  0.36575  Biso   1.000  C
  C71      1.0000 0.80917  0.92357  0.68163  Biso   1.000  C
  C72      1.0000 0.86575  0.87907  0.61543  Biso   1.000  C
  C73      1.0000 0.41437  0.57643  0.81837  Biso   1.000  C
  C74      1.0000 0.36025  0.62093  0.88457  Biso   1.000  C
  C75      1.0000 0.07643  0.91437  0.19083  Biso   1.000  C
  C76      1.0000 0.12093  0.86025  0.13425  Biso   1.000  C
  C77      1.0000 0.69083  0.81837  0.57643  Biso   1.000  C
  C78      1.0000 0.63425  0.88457  0.62093  Biso   1.000  C
  C79      1.0000 0.31837  0.19083  0.91437  Biso   1.000  C
  C80      1.0000 0.38457  0.13425  0.86025  Biso   1.000  C
  C81      1.0000 0.31837  0.57643  0.19083  Biso   1.000  C
  C82      1.0000 0.38457  0.62093  0.13425  Biso   1.000  C
  C83      1.0000 0.69083  0.91437  0.81837  Biso   1.000  C
  C84      1.0000 0.63425  0.86025  0.88457  Biso   1.000  C
  C85      1.0000 0.07643  0.81837  0.91437  Biso   1.000  C
  C86      1.0000 0.12093  0.88457  0.86025  Biso   1.000  C
  C87      1.0000 0.41437  0.19083  0.57643  Biso   1.000  C
  C88      1.0000 0.36025  0.13425  0.62093  Biso   1.000  C
  C89      1.0000 0.69083  0.57643  0.91437  Biso   1.000  C
  C90      1.0000 0.63425  0.62093  0.86025  Biso   1.000  C
  C91      1.0000 0.31837  0.91437  0.57643  Biso   1.000  C
  C92      1.0000 0.38457  0.86025  0.62093  Biso   1.000  C
  C93      1.0000 0.41437  0.81837  0.19083  Biso   1.000  C
  C94      1.0000 0.36025  0.88457  0.13425  Biso   1.000  C
  C95      1.0000 0.07643  0.19083  0.81837  Biso   1.000  C
  C96      1.0000 0.12093  0.13425  0.88457  Biso   1.000  C
  O1       1.0000 0.68714  0.29528  0.37182  Biso   1.000  O
  O2       1.0000 0.58944  0.38116  0.45050  Biso   1.000  O
  O3       1.0000 0.79528  0.18714  0.64576  Biso   1.000  O
  O4       1.0000 0.88116  0.08944  0.57890  Biso   1.000  O
  O5       1.0000 0.87182  0.64576  0.18714  Biso   1.000  O
  O6       1.0000 0.95050  0.57890  0.08944  Biso   1.000  O
  O7       1.0000 0.14576  0.37182  0.29528  Biso   1.000  O
  O8       1.0000 0.07890  0.45050  0.38116  Biso   1.000  O
  O9       1.0000 0.68714  0.37182  0.64576  Biso   1.000  O
  O10      1.0000 0.58944  0.45050  0.57890  Biso   1.000  O
  O11      1.0000 0.79528  0.64576  0.37182  Biso   1.000  O
  O12      1.0000 0.88116  0.57890  0.45050  Biso   1.000  O
  O13      1.0000 0.87182  0.18714  0.29528  Biso   1.000  O
  O14      1.0000 0.95050  0.08944  0.38116  Biso   1.000  O
  O15      1.0000 0.14576  0.29528  0.18714  Biso   1.000  O
  O16      1.0000 0.07890  0.38116  0.08944  Biso   1.000  O
  O17      1.0000 0.68714  0.64576  0.29528  Biso   1.000  O
  O18      1.0000 0.58944  0.57890  0.38116  Biso   1.000  O
  O19      1.0000 0.79528  0.37182  0.18714  Biso   1.000  O
  O20      1.0000 0.88116  0.45050  0.08944  Biso   1.000  O
  O21      1.0000 0.87182  0.29528  0.64576  Biso   1.000  O
  O22      1.0000 0.95050  0.38116  0.57890  Biso   1.000  O
  O23      1.0000 0.14576  0.18714  0.37182  Biso   1.000  O
  O24      1.0000 0.07890  0.08944  0.45050  Biso   1.000  O
  O25      1.0000 0.70472  0.31286  0.12818  Biso   1.000  O
  O26      1.0000 0.61884  0.41056  0.04950  Biso   1.000  O
  O27      1.0000 0.81286  0.20472  0.85424  Biso   1.000  O
  O28      1.0000 0.91056  0.11884  0.92110  Biso   1.000  O
  O29      1.0000 0.35424  0.12818  0.31286  Biso   1.000  O
  O30      1.0000 0.42110  0.04950  0.41056  Biso   1.000  O
  O31      1.0000 0.62818  0.85424  0.20472  Biso   1.000  O
  O32      1.0000 0.54950  0.92110  0.11884  Biso   1.000  O
  O33      1.0000 0.62818  0.31286  0.85424  Biso   1.000  O
  O34      1.0000 0.54950  0.41056  0.92110  Biso   1.000  O
  O35      1.0000 0.35424  0.20472  0.12818  Biso   1.000  O
  O36      1.0000 0.42110  0.11884  0.04950  Biso   1.000  O
  O37      1.0000 0.81286  0.12818  0.20472  Biso   1.000  O
  O38      1.0000 0.91056  0.04950  0.11884  Biso   1.000  O
  O39      1.0000 0.70472  0.85424  0.31286  Biso   1.000  O
  O40      1.0000 0.61884  0.92110  0.41056  Biso   1.000  O
  O41      1.0000 0.35424  0.31286  0.20472  Biso   1.000  O
  O42      1.0000 0.42110  0.41056  0.11884  Biso   1.000  O
  O43      1.0000 0.62818  0.20472  0.31286  Biso   1.000  O
  O44      1.0000 0.54950  0.11884  0.41056  Biso   1.000  O
  O45      1.0000 0.70472  0.12818  0.85424  Biso   1.000  O
  O46      1.0000 0.61884  0.04950  0.92110  Biso   1.000  O
  O47      1.0000 0.81286  0.85424  0.12818  Biso   1.000  O
  O48      1.0000 0.91056  0.92110  0.04950  Biso   1.000  O
  O49      1.0000 0.31286  0.70472  0.62818  Biso   1.000  O
  O50      1.0000 0.41056  0.61884  0.54950  Biso   1.000  O
  O51      1.0000 0.20472  0.81286  0.35424  Biso   1.000  O
  O52      1.0000 0.11884  0.91056  0.42110  Biso   1.000  O
  O53      1.0000 0.12818  0.35424  0.81286  Biso   1.000  O
  O54      1.0000 0.04950  0.42110  0.91056  Biso   1.000  O
  O55      1.0000 0.85424  0.62818  0.70472  Biso   1.000  O
  O56      1.0000 0.92110  0.54950  0.61884  Biso   1.000  O
  O57      1.0000 0.31286  0.62818  0.35424  Biso   1.000  O
  O58      1.0000 0.41056  0.54950  0.42110  Biso   1.000  O
  O59      1.0000 0.20472  0.35424  0.62818  Biso   1.000  O
  O60      1.0000 0.11884  0.42110  0.54950  Biso   1.000  O
  O61      1.0000 0.12818  0.81286  0.70472  Biso   1.000  O
  O62      1.0000 0.04950  0.91056  0.61884  Biso   1.000  O
  O63      1.0000 0.85424  0.70472  0.81286  Biso   1.000  O
  O64      1.0000 0.92110  0.61884  0.91056  Biso   1.000  O
  O65      1.0000 0.31286  0.35424  0.70472  Biso   1.000  O
  O66      1.0000 0.41056  0.42110  0.61884  Biso   1.000  O
  O67      1.0000 0.20472  0.62818  0.81286  Biso   1.000  O
  O68      1.0000 0.11884  0.54950  0.91056  Biso   1.000  O
  O69      1.0000 0.12818  0.70472  0.35424  Biso   1.000  O
  O70      1.0000 0.04950  0.61884  0.42110  Biso   1.000  O
  O71      1.0000 0.85424  0.81286  0.62818  Biso   1.000  O
  O72      1.0000 0.92110  0.91056  0.54950  Biso   1.000  O
  O73      1.0000 0.29528  0.68714  0.87182  Biso   1.000  O
  O74      1.0000 0.38116  0.58944  0.95050  Biso   1.000  O
  O75      1.0000 0.18714  0.79528  0.14576  Biso   1.000  O
  O76      1.0000 0.08944  0.88116  0.07890  Biso   1.000  O
  O77      1.0000 0.64576  0.87182  0.68714  Biso   1.000  O
  O78      1.0000 0.57890  0.95050  0.58944  Biso   1.000  O
  O79      1.0000 0.37182  0.14576  0.79528  Biso   1.000  O
  O80      1.0000 0.45050  0.07890  0.88116  Biso   1.000  O
  O81      1.0000 0.37182  0.68714  0.14576  Biso   1.000  O
  O82      1.0000 0.45050  0.58944  0.07890  Biso   1.000  O
  O83      1.0000 0.64576  0.79528  0.87182  Biso   1.000  O
  O84      1.0000 0.57890  0.88116  0.95050  Biso   1.000  O
  O85      1.0000 0.18714  0.87182  0.79528  Biso   1.000  O
  O86      1.0000 0.08944  0.95050  0.88116  Biso   1.000  O
  O87      1.0000 0.29528  0.14576  0.68714  Biso   1.000  O
  O88      1.0000 0.38116  0.07890  0.58944  Biso   1.000  O
  O89      1.0000 0.64576  0.68714  0.79528  Biso   1.000  O
  O90      1.0000 0.57890  0.58944  0.88116  Biso   1.000  O
  O91      1.0000 0.37182  0.79528  0.68714  Biso   1.000  O
  O92      1.0000 0.45050  0.88116  0.58944  Biso   1.000  O
  O93      1.0000 0.29528  0.87182  0.14576  Biso   1.000  O
  O94      1.0000 0.38116  0.95050  0.07890  Biso   1.000  O
  O95      1.0000 0.18714  0.14576  0.87182  Biso   1.000  O
  O96      1.0000 0.08944  0.07890  0.95050  Biso   1.000  O
  O97      1.0000 0.62010  0.37990  0.25000  Biso   1.000  O
  O98      1.0000 0.87990  0.12010  0.75000  Biso   1.000  O
  O99      1.0000 0.75000  0.75000  0.12010  Biso   1.000  O
  O100     1.0000 0.25000  0.25000  0.37990  Biso   1.000  O
  O101     1.0000 0.62010  0.25000  0.75000  Biso   1.000  O
  O102     1.0000 0.87990  0.75000  0.25000  Biso   1.000  O
  O103     1.0000 0.75000  0.12010  0.37990  Biso   1.000  O
  O104     1.0000 0.25000  0.37990  0.12010  Biso   1.000  O
  O105     1.0000 0.62010  0.75000  0.37990  Biso   1.000  O
  O106     1.0000 0.87990  0.25000  0.12010  Biso   1.000  O
  O107     1.0000 0.75000  0.37990  0.75000  Biso   1.000  O
  O108     1.0000 0.25000  0.12010  0.25000  Biso   1.000  O
  O109     1.0000 0.37990  0.62010  0.75000  Biso   1.000  O
  O110     1.0000 0.12010  0.87990  0.25000  Biso   1.000  O
  O111     1.0000 0.25000  0.25000  0.87990  Biso   1.000  O
  O112     1.0000 0.75000  0.75000  0.62010  Biso   1.000  O
  O113     1.0000 0.37990  0.75000  0.25000  Biso   1.000  O
  O114     1.0000 0.12010  0.25000  0.75000  Biso   1.000  O
  O115     1.0000 0.25000  0.87990  0.62010  Biso   1.000  O
  O116     1.0000 0.75000  0.62010  0.87990  Biso   1.000  O
  O117     1.0000 0.37990  0.25000  0.62010  Biso   1.000  O
  O118     1.0000 0.12010  0.75000  0.87990  Biso   1.000  O
  O119     1.0000 0.25000  0.62010  0.25000  Biso   1.000  O
  O120     1.0000 0.75000  0.87990  0.75000  Biso   1.000  O
