data_image0
_cell_length_a       18.8182
_cell_length_b       18.8182
_cell_length_c       18.8182
_cell_angle_alpha    60
_cell_angle_beta     60
_cell_angle_gamma    60

_symmetry_space_group_name_H-M    P 1
_symmetry_int_tables_number       1

loop_
  _symmetry_equiv_pos_as_xyz
  'x, y, z'

loop_
  _atom_site_label
  _atom_site_occupancy
  _atom_site_fract_x
  _atom_site_fract_y
  _atom_site_fract_z
  _atom_site_thermal_displace_type
  _atom_site_B_iso_or_equiv
  _atom_site_type_symbol
  Tb1      1.0000 0.75000  0.25000  0.25000  Biso   1.000  Tb
  Tb2      1.0000 0.75000  0.25000  0.75000  Biso   1.000  Tb
  Tb3      1.0000 0.75000  0.75000  0.25000  Biso   1.000  Tb
  Tb4      1.0000 0.25000  0.25000  0.25000  Biso   1.000  Tb
  Tb5      1.0000 0.25000  0.75000  0.75000  Biso   1.000  Tb
  Tb6      1.0000 0.25000  0.75000  0.25000  Biso   1.000  Tb
  Tb7      1.0000 0.25000  0.25000  0.75000  Biso   1.000  Tb
  Tb8      1.0000 0.75000  0.75000  0.75000  Biso   1.000  Tb
  Ca1      1.0000 0.50000  0.50000  0.50000  Biso   1.000  Ca
  Ca2      1.0000 0.00000  0.00000  0.50000  Biso   1.000  Ca
  Ca3      1.0000 0.00000  0.50000  0.00000  Biso   1.000  Ca
  Ca4      1.0000 0.00000  0.50000  0.50000  Biso   1.000  Ca
  Ca5      1.0000 0.50000  0.50000  0.00000  Biso   1.000  Ca
  Ca6      1.0000 0.00000  0.00000  0.00000  Biso   1.000  Ca
  Ca7      1.0000 0.50000  0.00000  0.50000  Biso   1.000  Ca
  Ca8      1.0000 0.50000  0.00000  0.00000  Biso   1.000  Ca
  H1       1.0000 0.51620  0.41540  0.34520  Biso   1.000  H
  H2       1.0000 0.57500  0.47400  0.29520  Biso   1.000  H
  H3       1.0000 0.91540  0.01620  0.72320  Biso   1.000  H
  H4       1.0000 0.97400  0.07500  0.65580  Biso   1.000  H
  H5       1.0000 0.84520  0.72320  0.01620  Biso   1.000  H
  H6       1.0000 0.79520  0.65580  0.07500  Biso   1.000  H
  H7       1.0000 0.22320  0.34520  0.41540  Biso   1.000  H
  H8       1.0000 0.15580  0.29520  0.47400  Biso   1.000  H
  H9       1.0000 0.51620  0.34520  0.72320  Biso   1.000  H
  H10      1.0000 0.57500  0.29520  0.65580  Biso   1.000  H
  H11      1.0000 0.91540  0.72320  0.34520  Biso   1.000  H
  H12      1.0000 0.97400  0.65580  0.29520  Biso   1.000  H
  H13      1.0000 0.84520  0.01620  0.41540  Biso   1.000  H
  H14      1.0000 0.79520  0.07500  0.47400  Biso   1.000  H
  H15      1.0000 0.22320  0.41540  0.01620  Biso   1.000  H
  H16      1.0000 0.15580  0.47400  0.07500  Biso   1.000  H
  H17      1.0000 0.51620  0.72320  0.41540  Biso   1.000  H
  H18      1.0000 0.57500  0.65580  0.47400  Biso   1.000  H
  H19      1.0000 0.91540  0.34520  0.01620  Biso   1.000  H
  H20      1.0000 0.97400  0.29520  0.07500  Biso   1.000  H
  H21      1.0000 0.84520  0.41540  0.72320  Biso   1.000  H
  H22      1.0000 0.79520  0.47400  0.65580  Biso   1.000  H
  H23      1.0000 0.22320  0.01620  0.34520  Biso   1.000  H
  H24      1.0000 0.15580  0.07500  0.29520  Biso   1.000  H
  H25      1.0000 0.58460  0.48380  0.15480  Biso   1.000  H
  H26      1.0000 0.52600  0.42500  0.20480  Biso   1.000  H
  H27      1.0000 0.98380  0.08460  0.77680  Biso   1.000  H
  H28      1.0000 0.92500  0.02600  0.84420  Biso   1.000  H
  H29      1.0000 0.27680  0.15480  0.48380  Biso   1.000  H
  H30      1.0000 0.34420  0.20480  0.42500  Biso   1.000  H
  H31      1.0000 0.65480  0.77680  0.08460  Biso   1.000  H
  H32      1.0000 0.70480  0.84420  0.02600  Biso   1.000  H
  H33      1.0000 0.65480  0.48380  0.77680  Biso   1.000  H
  H34      1.0000 0.70480  0.42500  0.84420  Biso   1.000  H
  H35      1.0000 0.27680  0.08460  0.15480  Biso   1.000  H
  H36      1.0000 0.34420  0.02600  0.20480  Biso   1.000  H
  H37      1.0000 0.98380  0.15480  0.08460  Biso   1.000  H
  H38      1.0000 0.92500  0.20480  0.02600  Biso   1.000  H
  H39      1.0000 0.58460  0.77680  0.48380  Biso   1.000  H
  H40      1.0000 0.52600  0.84420  0.42500  Biso   1.000  H
  H41      1.0000 0.27680  0.48380  0.08460  Biso   1.000  H
  H42      1.0000 0.34420  0.42500  0.02600  Biso   1.000  H
  H43      1.0000 0.65480  0.08460  0.48380  Biso   1.000  H
  H44      1.0000 0.70480  0.02600  0.42500  Biso   1.000  H
  H45      1.0000 0.58460  0.15480  0.77680  Biso   1.000  H
  H46      1.0000 0.52600  0.20480  0.84420  Biso   1.000  H
  H47      1.0000 0.98380  0.77680  0.15480  Biso   1.000  H
  H48      1.0000 0.92500  0.84420  0.20480  Biso   1.000  H
  H49      1.0000 0.48380  0.58460  0.65480  Biso   1.000  H
  H50      1.0000 0.42500  0.52600  0.70480  Biso   1.000  H
  H51      1.0000 0.08460  0.98380  0.27680  Biso   1.000  H
  H52      1.0000 0.02600  0.92500  0.34420  Biso   1.000  H
  H53      1.0000 0.15480  0.27680  0.98380  Biso   1.000  H
  H54      1.0000 0.20480  0.34420  0.92500  Biso   1.000  H
  H55      1.0000 0.77680  0.65480  0.58460  Biso   1.000  H
  H56      1.0000 0.84420  0.70480  0.52600  Biso   1.000  H
  H57      1.0000 0.48380  0.65480  0.27680  Biso   1.000  H
  H58      1.0000 0.42500  0.70480  0.34420  Biso   1.000  H
  H59      1.0000 0.08460  0.27680  0.65480  Biso   1.000  H
  H60      1.0000 0.02600  0.34420  0.70480  Biso   1.000  H
  H61      1.0000 0.15480  0.98380  0.58460  Biso   1.000  H
  H62      1.0000 0.20480  0.92500  0.52600  Biso   1.000  H
  H63      1.0000 0.77680  0.58460  0.98380  Biso   1.000  H
  H64      1.0000 0.84420  0.52600  0.92500  Biso   1.000  H
  H65      1.0000 0.48380  0.27680  0.58460  Biso   1.000  H
  H66      1.0000 0.42500  0.34420  0.52600  Biso   1.000  H
  H67      1.0000 0.08460  0.65480  0.98380  Biso   1.000  H
  H68      1.0000 0.02600  0.70480  0.92500  Biso   1.000  H
  H69      1.0000 0.15480  0.58460  0.27680  Biso   1.000  H
  H70      1.0000 0.20480  0.52600  0.34420  Biso   1.000  H
  H71      1.0000 0.77680  0.98380  0.65480  Biso   1.000  H
  H72      1.0000 0.84420  0.92500  0.70480  Biso   1.000  H
  H73      1.0000 0.41540  0.51620  0.84520  Biso   1.000  H
  H74      1.0000 0.47400  0.57500  0.79520  Biso   1.000  H
  H75      1.0000 0.01620  0.91540  0.22320  Biso   1.000  H
  H76      1.0000 0.07500  0.97400  0.15580  Biso   1.000  H
  H77      1.0000 0.72320  0.84520  0.51620  Biso   1.000  H
  H78      1.0000 0.65580  0.79520  0.57500  Biso   1.000  H
  H79      1.0000 0.34520  0.22320  0.91540  Biso   1.000  H
  H80      1.0000 0.29520  0.15580  0.97400  Biso   1.000  H
  H81      1.0000 0.34520  0.51620  0.22320  Biso   1.000  H
  H82      1.0000 0.29520  0.57500  0.15580  Biso   1.000  H
  H83      1.0000 0.72320  0.91540  0.84520  Biso   1.000  H
  H84      1.0000 0.65580  0.97400  0.79520  Biso   1.000  H
  H85      1.0000 0.01620  0.84520  0.91540  Biso   1.000  H
  H86      1.0000 0.07500  0.79520  0.97400  Biso   1.000  H
  H87      1.0000 0.41540  0.22320  0.51620  Biso   1.000  H
  H88      1.0000 0.47400  0.15580  0.57500  Biso   1.000  H
  H89      1.0000 0.72320  0.51620  0.91540  Biso   1.000  H
  H90      1.0000 0.65580  0.57500  0.97400  Biso   1.000  H
  H91      1.0000 0.34520  0.91540  0.51620  Biso   1.000  H
  H92      1.0000 0.29520  0.97400  0.57500  Biso   1.000  H
  H93      1.0000 0.41540  0.84520  0.22320  Biso   1.000  H
  H94      1.0000 0.47400  0.79520  0.15580  Biso   1.000  H
  H95      1.0000 0.01620  0.22320  0.84520  Biso   1.000  H
  H96      1.0000 0.07500  0.15580  0.79520  Biso   1.000  H
  C1       1.0000 0.57596  0.41464  0.31822  Biso   1.000  C
  C2       1.0000 0.62040  0.36086  0.38470  Biso   1.000  C
  C3       1.0000 0.91464  0.07596  0.69118  Biso   1.000  C
  C4       1.0000 0.86086  0.12040  0.63404  Biso   1.000  C
  C5       1.0000 0.81822  0.69118  0.07596  Biso   1.000  C
  C6       1.0000 0.88470  0.63404  0.12040  Biso   1.000  C
  C7       1.0000 0.19118  0.31822  0.41464  Biso   1.000  C
  C8       1.0000 0.13404  0.38470  0.36086  Biso   1.000  C
  C9       1.0000 0.57596  0.31822  0.69118  Biso   1.000  C
  C10      1.0000 0.62040  0.38470  0.63404  Biso   1.000  C
  C11      1.0000 0.91464  0.69118  0.31822  Biso   1.000  C
  C12      1.0000 0.86086  0.63404  0.38470  Biso   1.000  C
  C13      1.0000 0.81822  0.07596  0.41464  Biso   1.000  C
  C14      1.0000 0.88470  0.12040  0.36086  Biso   1.000  C
  C15      1.0000 0.19118  0.41464  0.07596  Biso   1.000  C
  C16      1.0000 0.13404  0.36086  0.12040  Biso   1.000  C
  C17      1.0000 0.57596  0.69118  0.41464  Biso   1.000  C
  C18      1.0000 0.62040  0.63404  0.36086  Biso   1.000  C
  C19      1.0000 0.91464  0.31822  0.07596  Biso   1.000  C
  C20      1.0000 0.86086  0.38470  0.12040  Biso   1.000  C
  C21      1.0000 0.81822  0.41464  0.69118  Biso   1.000  C
  C22      1.0000 0.88470  0.36086  0.63404  Biso   1.000  C
  C23      1.0000 0.19118  0.07596  0.31822  Biso   1.000  C
  C24      1.0000 0.13404  0.12040  0.38470  Biso   1.000  C
  C25      1.0000 0.58536  0.42404  0.18178  Biso   1.000  C
  C26      1.0000 0.63914  0.37960  0.11530  Biso   1.000  C
  C27      1.0000 0.92404  0.08536  0.80882  Biso   1.000  C
  C28      1.0000 0.87960  0.13914  0.86596  Biso   1.000  C
  C29      1.0000 0.30882  0.18178  0.42404  Biso   1.000  C
  C30      1.0000 0.36596  0.11530  0.37960  Biso   1.000  C
  C31      1.0000 0.68178  0.80882  0.08536  Biso   1.000  C
  C32      1.0000 0.61530  0.86596  0.13914  Biso   1.000  C
  C33      1.0000 0.68178  0.42404  0.80882  Biso   1.000  C
  C34      1.0000 0.61530  0.37960  0.86596  Biso   1.000  C
  C35      1.0000 0.30882  0.08536  0.18178  Biso   1.000  C
  C36      1.0000 0.36596  0.13914  0.11530  Biso   1.000  C
  C37      1.0000 0.92404  0.18178  0.08536  Biso   1.000  C
  C38      1.0000 0.87960  0.11530  0.13914  Biso   1.000  C
  C39      1.0000 0.58536  0.80882  0.42404  Biso   1.000  C
  C40      1.0000 0.63914  0.86596  0.37960  Biso   1.000  C
  C41      1.0000 0.30882  0.42404  0.08536  Biso   1.000  C
  C42      1.0000 0.36596  0.37960  0.13914  Biso   1.000  C
  C43      1.0000 0.68178  0.08536  0.42404  Biso   1.000  C
  C44      1.0000 0.61530  0.13914  0.37960  Biso   1.000  C
  C45      1.0000 0.58536  0.18178  0.80882  Biso   1.000  C
  C46      1.0000 0.63914  0.11530  0.86596  Biso   1.000  C
  C47      1.0000 0.92404  0.80882  0.18178  Biso   1.000  C
  C48      1.0000 0.87960  0.86596  0.11530  Biso   1.000  C
  C49      1.0000 0.42404  0.58536  0.68178  Biso   1.000  C
  C50      1.0000 0.37960  0.63914  0.61530  Biso   1.000  C
  C51      1.0000 0.08536  0.92404  0.30882  Biso   1.000  C
  C52      1.0000 0.13914  0.87960  0.36596  Biso   1.000  C
  C53      1.0000 0.18178  0.30882  0.92404  Biso   1.000  C
  C54      1.0000 0.11530  0.36596  0.87960  Biso   1.000  C
  C55      1.0000 0.80882  0.68178  0.58536  Biso   1.000  C
  C56      1.0000 0.86596  0.61530  0.63914  Biso   1.000  C
  C57      1.0000 0.42404  0.68178  0.30882  Biso   1.000  C
  C58      1.0000 0.37960  0.61530  0.36596  Biso   1.000  C
  C59      1.0000 0.08536  0.30882  0.68178  Biso   1.000  C
  C60      1.0000 0.13914  0.36596  0.61530  Biso   1.000  C
  C61      1.0000 0.18178  0.92404  0.58536  Biso   1.000  C
  C62      1.0000 0.11530  0.87960  0.63914  Biso   1.000  C
  C63      1.0000 0.80882  0.58536  0.92404  Biso   1.000  C
  C64      1.0000 0.86596  0.63914  0.87960  Biso   1.000  C
  C65      1.0000 0.42404  0.30882  0.58536  Biso   1.000  C
  C66      1.0000 0.37960  0.36596  0.63914  Biso   1.000  C
  C67      1.0000 0.08536  0.68178  0.92404  Biso   1.000  C
  C68      1.0000 0.13914  0.61530  0.87960  Biso   1.000  C
  C69      1.0000 0.18178  0.58536  0.30882  Biso   1.000  C
  C70      1.0000 0.11530  0.63914  0.36596  Biso   1.000  C
  C71      1.0000 0.80882  0.92404  0.68178  Biso   1.000  C
  C72      1.0000 0.86596  0.87960  0.61530  Biso   1.000  C
  C73      1.0000 0.41464  0.57596  0.81822  Biso   1.000  C
  C74      1.0000 0.36086  0.62040  0.88470  Biso   1.000  C
  C75      1.0000 0.07596  0.91464  0.19118  Biso   1.000  C
  C76      1.0000 0.12040  0.86086  0.13404  Biso   1.000  C
  C77      1.0000 0.69118  0.81822  0.57596  Biso   1.000  C
  C78      1.0000 0.63404  0.88470  0.62040  Biso   1.000  C
  C79      1.0000 0.31822  0.19118  0.91464  Biso   1.000  C
  C80      1.0000 0.38470  0.13404  0.86086  Biso   1.000  C
  C81      1.0000 0.31822  0.57596  0.19118  Biso   1.000  C
  C82      1.0000 0.38470  0.62040  0.13404  Biso   1.000  C
  C83      1.0000 0.69118  0.91464  0.81822  Biso   1.000  C
  C84      1.0000 0.63404  0.86086  0.88470  Biso   1.000  C
  C85      1.0000 0.07596  0.81822  0.91464  Biso   1.000  C
  C86      1.0000 0.12040  0.88470  0.86086  Biso   1.000  C
  C87      1.0000 0.41464  0.19118  0.57596  Biso   1.000  C
  C88      1.0000 0.36086  0.13404  0.62040  Biso   1.000  C
  C89      1.0000 0.69118  0.57596  0.91464  Biso   1.000  C
  C90      1.0000 0.63404  0.62040  0.86086  Biso   1.000  C
  C91      1.0000 0.31822  0.91464  0.57596  Biso   1.000  C
  C92      1.0000 0.38470  0.86086  0.62040  Biso   1.000  C
  C93      1.0000 0.41464  0.81822  0.19118  Biso   1.000  C
  C94      1.0000 0.36086  0.88470  0.13404  Biso   1.000  C
  C95      1.0000 0.07596  0.19118  0.81822  Biso   1.000  C
  C96      1.0000 0.12040  0.13404  0.88470  Biso   1.000  C
  O1       1.0000 0.68638  0.29618  0.37230  Biso   1.000  O
  O2       1.0000 0.58905  0.38255  0.44969  Biso   1.000  O
  O3       1.0000 0.79618  0.18638  0.64514  Biso   1.000  O
  O4       1.0000 0.88255  0.08905  0.57871  Biso   1.000  O
  O5       1.0000 0.87230  0.64514  0.18638  Biso   1.000  O
  O6       1.0000 0.94969  0.57871  0.08905  Biso   1.000  O
  O7       1.0000 0.14514  0.37230  0.29618  Biso   1.000  O
  O8       1.0000 0.07871  0.44969  0.38255  Biso   1.000  O
  O9       1.0000 0.68638  0.37230  0.64514  Biso   1.000  O
  O10      1.0000 0.58905  0.44969  0.57871  Biso   1.000  O
  O11      1.0000 0.79618  0.64514  0.37230  Biso   1.000  O
  O12      1.0000 0.88255  0.57871  0.44969  Biso   1.000  O
  O13      1.0000 0.87230  0.18638  0.29618  Biso   1.000  O
  O14      1.0000 0.94969  0.08905  0.38255  Biso   1.000  O
  O15      1.0000 0.14514  0.29618  0.18638  Biso   1.000  O
  O16      1.0000 0.07871  0.38255  0.08905  Biso   1.000  O
  O17      1.0000 0.68638  0.64514  0.29618  Biso   1.000  O
  O18      1.0000 0.58905  0.57871  0.38255  Biso   1.000  O
  O19      1.0000 0.79618  0.37230  0.18638  Biso   1.000  O
  O20      1.0000 0.88255  0.44969  0.08905  Biso   1.000  O
  O21      1.0000 0.87230  0.29618  0.64514  Biso   1.000  O
  O22      1.0000 0.94969  0.38255  0.57871  Biso   1.000  O
  O23      1.0000 0.14514  0.18638  0.37230  Biso   1.000  O
  O24      1.0000 0.07871  0.08905  0.44969  Biso   1.000  O
  O25      1.0000 0.70382  0.31362  0.12770  Biso   1.000  O
  O26      1.0000 0.61745  0.41095  0.05031  Biso   1.000  O
  O27      1.0000 0.81362  0.20382  0.85486  Biso   1.000  O
  O28      1.0000 0.91095  0.11745  0.92129  Biso   1.000  O
  O29      1.0000 0.35486  0.12770  0.31362  Biso   1.000  O
  O30      1.0000 0.42129  0.05031  0.41095  Biso   1.000  O
  O31      1.0000 0.62770  0.85486  0.20382  Biso   1.000  O
  O32      1.0000 0.55031  0.92129  0.11745  Biso   1.000  O
  O33      1.0000 0.62770  0.31362  0.85486  Biso   1.000  O
  O34      1.0000 0.55031  0.41095  0.92129  Biso   1.000  O
  O35      1.0000 0.35486  0.20382  0.12770  Biso   1.000  O
  O36      1.0000 0.42129  0.11745  0.05031  Biso   1.000  O
  O37      1.0000 0.81362  0.12770  0.20382  Biso   1.000  O
  O38      1.0000 0.91095  0.05031  0.11745  Biso   1.000  O
  O39      1.0000 0.70382  0.85486  0.31362  Biso   1.000  O
  O40      1.0000 0.61745  0.92129  0.41095  Biso   1.000  O
  O41      1.0000 0.35486  0.31362  0.20382  Biso   1.000  O
  O42      1.0000 0.42129  0.41095  0.11745  Biso   1.000  O
  O43      1.0000 0.62770  0.20382  0.31362  Biso   1.000  O
  O44      1.0000 0.55031  0.11745  0.41095  Biso   1.000  O
  O45      1.0000 0.70382  0.12770  0.85486  Biso   1.000  O
  O46      1.0000 0.61745  0.05031  0.92129  Biso   1.000  O
  O47      1.0000 0.81362  0.85486  0.12770  Biso   1.000  O
  O48      1.0000 0.91095  0.92129  0.05031  Biso   1.000  O
  O49      1.0000 0.31362  0.70382  0.62770  Biso   1.000  O
  O50      1.0000 0.41095  0.61745  0.55031  Biso   1.000  O
  O51      1.0000 0.20382  0.81362  0.35486  Biso   1.000  O
  O52      1.0000 0.11745  0.91095  0.42129  Biso   1.000  O
  O53      1.0000 0.12770  0.35486  0.81362  Biso   1.000  O
  O54      1.0000 0.05031  0.42129  0.91095  Biso   1.000  O
  O55      1.0000 0.85486  0.62770  0.70382  Biso   1.000  O
  O56      1.0000 0.92129  0.55031  0.61745  Biso   1.000  O
  O57      1.0000 0.31362  0.62770  0.35486  Biso   1.000  O
  O58      1.0000 0.41095  0.55031  0.42129  Biso   1.000  O
  O59      1.0000 0.20382  0.35486  0.62770  Biso   1.000  O
  O60      1.0000 0.11745  0.42129  0.55031  Biso   1.000  O
  O61      1.0000 0.12770  0.81362  0.70382  Biso   1.000  O
  O62      1.0000 0.05031  0.91095  0.61745  Biso   1.000  O
  O63      1.0000 0.85486  0.70382  0.81362  Biso   1.000  O
  O64      1.0000 0.92129  0.61745  0.91095  Biso   1.000  O
  O65      1.0000 0.31362  0.35486  0.70382  Biso   1.000  O
  O66      1.0000 0.41095  0.42129  0.61745  Biso   1.000  O
  O67      1.0000 0.20382  0.62770  0.81362  Biso   1.000  O
  O68      1.0000 0.11745  0.55031  0.91095  Biso   1.000  O
  O69      1.0000 0.12770  0.70382  0.35486  Biso   1.000  O
  O70      1.0000 0.05031  0.61745  0.42129  Biso   1.000  O
  O71      1.0000 0.85486  0.81362  0.62770  Biso   1.000  O
  O72      1.0000 0.92129  0.91095  0.55031  Biso   1.000  O
  O73      1.0000 0.29618  0.68638  0.87230  Biso   1.000  O
  O74      1.0000 0.38255  0.58905  0.94969  Biso   1.000  O
  O75      1.0000 0.18638  0.79618  0.14514  Biso   1.000  O
  O76      1.0000 0.08905  0.88255  0.07871  Biso   1.000  O
  O77      1.0000 0.64514  0.87230  0.68638  Biso   1.000  O
  O78      1.0000 0.57871  0.94969  0.58905  Biso   1.000  O
  O79      1.0000 0.37230  0.14514  0.79618  Biso   1.000  O
  O80      1.0000 0.44969  0.07871  0.88255  Biso   1.000  O
  O81      1.0000 0.37230  0.68638  0.14514  Biso   1.000  O
  O82      1.0000 0.44969  0.58905  0.07871  Biso   1.000  O
  O83      1.0000 0.64514  0.79618  0.87230  Biso   1.000  O
  O84      1.0000 0.57871  0.88255  0.94969  Biso   1.000  O
  O85      1.0000 0.18638  0.87230  0.79618  Biso   1.000  O
  O86      1.0000 0.08905  0.94969  0.88255  Biso   1.000  O
  O87      1.0000 0.29618  0.14514  0.68638  Biso   1.000  O
  O88      1.0000 0.38255  0.07871  0.58905  Biso   1.000  O
  O89      1.0000 0.64514  0.68638  0.79618  Biso   1.000  O
  O90      1.0000 0.57871  0.58905  0.88255  Biso   1.000  O
  O91      1.0000 0.37230  0.79618  0.68638  Biso   1.000  O
  O92      1.0000 0.44969  0.88255  0.58905  Biso   1.000  O
  O93      1.0000 0.29618  0.87230  0.14514  Biso   1.000  O
  O94      1.0000 0.38255  0.94969  0.07871  Biso   1.000  O
  O95      1.0000 0.18638  0.14514  0.87230  Biso   1.000  O
  O96      1.0000 0.08905  0.07871  0.94969  Biso   1.000  O
  O97      1.0000 0.61970  0.38030  0.25000  Biso   1.000  O
  O98      1.0000 0.88030  0.11970  0.75000  Biso   1.000  O
  O99      1.0000 0.75000  0.75000  0.11970  Biso   1.000  O
  O100     1.0000 0.25000  0.25000  0.38030  Biso   1.000  O
  O101     1.0000 0.61970  0.25000  0.75000  Biso   1.000  O
  O102     1.0000 0.88030  0.75000  0.25000  Biso   1.000  O
  O103     1.0000 0.75000  0.11970  0.38030  Biso   1.000  O
  O104     1.0000 0.25000  0.38030  0.11970  Biso   1.000  O
  O105     1.0000 0.61970  0.75000  0.38030  Biso   1.000  O
  O106     1.0000 0.88030  0.25000  0.11970  Biso   1.000  O
  O107     1.0000 0.75000  0.38030  0.75000  Biso   1.000  O
  O108     1.0000 0.25000  0.11970  0.25000  Biso   1.000  O
  O109     1.0000 0.38030  0.61970  0.75000  Biso   1.000  O
  O110     1.0000 0.11970  0.88030  0.25000  Biso   1.000  O
  O111     1.0000 0.25000  0.25000  0.88030  Biso   1.000  O
  O112     1.0000 0.75000  0.75000  0.61970  Biso   1.000  O
  O113     1.0000 0.38030  0.75000  0.25000  Biso   1.000  O
  O114     1.0000 0.11970  0.25000  0.75000  Biso   1.000  O
  O115     1.0000 0.25000  0.88030  0.61970  Biso   1.000  O
  O116     1.0000 0.75000  0.61970  0.88030  Biso   1.000  O
  O117     1.0000 0.38030  0.25000  0.61970  Biso   1.000  O
  O118     1.0000 0.11970  0.75000  0.88030  Biso   1.000  O
  O119     1.0000 0.25000  0.61970  0.25000  Biso   1.000  O
  O120     1.0000 0.75000  0.88030  0.75000  Biso   1.000  O
