data_image0
_cell_length_a       18.625
_cell_length_b       18.625
_cell_length_c       18.625
_cell_angle_alpha    60
_cell_angle_beta     60
_cell_angle_gamma    60

_symmetry_space_group_name_H-M    P 1
_symmetry_int_tables_number       1

loop_
  _symmetry_equiv_pos_as_xyz
  'x, y, z'

loop_
  _atom_site_label
  _atom_site_occupancy
  _atom_site_fract_x
  _atom_site_fract_y
  _atom_site_fract_z
  _atom_site_thermal_displace_type
  _atom_site_B_iso_or_equiv
  _atom_site_type_symbol
  Ca1      1.0000 0.50000  0.50000  0.50000  Biso   1.000  Ca
  Ca2      1.0000 0.00000  0.00000  0.50000  Biso   1.000  Ca
  Ca3      1.0000 0.00000  0.50000  0.00000  Biso   1.000  Ca
  Ca4      1.0000 0.00000  0.50000  0.50000  Biso   1.000  Ca
  Ca5      1.0000 0.50000  0.50000  0.00000  Biso   1.000  Ca
  Ca6      1.0000 0.00000  0.00000  0.00000  Biso   1.000  Ca
  Ca7      1.0000 0.50000  0.00000  0.50000  Biso   1.000  Ca
  Ca8      1.0000 0.50000  0.00000  0.00000  Biso   1.000  Ca
  Lu1      1.0000 0.75000  0.25000  0.25000  Biso   1.000  Lu
  Lu2      1.0000 0.75000  0.25000  0.75000  Biso   1.000  Lu
  Lu3      1.0000 0.75000  0.75000  0.25000  Biso   1.000  Lu
  Lu4      1.0000 0.25000  0.25000  0.25000  Biso   1.000  Lu
  Lu5      1.0000 0.25000  0.75000  0.75000  Biso   1.000  Lu
  Lu6      1.0000 0.25000  0.75000  0.25000  Biso   1.000  Lu
  Lu7      1.0000 0.25000  0.25000  0.75000  Biso   1.000  Lu
  Lu8      1.0000 0.75000  0.75000  0.75000  Biso   1.000  Lu
  H1       1.0000 0.51630  0.41610  0.34470  Biso   1.000  H
  H2       1.0000 0.57740  0.47360  0.29460  Biso   1.000  H
  H3       1.0000 0.91610  0.01630  0.72290  Biso   1.000  H
  H4       1.0000 0.97360  0.07740  0.65440  Biso   1.000  H
  H5       1.0000 0.84470  0.72290  0.01630  Biso   1.000  H
  H6       1.0000 0.79460  0.65440  0.07740  Biso   1.000  H
  H7       1.0000 0.22290  0.34470  0.41610  Biso   1.000  H
  H8       1.0000 0.15440  0.29460  0.47360  Biso   1.000  H
  H9       1.0000 0.51630  0.34470  0.72290  Biso   1.000  H
  H10      1.0000 0.57740  0.29460  0.65440  Biso   1.000  H
  H11      1.0000 0.91610  0.72290  0.34470  Biso   1.000  H
  H12      1.0000 0.97360  0.65440  0.29460  Biso   1.000  H
  H13      1.0000 0.84470  0.01630  0.41610  Biso   1.000  H
  H14      1.0000 0.79460  0.07740  0.47360  Biso   1.000  H
  H15      1.0000 0.22290  0.41610  0.01630  Biso   1.000  H
  H16      1.0000 0.15440  0.47360  0.07740  Biso   1.000  H
  H17      1.0000 0.51630  0.72290  0.41610  Biso   1.000  H
  H18      1.0000 0.57740  0.65440  0.47360  Biso   1.000  H
  H19      1.0000 0.91610  0.34470  0.01630  Biso   1.000  H
  H20      1.0000 0.97360  0.29460  0.07740  Biso   1.000  H
  H21      1.0000 0.84470  0.41610  0.72290  Biso   1.000  H
  H22      1.0000 0.79460  0.47360  0.65440  Biso   1.000  H
  H23      1.0000 0.22290  0.01630  0.34470  Biso   1.000  H
  H24      1.0000 0.15440  0.07740  0.29460  Biso   1.000  H
  H25      1.0000 0.58390  0.48370  0.15530  Biso   1.000  H
  H26      1.0000 0.52640  0.42260  0.20540  Biso   1.000  H
  H27      1.0000 0.98370  0.08390  0.77710  Biso   1.000  H
  H28      1.0000 0.92260  0.02640  0.84560  Biso   1.000  H
  H29      1.0000 0.27710  0.15530  0.48370  Biso   1.000  H
  H30      1.0000 0.34560  0.20540  0.42260  Biso   1.000  H
  H31      1.0000 0.65530  0.77710  0.08390  Biso   1.000  H
  H32      1.0000 0.70540  0.84560  0.02640  Biso   1.000  H
  H33      1.0000 0.65530  0.48370  0.77710  Biso   1.000  H
  H34      1.0000 0.70540  0.42260  0.84560  Biso   1.000  H
  H35      1.0000 0.27710  0.08390  0.15530  Biso   1.000  H
  H36      1.0000 0.34560  0.02640  0.20540  Biso   1.000  H
  H37      1.0000 0.98370  0.15530  0.08390  Biso   1.000  H
  H38      1.0000 0.92260  0.20540  0.02640  Biso   1.000  H
  H39      1.0000 0.58390  0.77710  0.48370  Biso   1.000  H
  H40      1.0000 0.52640  0.84560  0.42260  Biso   1.000  H
  H41      1.0000 0.27710  0.48370  0.08390  Biso   1.000  H
  H42      1.0000 0.34560  0.42260  0.02640  Biso   1.000  H
  H43      1.0000 0.65530  0.08390  0.48370  Biso   1.000  H
  H44      1.0000 0.70540  0.02640  0.42260  Biso   1.000  H
  H45      1.0000 0.58390  0.15530  0.77710  Biso   1.000  H
  H46      1.0000 0.52640  0.20540  0.84560  Biso   1.000  H
  H47      1.0000 0.98370  0.77710  0.15530  Biso   1.000  H
  H48      1.0000 0.92260  0.84560  0.20540  Biso   1.000  H
  H49      1.0000 0.48370  0.58390  0.65530  Biso   1.000  H
  H50      1.0000 0.42260  0.52640  0.70540  Biso   1.000  H
  H51      1.0000 0.08390  0.98370  0.27710  Biso   1.000  H
  H52      1.0000 0.02640  0.92260  0.34560  Biso   1.000  H
  H53      1.0000 0.15530  0.27710  0.98370  Biso   1.000  H
  H54      1.0000 0.20540  0.34560  0.92260  Biso   1.000  H
  H55      1.0000 0.77710  0.65530  0.58390  Biso   1.000  H
  H56      1.0000 0.84560  0.70540  0.52640  Biso   1.000  H
  H57      1.0000 0.48370  0.65530  0.27710  Biso   1.000  H
  H58      1.0000 0.42260  0.70540  0.34560  Biso   1.000  H
  H59      1.0000 0.08390  0.27710  0.65530  Biso   1.000  H
  H60      1.0000 0.02640  0.34560  0.70540  Biso   1.000  H
  H61      1.0000 0.15530  0.98370  0.58390  Biso   1.000  H
  H62      1.0000 0.20540  0.92260  0.52640  Biso   1.000  H
  H63      1.0000 0.77710  0.58390  0.98370  Biso   1.000  H
  H64      1.0000 0.84560  0.52640  0.92260  Biso   1.000  H
  H65      1.0000 0.48370  0.27710  0.58390  Biso   1.000  H
  H66      1.0000 0.42260  0.34560  0.52640  Biso   1.000  H
  H67      1.0000 0.08390  0.65530  0.98370  Biso   1.000  H
  H68      1.0000 0.02640  0.70540  0.92260  Biso   1.000  H
  H69      1.0000 0.15530  0.58390  0.27710  Biso   1.000  H
  H70      1.0000 0.20540  0.52640  0.34560  Biso   1.000  H
  H71      1.0000 0.77710  0.98370  0.65530  Biso   1.000  H
  H72      1.0000 0.84560  0.92260  0.70540  Biso   1.000  H
  H73      1.0000 0.41610  0.51630  0.84470  Biso   1.000  H
  H74      1.0000 0.47360  0.57740  0.79460  Biso   1.000  H
  H75      1.0000 0.01630  0.91610  0.22290  Biso   1.000  H
  H76      1.0000 0.07740  0.97360  0.15440  Biso   1.000  H
  H77      1.0000 0.72290  0.84470  0.51630  Biso   1.000  H
  H78      1.0000 0.65440  0.79460  0.57740  Biso   1.000  H
  H79      1.0000 0.34470  0.22290  0.91610  Biso   1.000  H
  H80      1.0000 0.29460  0.15440  0.97360  Biso   1.000  H
  H81      1.0000 0.34470  0.51630  0.22290  Biso   1.000  H
  H82      1.0000 0.29460  0.57740  0.15440  Biso   1.000  H
  H83      1.0000 0.72290  0.91610  0.84470  Biso   1.000  H
  H84      1.0000 0.65440  0.97360  0.79460  Biso   1.000  H
  H85      1.0000 0.01630  0.84470  0.91610  Biso   1.000  H
  H86      1.0000 0.07740  0.79460  0.97360  Biso   1.000  H
  H87      1.0000 0.41610  0.22290  0.51630  Biso   1.000  H
  H88      1.0000 0.47360  0.15440  0.57740  Biso   1.000  H
  H89      1.0000 0.72290  0.51630  0.91610  Biso   1.000  H
  H90      1.0000 0.65440  0.57740  0.97360  Biso   1.000  H
  H91      1.0000 0.34470  0.91610  0.51630  Biso   1.000  H
  H92      1.0000 0.29460  0.97360  0.57740  Biso   1.000  H
  H93      1.0000 0.41610  0.84470  0.22290  Biso   1.000  H
  H94      1.0000 0.47360  0.79460  0.15440  Biso   1.000  H
  H95      1.0000 0.01630  0.22290  0.84470  Biso   1.000  H
  H96      1.0000 0.07740  0.15440  0.79460  Biso   1.000  H
  C1       1.0000 0.57704  0.41416  0.31792  Biso   1.000  C
  C2       1.0000 0.62192  0.35828  0.38552  Biso   1.000  C
  C3       1.0000 0.91416  0.07704  0.69088  Biso   1.000  C
  C4       1.0000 0.85828  0.12192  0.63428  Biso   1.000  C
  C5       1.0000 0.81792  0.69088  0.07704  Biso   1.000  C
  C6       1.0000 0.88552  0.63428  0.12192  Biso   1.000  C
  C7       1.0000 0.19088  0.31792  0.41416  Biso   1.000  C
  C8       1.0000 0.13428  0.38552  0.35828  Biso   1.000  C
  C9       1.0000 0.57704  0.31792  0.69088  Biso   1.000  C
  C10      1.0000 0.62192  0.38552  0.63428  Biso   1.000  C
  C11      1.0000 0.91416  0.69088  0.31792  Biso   1.000  C
  C12      1.0000 0.85828  0.63428  0.38552  Biso   1.000  C
  C13      1.0000 0.81792  0.07704  0.41416  Biso   1.000  C
  C14      1.0000 0.88552  0.12192  0.35828  Biso   1.000  C
  C15      1.0000 0.19088  0.41416  0.07704  Biso   1.000  C
  C16      1.0000 0.13428  0.35828  0.12192  Biso   1.000  C
  C17      1.0000 0.57704  0.69088  0.41416  Biso   1.000  C
  C18      1.0000 0.62192  0.63428  0.35828  Biso   1.000  C
  C19      1.0000 0.91416  0.31792  0.07704  Biso   1.000  C
  C20      1.0000 0.85828  0.38552  0.12192  Biso   1.000  C
  C21      1.0000 0.81792  0.41416  0.69088  Biso   1.000  C
  C22      1.0000 0.88552  0.35828  0.63428  Biso   1.000  C
  C23      1.0000 0.19088  0.07704  0.31792  Biso   1.000  C
  C24      1.0000 0.13428  0.12192  0.38552  Biso   1.000  C
  C25      1.0000 0.58584  0.42296  0.18208  Biso   1.000  C
  C26      1.0000 0.64172  0.37808  0.11448  Biso   1.000  C
  C27      1.0000 0.92296  0.08584  0.80912  Biso   1.000  C
  C28      1.0000 0.87808  0.14172  0.86572  Biso   1.000  C
  C29      1.0000 0.30912  0.18208  0.42296  Biso   1.000  C
  C30      1.0000 0.36572  0.11448  0.37808  Biso   1.000  C
  C31      1.0000 0.68208  0.80912  0.08584  Biso   1.000  C
  C32      1.0000 0.61448  0.86572  0.14172  Biso   1.000  C
  C33      1.0000 0.68208  0.42296  0.80912  Biso   1.000  C
  C34      1.0000 0.61448  0.37808  0.86572  Biso   1.000  C
  C35      1.0000 0.30912  0.08584  0.18208  Biso   1.000  C
  C36      1.0000 0.36572  0.14172  0.11448  Biso   1.000  C
  C37      1.0000 0.92296  0.18208  0.08584  Biso   1.000  C
  C38      1.0000 0.87808  0.11448  0.14172  Biso   1.000  C
  C39      1.0000 0.58584  0.80912  0.42296  Biso   1.000  C
  C40      1.0000 0.64172  0.86572  0.37808  Biso   1.000  C
  C41      1.0000 0.30912  0.42296  0.08584  Biso   1.000  C
  C42      1.0000 0.36572  0.37808  0.14172  Biso   1.000  C
  C43      1.0000 0.68208  0.08584  0.42296  Biso   1.000  C
  C44      1.0000 0.61448  0.14172  0.37808  Biso   1.000  C
  C45      1.0000 0.58584  0.18208  0.80912  Biso   1.000  C
  C46      1.0000 0.64172  0.11448  0.86572  Biso   1.000  C
  C47      1.0000 0.92296  0.80912  0.18208  Biso   1.000  C
  C48      1.0000 0.87808  0.86572  0.11448  Biso   1.000  C
  C49      1.0000 0.42296  0.58584  0.68208  Biso   1.000  C
  C50      1.0000 0.37808  0.64172  0.61448  Biso   1.000  C
  C51      1.0000 0.08584  0.92296  0.30912  Biso   1.000  C
  C52      1.0000 0.14172  0.87808  0.36572  Biso   1.000  C
  C53      1.0000 0.18208  0.30912  0.92296  Biso   1.000  C
  C54      1.0000 0.11448  0.36572  0.87808  Biso   1.000  C
  C55      1.0000 0.80912  0.68208  0.58584  Biso   1.000  C
  C56      1.0000 0.86572  0.61448  0.64172  Biso   1.000  C
  C57      1.0000 0.42296  0.68208  0.30912  Biso   1.000  C
  C58      1.0000 0.37808  0.61448  0.36572  Biso   1.000  C
  C59      1.0000 0.08584  0.30912  0.68208  Biso   1.000  C
  C60      1.0000 0.14172  0.36572  0.61448  Biso   1.000  C
  C61      1.0000 0.18208  0.92296  0.58584  Biso   1.000  C
  C62      1.0000 0.11448  0.87808  0.64172  Biso   1.000  C
  C63      1.0000 0.80912  0.58584  0.92296  Biso   1.000  C
  C64      1.0000 0.86572  0.64172  0.87808  Biso   1.000  C
  C65      1.0000 0.42296  0.30912  0.58584  Biso   1.000  C
  C66      1.0000 0.37808  0.36572  0.64172  Biso   1.000  C
  C67      1.0000 0.08584  0.68208  0.92296  Biso   1.000  C
  C68      1.0000 0.14172  0.61448  0.87808  Biso   1.000  C
  C69      1.0000 0.18208  0.58584  0.30912  Biso   1.000  C
  C70      1.0000 0.11448  0.64172  0.36572  Biso   1.000  C
  C71      1.0000 0.80912  0.92296  0.68208  Biso   1.000  C
  C72      1.0000 0.86572  0.87808  0.61448  Biso   1.000  C
  C73      1.0000 0.41416  0.57704  0.81792  Biso   1.000  C
  C74      1.0000 0.35828  0.62192  0.88552  Biso   1.000  C
  C75      1.0000 0.07704  0.91416  0.19088  Biso   1.000  C
  C76      1.0000 0.12192  0.85828  0.13428  Biso   1.000  C
  C77      1.0000 0.69088  0.81792  0.57704  Biso   1.000  C
  C78      1.0000 0.63428  0.88552  0.62192  Biso   1.000  C
  C79      1.0000 0.31792  0.19088  0.91416  Biso   1.000  C
  C80      1.0000 0.38552  0.13428  0.85828  Biso   1.000  C
  C81      1.0000 0.31792  0.57704  0.19088  Biso   1.000  C
  C82      1.0000 0.38552  0.62192  0.13428  Biso   1.000  C
  C83      1.0000 0.69088  0.91416  0.81792  Biso   1.000  C
  C84      1.0000 0.63428  0.85828  0.88552  Biso   1.000  C
  C85      1.0000 0.07704  0.81792  0.91416  Biso   1.000  C
  C86      1.0000 0.12192  0.88552  0.85828  Biso   1.000  C
  C87      1.0000 0.41416  0.19088  0.57704  Biso   1.000  C
  C88      1.0000 0.35828  0.13428  0.62192  Biso   1.000  C
  C89      1.0000 0.69088  0.57704  0.91416  Biso   1.000  C
  C90      1.0000 0.63428  0.62192  0.85828  Biso   1.000  C
  C91      1.0000 0.31792  0.91416  0.57704  Biso   1.000  C
  C92      1.0000 0.38552  0.85828  0.62192  Biso   1.000  C
  C93      1.0000 0.41416  0.81792  0.19088  Biso   1.000  C
  C94      1.0000 0.35828  0.88552  0.13428  Biso   1.000  C
  C95      1.0000 0.07704  0.19088  0.81792  Biso   1.000  C
  C96      1.0000 0.12192  0.13428  0.88552  Biso   1.000  C
  O1       1.0000 0.68872  0.29362  0.37114  Biso   1.000  O
  O2       1.0000 0.59087  0.37923  0.45171  Biso   1.000  O
  O3       1.0000 0.79362  0.18872  0.64652  Biso   1.000  O
  O4       1.0000 0.87923  0.09087  0.57819  Biso   1.000  O
  O5       1.0000 0.87114  0.64652  0.18872  Biso   1.000  O
  O6       1.0000 0.95171  0.57819  0.09087  Biso   1.000  O
  O7       1.0000 0.14652  0.37114  0.29362  Biso   1.000  O
  O8       1.0000 0.07819  0.45171  0.37923  Biso   1.000  O
  O9       1.0000 0.68872  0.37114  0.64652  Biso   1.000  O
  O10      1.0000 0.59087  0.45171  0.57819  Biso   1.000  O
  O11      1.0000 0.79362  0.64652  0.37114  Biso   1.000  O
  O12      1.0000 0.87923  0.57819  0.45171  Biso   1.000  O
  O13      1.0000 0.87114  0.18872  0.29362  Biso   1.000  O
  O14      1.0000 0.95171  0.09087  0.37923  Biso   1.000  O
  O15      1.0000 0.14652  0.29362  0.18872  Biso   1.000  O
  O16      1.0000 0.07819  0.37923  0.09087  Biso   1.000  O
  O17      1.0000 0.68872  0.64652  0.29362  Biso   1.000  O
  O18      1.0000 0.59087  0.57819  0.37923  Biso   1.000  O
  O19      1.0000 0.79362  0.37114  0.18872  Biso   1.000  O
  O20      1.0000 0.87923  0.45171  0.09087  Biso   1.000  O
  O21      1.0000 0.87114  0.29362  0.64652  Biso   1.000  O
  O22      1.0000 0.95171  0.37923  0.57819  Biso   1.000  O
  O23      1.0000 0.14652  0.18872  0.37114  Biso   1.000  O
  O24      1.0000 0.07819  0.09087  0.45171  Biso   1.000  O
  O25      1.0000 0.70638  0.31128  0.12886  Biso   1.000  O
  O26      1.0000 0.62077  0.40913  0.04829  Biso   1.000  O
  O27      1.0000 0.81128  0.20638  0.85348  Biso   1.000  O
  O28      1.0000 0.90913  0.12077  0.92181  Biso   1.000  O
  O29      1.0000 0.35348  0.12886  0.31128  Biso   1.000  O
  O30      1.0000 0.42181  0.04829  0.40913  Biso   1.000  O
  O31      1.0000 0.62886  0.85348  0.20638  Biso   1.000  O
  O32      1.0000 0.54829  0.92181  0.12077  Biso   1.000  O
  O33      1.0000 0.62886  0.31128  0.85348  Biso   1.000  O
  O34      1.0000 0.54829  0.40913  0.92181  Biso   1.000  O
  O35      1.0000 0.35348  0.20638  0.12886  Biso   1.000  O
  O36      1.0000 0.42181  0.12077  0.04829  Biso   1.000  O
  O37      1.0000 0.81128  0.12886  0.20638  Biso   1.000  O
  O38      1.0000 0.90913  0.04829  0.12077  Biso   1.000  O
  O39      1.0000 0.70638  0.85348  0.31128  Biso   1.000  O
  O40      1.0000 0.62077  0.92181  0.40913  Biso   1.000  O
  O41      1.0000 0.35348  0.31128  0.20638  Biso   1.000  O
  O42      1.0000 0.42181  0.40913  0.12077  Biso   1.000  O
  O43      1.0000 0.62886  0.20638  0.31128  Biso   1.000  O
  O44      1.0000 0.54829  0.12077  0.40913  Biso   1.000  O
  O45      1.0000 0.70638  0.12886  0.85348  Biso   1.000  O
  O46      1.0000 0.62077  0.04829  0.92181  Biso   1.000  O
  O47      1.0000 0.81128  0.85348  0.12886  Biso   1.000  O
  O48      1.0000 0.90913  0.92181  0.04829  Biso   1.000  O
  O49      1.0000 0.31128  0.70638  0.62886  Biso   1.000  O
  O50      1.0000 0.40913  0.62077  0.54829  Biso   1.000  O
  O51      1.0000 0.20638  0.81128  0.35348  Biso   1.000  O
  O52      1.0000 0.12077  0.90913  0.42181  Biso   1.000  O
  O53      1.0000 0.12886  0.35348  0.81128  Biso   1.000  O
  O54      1.0000 0.04829  0.42181  0.90913  Biso   1.000  O
  O55      1.0000 0.85348  0.62886  0.70638  Biso   1.000  O
  O56      1.0000 0.92181  0.54829  0.62077  Biso   1.000  O
  O57      1.0000 0.31128  0.62886  0.35348  Biso   1.000  O
  O58      1.0000 0.40913  0.54829  0.42181  Biso   1.000  O
  O59      1.0000 0.20638  0.35348  0.62886  Biso   1.000  O
  O60      1.0000 0.12077  0.42181  0.54829  Biso   1.000  O
  O61      1.0000 0.12886  0.81128  0.70638  Biso   1.000  O
  O62      1.0000 0.04829  0.90913  0.62077  Biso   1.000  O
  O63      1.0000 0.85348  0.70638  0.81128  Biso   1.000  O
  O64      1.0000 0.92181  0.62077  0.90913  Biso   1.000  O
  O65      1.0000 0.31128  0.35348  0.70638  Biso   1.000  O
  O66      1.0000 0.40913  0.42181  0.62077  Biso   1.000  O
  O67      1.0000 0.20638  0.62886  0.81128  Biso   1.000  O
  O68      1.0000 0.12077  0.54829  0.90913  Biso   1.000  O
  O69      1.0000 0.12886  0.70638  0.35348  Biso   1.000  O
  O70      1.0000 0.04829  0.62077  0.42181  Biso   1.000  O
  O71      1.0000 0.85348  0.81128  0.62886  Biso   1.000  O
  O72      1.0000 0.92181  0.90913  0.54829  Biso   1.000  O
  O73      1.0000 0.29362  0.68872  0.87114  Biso   1.000  O
  O74      1.0000 0.37923  0.59087  0.95171  Biso   1.000  O
  O75      1.0000 0.18872  0.79362  0.14652  Biso   1.000  O
  O76      1.0000 0.09087  0.87923  0.07819  Biso   1.000  O
  O77      1.0000 0.64652  0.87114  0.68872  Biso   1.000  O
  O78      1.0000 0.57819  0.95171  0.59087  Biso   1.000  O
  O79      1.0000 0.37114  0.14652  0.79362  Biso   1.000  O
  O80      1.0000 0.45171  0.07819  0.87923  Biso   1.000  O
  O81      1.0000 0.37114  0.68872  0.14652  Biso   1.000  O
  O82      1.0000 0.45171  0.59087  0.07819  Biso   1.000  O
  O83      1.0000 0.64652  0.79362  0.87114  Biso   1.000  O
  O84      1.0000 0.57819  0.87923  0.95171  Biso   1.000  O
  O85      1.0000 0.18872  0.87114  0.79362  Biso   1.000  O
  O86      1.0000 0.09087  0.95171  0.87923  Biso   1.000  O
  O87      1.0000 0.29362  0.14652  0.68872  Biso   1.000  O
  O88      1.0000 0.37923  0.07819  0.59087  Biso   1.000  O
  O89      1.0000 0.64652  0.68872  0.79362  Biso   1.000  O
  O90      1.0000 0.57819  0.59087  0.87923  Biso   1.000  O
  O91      1.0000 0.37114  0.79362  0.68872  Biso   1.000  O
  O92      1.0000 0.45171  0.87923  0.59087  Biso   1.000  O
  O93      1.0000 0.29362  0.87114  0.14652  Biso   1.000  O
  O94      1.0000 0.37923  0.95171  0.07819  Biso   1.000  O
  O95      1.0000 0.18872  0.14652  0.87114  Biso   1.000  O
  O96      1.0000 0.09087  0.07819  0.95171  Biso   1.000  O
  O97      1.0000 0.62074  0.37926  0.25000  Biso   1.000  O
  O98      1.0000 0.87926  0.12074  0.75000  Biso   1.000  O
  O99      1.0000 0.75000  0.75000  0.12074  Biso   1.000  O
  O100     1.0000 0.25000  0.25000  0.37926  Biso   1.000  O
  O101     1.0000 0.62074  0.25000  0.75000  Biso   1.000  O
  O102     1.0000 0.87926  0.75000  0.25000  Biso   1.000  O
  O103     1.0000 0.75000  0.12074  0.37926  Biso   1.000  O
  O104     1.0000 0.25000  0.37926  0.12074  Biso   1.000  O
  O105     1.0000 0.62074  0.75000  0.37926  Biso   1.000  O
  O106     1.0000 0.87926  0.25000  0.12074  Biso   1.000  O
  O107     1.0000 0.75000  0.37926  0.75000  Biso   1.000  O
  O108     1.0000 0.25000  0.12074  0.25000  Biso   1.000  O
  O109     1.0000 0.37926  0.62074  0.75000  Biso   1.000  O
  O110     1.0000 0.12074  0.87926  0.25000  Biso   1.000  O
  O111     1.0000 0.25000  0.25000  0.87926  Biso   1.000  O
  O112     1.0000 0.75000  0.75000  0.62074  Biso   1.000  O
  O113     1.0000 0.37926  0.75000  0.25000  Biso   1.000  O
  O114     1.0000 0.12074  0.25000  0.75000  Biso   1.000  O
  O115     1.0000 0.25000  0.87926  0.62074  Biso   1.000  O
  O116     1.0000 0.75000  0.62074  0.87926  Biso   1.000  O
  O117     1.0000 0.37926  0.25000  0.62074  Biso   1.000  O
  O118     1.0000 0.12074  0.75000  0.87926  Biso   1.000  O
  O119     1.0000 0.25000  0.62074  0.25000  Biso   1.000  O
  O120     1.0000 0.75000  0.87926  0.75000  Biso   1.000  O
