data_image0
_cell_length_a       13.047
_cell_length_b       11.6893
_cell_length_c       7.8244
_cell_angle_alpha    90
_cell_angle_beta     109.954
_cell_angle_gamma    90

_symmetry_space_group_name_H-M    "P 1"
_symmetry_int_tables_number       1

loop_
  _symmetry_equiv_pos_as_xyz
  'x, y, z'

loop_
  _atom_site_label
  _atom_site_occupancy
  _atom_site_fract_x
  _atom_site_fract_y
  _atom_site_fract_z
  _atom_site_thermal_displace_type
  _atom_site_B_iso_or_equiv
  _atom_site_type_symbol
  C1       1.0000 0.13570  0.86620  0.95040  Biso   1.000  C
  O1       1.0000 0.13110  0.90150  0.79670  Biso   1.000  O
  O2       1.0000 0.07290  0.91100  0.02700  Biso   1.000  O
  C2       1.0000 0.21640  0.77580  0.05250  Biso   1.000  C
  H1       1.0000 0.17680  0.71490  0.08690  Biso   1.000  H
  H2       1.0000 0.26560  0.80950  0.16360  Biso   1.000  H
  O3       1.0000 0.84030  0.13030  0.53130  Biso   1.000  O
  H3       1.0000 0.04700  0.29800  0.81500  Biso   1.000  H
  H4       1.0000 0.83100  0.12600  0.42300  Biso   1.000  H
  H5       1.0000 0.78000  0.11600  0.53200  Biso   1.000  H
  C3       1.0000 0.63570  0.36620  0.95040  Biso   1.000  C
  O4       1.0000 0.63110  0.40150  0.79670  Biso   1.000  O
  O5       1.0000 0.57290  0.41100  0.02700  Biso   1.000  O
  C4       1.0000 0.71640  0.27580  0.05250  Biso   1.000  C
  H6       1.0000 0.67680  0.21490  0.08690  Biso   1.000  H
  H7       1.0000 0.76560  0.30950  0.16360  Biso   1.000  H
  O6       1.0000 0.34030  0.63030  0.53130  Biso   1.000  O
  H8       1.0000 0.54700  0.79800  0.81500  Biso   1.000  H
  H9       1.0000 0.33100  0.62600  0.42300  Biso   1.000  H
  H10      1.0000 0.28000  0.61600  0.53200  Biso   1.000  H
  C5       1.0000 0.86430  0.86620  0.54960  Biso   1.000  C
  O7       1.0000 0.86890  0.90150  0.70330  Biso   1.000  O
  O8       1.0000 0.92710  0.91100  0.47300  Biso   1.000  O
  C6       1.0000 0.78360  0.77580  0.44750  Biso   1.000  C
  H11      1.0000 0.82320  0.71490  0.41310  Biso   1.000  H
  H12      1.0000 0.73440  0.80950  0.33640  Biso   1.000  H
  O9       1.0000 0.15970  0.13030  0.96870  Biso   1.000  O
  H13      1.0000 0.95300  0.29800  0.68500  Biso   1.000  H
  H14      1.0000 0.16900  0.12600  0.07700  Biso   1.000  H
  H15      1.0000 0.22000  0.11600  0.96800  Biso   1.000  H
  C7       1.0000 0.36430  0.36620  0.54960  Biso   1.000  C
  O10      1.0000 0.36890  0.40150  0.70330  Biso   1.000  O
  O11      1.0000 0.42710  0.41100  0.47300  Biso   1.000  O
  C8       1.0000 0.28360  0.27580  0.44750  Biso   1.000  C
  H16      1.0000 0.32320  0.21490  0.41310  Biso   1.000  H
  H17      1.0000 0.23440  0.30950  0.33640  Biso   1.000  H
  O12      1.0000 0.65970  0.63030  0.96870  Biso   1.000  O
  H18      1.0000 0.45300  0.79800  0.68500  Biso   1.000  H
  H19      1.0000 0.66900  0.62600  0.07700  Biso   1.000  H
  H20      1.0000 0.72000  0.61600  0.96800  Biso   1.000  H
  C9       1.0000 0.86430  0.13380  0.04960  Biso   1.000  C
  O13      1.0000 0.86890  0.09850  0.20330  Biso   1.000  O
  O14      1.0000 0.92710  0.08900  0.97300  Biso   1.000  O
  C10      1.0000 0.78360  0.22420  0.94750  Biso   1.000  C
  H21      1.0000 0.82320  0.28510  0.91310  Biso   1.000  H
  H22      1.0000 0.73440  0.19050  0.83640  Biso   1.000  H
  O15      1.0000 0.15970  0.86970  0.46870  Biso   1.000  O
  H23      1.0000 0.95300  0.70200  0.18500  Biso   1.000  H
  H24      1.0000 0.16900  0.87400  0.57700  Biso   1.000  H
  H25      1.0000 0.22000  0.88400  0.46800  Biso   1.000  H
  C11      1.0000 0.36430  0.63380  0.04960  Biso   1.000  C
  O16      1.0000 0.36890  0.59850  0.20330  Biso   1.000  O
  O17      1.0000 0.42710  0.58900  0.97300  Biso   1.000  O
  C12      1.0000 0.28360  0.72420  0.94750  Biso   1.000  C
  H26      1.0000 0.32320  0.78510  0.91310  Biso   1.000  H
  H27      1.0000 0.23440  0.69050  0.83640  Biso   1.000  H
  O18      1.0000 0.65970  0.36970  0.46870  Biso   1.000  O
  H28      1.0000 0.45300  0.20200  0.18500  Biso   1.000  H
  H29      1.0000 0.66900  0.37400  0.57700  Biso   1.000  H
  H30      1.0000 0.72000  0.38400  0.46800  Biso   1.000  H
  C13      1.0000 0.13570  0.13380  0.45040  Biso   1.000  C
  O19      1.0000 0.13110  0.09850  0.29670  Biso   1.000  O
  O20      1.0000 0.07290  0.08900  0.52700  Biso   1.000  O
  C14      1.0000 0.21640  0.22420  0.55250  Biso   1.000  C
  H31      1.0000 0.17680  0.28510  0.58690  Biso   1.000  H
  H32      1.0000 0.26560  0.19050  0.66360  Biso   1.000  H
  O21      1.0000 0.84030  0.86970  0.03130  Biso   1.000  O
  H33      1.0000 0.04700  0.70200  0.31500  Biso   1.000  H
  H34      1.0000 0.83100  0.87400  0.92300  Biso   1.000  H
  H35      1.0000 0.78000  0.88400  0.03200  Biso   1.000  H
  C15      1.0000 0.63570  0.63380  0.45040  Biso   1.000  C
  O22      1.0000 0.63110  0.59850  0.29670  Biso   1.000  O
  O23      1.0000 0.57290  0.58900  0.52700  Biso   1.000  O
  C16      1.0000 0.71640  0.72420  0.55250  Biso   1.000  C
  H36      1.0000 0.67680  0.78510  0.58690  Biso   1.000  H
  H37      1.0000 0.76560  0.69050  0.66360  Biso   1.000  H
  O24      1.0000 0.34030  0.36970  0.03130  Biso   1.000  O
  H38      1.0000 0.54700  0.20200  0.31500  Biso   1.000  H
  H39      1.0000 0.33100  0.37400  0.92300  Biso   1.000  H
  H40      1.0000 0.28000  0.38400  0.03200  Biso   1.000  H
  Er1      1.0000 0.00000  0.05540  0.75000  Biso   1.000  Er
  O25      1.0000 0.00000  0.25590  0.75000  Biso   1.000  O
  Er2      1.0000 0.50000  0.55540  0.75000  Biso   1.000  Er
  O26      1.0000 0.50000  0.75590  0.75000  Biso   1.000  O
  Er3      1.0000 0.00000  0.94460  0.25000  Biso   1.000  Er
  O27      1.0000 0.00000  0.74410  0.25000  Biso   1.000  O
  Er4      1.0000 0.50000  0.44460  0.25000  Biso   1.000  Er
  O28      1.0000 0.50000  0.24410  0.25000  Biso   1.000  O
