data_FENVOL_charged
_audit_creation_date              2014-07-02
_audit_creation_method            'Materials Studio'
_symmetry_space_group_name_H-M    'P1'
_symmetry_Int_Tables_number       1
_symmetry_cell_setting            triclinic
loop_
_symmetry_equiv_pos_as_xyz
  x,y,z
_cell_length_a                    17.4866
_cell_length_b                    17.4866
_cell_length_c                    17.4866
_cell_angle_alpha                 96.5220
_cell_angle_beta                  116.3090
_cell_angle_gamma                 116.3090
loop_
_atom_site_label
_atom_site_type_symbol
_atom_site_fract_x
_atom_site_fract_y
_atom_site_fract_z
_atom_site_U_iso_or_equiv
_atom_site_adp_type
_atom_site_occupancy
Zn1    Zn    0.50798   0.95729   0.99815   0.01267  Uiso   1.00
Zn2    Zn    0.49202   0.49017   0.44931   0.01267  Uiso   1.00
Zn3    Zn    0.95914   0.00185   0.50983   0.01267  Uiso   1.00
Zn4    Zn    0.04086   0.55069   0.04271   0.01267  Uiso   1.00
Zn5    Zn    0.45914   0.25983   0.25185   0.01267  Uiso   1.00
Zn6    Zn    0.54086   0.79271   0.80069   0.01267  Uiso   1.00
Zn7    Zn    0.99202   0.19931   0.74017   0.01267  Uiso   1.00
Zn8    Zn    0.00798   0.74815   0.20729   0.01267  Uiso   1.00
Zn9    Zn    0.87530   0.50030   0.12500   0.01267  Uiso   1.00
Zn10   Zn    0.12470   0.24970   0.62500   0.01267  Uiso   1.00
Zn11   Zn    0.37530   0.87500   0.75030   0.01267  Uiso   1.00
Zn12   Zn    0.62470   0.37500   0.49970   0.01267  Uiso   1.00
P1     P     0.61439   0.99743   0.89398   0.01267  Uiso   1.00
P2     P     0.38561   0.27959   0.38304   0.01267  Uiso   1.00
P3     P     0.10345   0.10602   0.72041   0.01267  Uiso   1.00
P4     P     0.89655   0.61696   0.00257   0.01267  Uiso   1.00
P5     P     0.60345   0.47041   0.35602   0.01267  Uiso   1.00
P6     P     0.39655   0.75257   0.86696   0.01267  Uiso   1.00
P7     P     0.88561   0.13304   0.52959   0.01267  Uiso   1.00
P8     P     0.11439   0.64398   0.24743   0.01267  Uiso   1.00
H1     H     0.72450   0.19430   0.99420   0.01267  Uiso   1.00
H2     H     0.92970   0.31200   0.92850   0.01267  Uiso   1.00
H3     H     0.74040   0.03590   0.82430   0.01267  Uiso   1.00
H4     H     0.27550   0.26970   0.46980   0.01267  Uiso   1.00
H5     H     0.07030   0.99880   0.38230   0.01267  Uiso   1.00
H6     H     0.25960   0.08390   0.29550   0.01267  Uiso   1.00
H7     H     0.20010   0.00580   0.73030   0.01267  Uiso   1.00
H8     H     0.38350   0.07150   0.00120   0.01267  Uiso   1.00
H9     H     0.21160   0.17570   0.91610   0.01267  Uiso   1.00
H10    H     0.79990   0.53020   0.80570   0.01267  Uiso   1.00
H11    H     0.61650   0.61770   0.68800   0.01267  Uiso   1.00
H12    H     0.78840   0.70450   0.96410   0.01267  Uiso   1.00
H13    H     0.70010   0.48030   0.25580   0.01267  Uiso   1.00
H14    H     0.88350   0.75120   0.32150   0.01267  Uiso   1.00
H15    H     0.71160   0.66610   0.42570   0.01267  Uiso   1.00
H16    H     0.29990   0.55570   0.78020   0.01267  Uiso   1.00
H17    H     0.11650   0.43800   0.86770   0.01267  Uiso   1.00
H18    H     0.28840   0.71410   0.95450   0.01267  Uiso   1.00
H19    H     0.77550   0.21980   0.51970   0.01267  Uiso   1.00
H20    H     0.57030   0.13230   0.24880   0.01267  Uiso   1.00
H21    H     0.75960   0.04550   0.33390   0.01267  Uiso   1.00
H22    H     0.22450   0.74420   0.44430   0.01267  Uiso   1.00
H23    H     0.42970   0.67850   0.56200   0.01267  Uiso   1.00
H24    H     0.24040   0.57430   0.28590   0.01267  Uiso   1.00
C1     C     0.71860   0.10010   0.90950   0.01267  Uiso   1.00
C2     C     0.75390   0.18830   0.96280   0.01267  Uiso   1.00
C3     C     0.83210   0.26720   0.97010   0.01267  Uiso   1.00
C4     C     0.87680   0.25910   0.92310   0.01267  Uiso   1.00
C5     C     0.84290   0.17330   0.86860   0.01267  Uiso   1.00
C6     C     0.76360   0.09390   0.86150   0.01267  Uiso   1.00
C7     C     0.66330   0.50650   0.63660   0.01267  Uiso   1.00
C8     C     0.88690   0.16190   0.81600   0.01267  Uiso   1.00
C9     C     0.28140   0.19090   0.38150   0.01267  Uiso   1.00
C10    C     0.24610   0.20890   0.43440   0.01267  Uiso   1.00
C11    C     0.16790   0.13800   0.43510   0.01267  Uiso   1.00
C12    C     0.12320   0.04630   0.38230   0.01267  Uiso   1.00
C13    C     0.15710   0.02570   0.33040   0.01267  Uiso   1.00
C14    C     0.23640   0.09790   0.33030   0.01267  Uiso   1.00
C15    C     0.33670   0.97330   0.84320   0.01267  Uiso   1.00
C16    C     0.11310   0.92910   0.27500   0.01267  Uiso   1.00
C17    C     0.19060   0.09050   0.80910   0.01267  Uiso   1.00
C18    C     0.22550   0.03720   0.79110   0.01267  Uiso   1.00
C19    C     0.29710   0.02990   0.86200   0.01267  Uiso   1.00
C20    C     0.33600   0.07690   0.95370   0.01267  Uiso   1.00
C21    C     0.30470   0.13140   0.97430   0.01267  Uiso   1.00
C22    C     0.23240   0.13850   0.90210   0.01267  Uiso   1.00
C23    C     0.86990   0.36340   0.02670   0.01267  Uiso   1.00
C24    C     0.34590   0.18400   0.07090   0.01267  Uiso   1.00
C25    C     0.80940   0.61850   0.89990   0.01267  Uiso   1.00
C26    C     0.77450   0.56560   0.81170   0.01267  Uiso   1.00
C27    C     0.70290   0.56490   0.73280   0.01267  Uiso   1.00
C28    C     0.66400   0.61770   0.74090   0.01267  Uiso   1.00
C29    C     0.69530   0.66960   0.82670   0.01267  Uiso   1.00
C30    C     0.76760   0.66970   0.90610   0.01267  Uiso   1.00
C31    C     0.13010   0.15680   0.49350   0.01267  Uiso   1.00
C32    C     0.65410   0.72500   0.83810   0.01267  Uiso   1.00
C33    C     0.69060   0.55910   0.34050   0.01267  Uiso   1.00
C34    C     0.72550   0.54110   0.28720   0.01267  Uiso   1.00
C35    C     0.79710   0.61200   0.27990   0.01267  Uiso   1.00
C36    C     0.83600   0.70370   0.32690   0.01267  Uiso   1.00
C37    C     0.80470   0.72430   0.38140   0.01267  Uiso   1.00
C38    C     0.73240   0.65210   0.38850   0.01267  Uiso   1.00
C39    C     0.36990   0.77670   0.61340   0.01267  Uiso   1.00
C40    C     0.84590   0.82090   0.43400   0.01267  Uiso   1.00
C41    C     0.30940   0.64990   0.86850   0.01267  Uiso   1.00
C42    C     0.27450   0.56170   0.81560   0.01267  Uiso   1.00
C43    C     0.20290   0.48280   0.81490   0.01267  Uiso   1.00
C44    C     0.16400   0.49090   0.86770   0.01267  Uiso   1.00
C45    C     0.19530   0.57670   0.91960   0.01267  Uiso   1.00
C46    C     0.26760   0.65610   0.91970   0.01267  Uiso   1.00
C47    C     0.63010   0.24350   0.40680   0.01267  Uiso   1.00
C48    C     0.15410   0.58810   0.97500   0.01267  Uiso   1.00
C49    C     0.78140   0.13150   0.44090   0.01267  Uiso   1.00
C50    C     0.74610   0.18440   0.45890   0.01267  Uiso   1.00
C51    C     0.66790   0.18510   0.38800   0.01267  Uiso   1.00
C52    C     0.62320   0.13230   0.29630   0.01267  Uiso   1.00
C53    C     0.65710   0.08040   0.27570   0.01267  Uiso   1.00
C54    C     0.73640   0.08030   0.34790   0.01267  Uiso   1.00
C55    C     0.83670   0.59320   0.22330   0.01267  Uiso   1.00
C56    C     0.61310   0.02500   0.17910   0.01267  Uiso   1.00
C57    C     0.21860   0.65950   0.35010   0.01267  Uiso   1.00
C58    C     0.25390   0.71280   0.43830   0.01267  Uiso   1.00
C59    C     0.33210   0.72010   0.51720   0.01267  Uiso   1.00
C60    C     0.37680   0.67310   0.50910   0.01267  Uiso   1.00
C61    C     0.34290   0.61860   0.42330   0.01267  Uiso   1.00
C62    C     0.26360   0.61150   0.34390   0.01267  Uiso   1.00
C63    C     0.16330   0.38660   0.75650   0.01267  Uiso   1.00
C64    C     0.38690   0.56600   0.41190   0.01267  Uiso   1.00
O1     O     0.83400   0.53840   0.02120   0.01267  Uiso   1.00
O2     O     0.62030   0.01730   0.98320   0.01267  Uiso   1.00
O3     O     0.95510   0.71030   0.07880   0.01267  Uiso   1.00
O4     O     0.60420   0.51440   0.57200   0.01267  Uiso   1.00
O5     O     0.69500   0.45550   0.63030   0.01267  Uiso   1.00
O6     O     0.95260   0.23640   0.81820   0.01267  Uiso   1.00
O7     O     0.68700   0.77500   0.91340   0.01267  Uiso   1.00
O8     O     0.16600   0.18720   0.70440   0.01267  Uiso   1.00
O9     O     0.37970   0.36290   0.39700   0.01267  Uiso   1.00
O10    O     0.04490   0.12370   0.75520   0.01267  Uiso   1.00
O11    O     0.39580   0.96780   0.91020   0.01267  Uiso   1.00
O12    O     0.30500   0.93530   0.76050   0.01267  Uiso   1.00
O13    O     0.04740   0.86560   0.28380   0.01267  Uiso   1.00
O14    O     0.31300   0.22640   0.08800   0.01267  Uiso   1.00
O15    O     0.51720   0.97880   0.81280   0.01267  Uiso   1.00
O16    O     0.03410   0.01680   0.63710   0.01267  Uiso   1.00
O17    O     0.63150   0.92120   0.87630   0.01267  Uiso   1.00
O18    O     0.94240   0.42800   0.03220   0.01267  Uiso   1.00
O19    O     0.82520   0.36970   0.06470   0.01267  Uiso   1.00
O20    O     0.41820   0.18180   0.13440   0.01267  Uiso   1.00
O21    O     0.86160   0.08660   0.77360   0.01267  Uiso   1.00
O22    O     0.48280   0.29560   0.46160   0.01267  Uiso   1.00
O23    O     0.96590   0.60300   0.98270   0.01267  Uiso   1.00
O24    O     0.36850   0.24480   0.28970   0.01267  Uiso   1.00
O25    O     0.05760   0.08980   0.48560   0.01267  Uiso   1.00
O26    O     0.17480   0.23950   0.54450   0.01267  Uiso   1.00
O27    O     0.58180   0.71620   0.76360   0.01267  Uiso   1.00
O28    O     0.13840   0.91200   0.22500   0.01267  Uiso   1.00
O29    O     0.01720   0.56280   0.22880   0.01267  Uiso   1.00
O30    O     0.53410   0.38710   0.26680   0.01267  Uiso   1.00
O31    O     0.13150   0.62630   0.17120   0.01267  Uiso   1.00
O32    O     0.44240   0.78220   0.67800   0.01267  Uiso   1.00
O33    O     0.32520   0.81470   0.61970   0.01267  Uiso   1.00
O34    O     0.91820   0.88440   0.43180   0.01267  Uiso   1.00
O35    O     0.36160   0.52360   0.33660   0.01267  Uiso   1.00
O36    O     0.98280   0.21160   0.54560   0.01267  Uiso   1.00
O37    O     0.46590   0.73270   0.85300   0.01267  Uiso   1.00
O38    O     0.86850   0.03970   0.49480   0.01267  Uiso   1.00
O39    O     0.55760   0.23560   0.33980   0.01267  Uiso   1.00
O40    O     0.67480   0.29450   0.48950   0.01267  Uiso   1.00
O41    O     0.08180   0.51360   0.96620   0.01267  Uiso   1.00
O42    O     0.63840   0.97500   0.16200   0.01267  Uiso   1.00
O43    O     0.66600   0.45440   0.43720   0.01267  Uiso   1.00
O44    O     0.87970   0.14700   0.61290   0.01267  Uiso   1.00
O45    O     0.54490   0.50520   0.37370   0.01267  Uiso   1.00
O46    O     0.89580   0.66020   0.21780   0.01267  Uiso   1.00
O47    O     0.80500   0.51050   0.18530   0.01267  Uiso   1.00
O48    O     0.54740   0.03380   0.11560   0.01267  Uiso   1.00
O49    O     0.81300   0.83800   0.47640   0.01267  Uiso   1.00
O50    O     0.33400   0.77120   0.78840   0.01267  Uiso   1.00
O51    O     0.12030   0.73320   0.26730   0.01267  Uiso   1.00
O52    O     0.45510   0.82880   0.96030   0.01267  Uiso   1.00
O53    O     0.10420   0.32200   0.76440   0.01267  Uiso   1.00
O54    O     0.19500   0.38030   0.70550   0.01267  Uiso   1.00
O55    O     0.45260   0.56820   0.48640   0.01267  Uiso   1.00
O56    O     0.18700   0.66340   0.02500   0.01267  Uiso   1.00
H25    H     0.29230   0.86800   0.25750   0.01267  Uiso   1.00
H26    H     0.30740   0.80940   0.19840   0.01267  Uiso   1.00
H27    H     0.41860   0.92890   0.21750   0.01267  Uiso   1.00
H28    H     0.38560   0.98450   0.25590   0.01267  Uiso   1.00
H29    H     0.35690   0.02480   0.14710   0.01267  Uiso   1.00
H30    H     0.16580   0.83240   0.16060   0.01267  Uiso   1.00
H31    H     0.11050   0.78480   0.99250   0.01267  Uiso   1.00
H32    H     0.11100   0.85900   0.05160   0.01267  Uiso   1.00
H33    H     0.21140   0.95110   0.03250   0.01267  Uiso   1.00
H34    H     0.22860   0.87970   0.99410   0.01267  Uiso   1.00
H35    H     0.37770   0.95980   0.10290   0.01267  Uiso   1.00
H36    H     0.17180   0.75520   0.08940   0.01267  Uiso   1.00
C65    C     0.28750   0.85310   0.19980   0.01267  Uiso   1.00
C66    C     0.36110   0.93380   0.20350   0.01267  Uiso   1.00
C67    C     0.15330   0.83770   0.05020   0.01267  Uiso   1.00
C68    C     0.23030   0.90760   0.04650   0.01267  Uiso   1.00
C69    C     0.33610   0.96110   0.12500   0.01267  Uiso   1.00
N1     N     0.17930   0.80430   0.12500   0.01267  Uiso   1.00
H37    H     0.70770   0.96520   0.57570   0.01267  Uiso   1.00
H38    H     0.69260   0.89100   0.50200   0.01267  Uiso   1.00
H39    H     0.58140   0.79890   0.51030   0.01267  Uiso   1.00
H40    H     0.61440   0.87030   0.59890   0.01267  Uiso   1.00
H41    H     0.64310   0.79020   0.66790   0.01267  Uiso   1.00
H42    H     0.83420   0.99480   0.66660   0.01267  Uiso   1.00
H43    H     0.88950   0.88200   0.67430   0.01267  Uiso   1.00
H44    H     0.88900   0.94060   0.74800   0.01267  Uiso   1.00
H45    H     0.78860   0.82110   0.73970   0.01267  Uiso   1.00
H46    H     0.77140   0.76550   0.65110   0.01267  Uiso   1.00
H47    H     0.62230   0.72520   0.58210   0.01267  Uiso   1.00
H48    H     0.82820   0.91760   0.58340   0.01267  Uiso   1.00
C70    C     0.71250   0.91230   0.56560   0.01267  Uiso   1.00
C71    C     0.63890   0.84240   0.57270   0.01267  Uiso   1.00
C72    C     0.84670   0.89690   0.68440   0.01267  Uiso   1.00
C73    C     0.76970   0.81620   0.67730   0.01267  Uiso   1.00
C74    C     0.66390   0.78890   0.62500   0.01267  Uiso   1.00
N2     N     0.82070   0.94570   0.62500   0.01267  Uiso   1.00
H49    H     0.61050   0.74250   0.03480   0.01267  Uiso   1.00
H50    H     0.61100   0.80160   0.10900   0.01267  Uiso   1.00
H51    H     0.71140   0.78250   0.20110   0.01267  Uiso   1.00
H52    H     0.72860   0.74410   0.12970   0.01267  Uiso   1.00
H53    H     0.87770   0.85290   0.20980   0.01267  Uiso   1.00
H54    H     0.67180   0.83940   0.00520   0.01267  Uiso   1.00
H55    H     0.79230   0.00750   0.11800   0.01267  Uiso   1.00
H56    H     0.80740   0.94840   0.05940   0.01267  Uiso   1.00
H57    H     0.91860   0.96750   0.17890   0.01267  Uiso   1.00
H58    H     0.88560   0.00590   0.23450   0.01267  Uiso   1.00
H59    H     0.85690   0.89710   0.27480   0.01267  Uiso   1.00
H60    H     0.66580   0.91060   0.08240   0.01267  Uiso   1.00
C75    C     0.65330   0.80020   0.08770   0.01267  Uiso   1.00
C76    C     0.73030   0.79650   0.15760   0.01267  Uiso   1.00
C77    C     0.78750   0.94980   0.10310   0.01267  Uiso   1.00
C78    C     0.86110   0.95350   0.18380   0.01267  Uiso   1.00
C79    C     0.83610   0.87500   0.21110   0.01267  Uiso   1.00
N3     N     0.67930   0.87500   0.05430   0.01267  Uiso   1.00
H61    H     0.38950   0.42430   0.13200   0.01267  Uiso   1.00
H62    H     0.38900   0.49800   0.19060   0.01267  Uiso   1.00
H63    H     0.28860   0.48970   0.07110   0.01267  Uiso   1.00
H64    H     0.27140   0.40110   0.01550   0.01267  Uiso   1.00
H65    H     0.12230   0.33210   0.97520   0.01267  Uiso   1.00
H66    H     0.32820   0.33340   0.16760   0.01267  Uiso   1.00
H67    H     0.20770   0.32570   0.21520   0.01267  Uiso   1.00
H68    H     0.19260   0.25200   0.14100   0.01267  Uiso   1.00
H69    H     0.08140   0.26030   0.04890   0.01267  Uiso   1.00
H70    H     0.11440   0.34890   0.12030   0.01267  Uiso   1.00
H71    H     0.14310   0.41790   0.04020   0.01267  Uiso   1.00
H72    H     0.33420   0.41660   0.24480   0.01267  Uiso   1.00
C80    C     0.34670   0.43440   0.14690   0.01267  Uiso   1.00
C81    C     0.26970   0.42730   0.06620   0.01267  Uiso   1.00
C82    C     0.21250   0.31560   0.16230   0.01267  Uiso   1.00
C83    C     0.13890   0.32270   0.09240   0.01267  Uiso   1.00
C84    C     0.16390   0.37500   0.03890   0.01267  Uiso   1.00
N4     N     0.32070   0.37500   0.19570   0.01267  Uiso   1.00
