data_image0
_cell_length_a       26.242
_cell_length_b       26.242
_cell_length_c       9.5644
_cell_angle_alpha    90
_cell_angle_beta     90
_cell_angle_gamma    120

_symmetry_space_group_name_H-M    "P 1"
_symmetry_int_tables_number       1

loop_
  _symmetry_equiv_pos_as_xyz
  'x, y, z'

loop_
  _atom_site_label
  _atom_site_occupancy
  _atom_site_fract_x
  _atom_site_fract_y
  _atom_site_fract_z
  _atom_site_thermal_displace_type
  _atom_site_B_iso_or_equiv
  _atom_site_type_symbol
  N1       1.0000 0.33170  0.21880  0.30760  Biso   1.000  N
  C1       1.0000 0.45120  0.27000  0.17350  Biso   1.000  C
  H1       1.0000 0.43040  0.29010  0.17510  Biso   1.000  H
  C2       1.0000 0.51270  0.30220  0.17130  Biso   1.000  C
  H2       1.0000 0.53260  0.34310  0.17050  Biso   1.000  H
  C3       1.0000 0.32690  0.25160  0.38150  Biso   1.000  C
  N2       1.0000 0.99837  0.55213  0.64093  Biso   1.000  N
  C4       1.0000 0.11787  0.60333  0.50683  Biso   1.000  C
  H3       1.0000 0.09707  0.62343  0.50843  Biso   1.000  H
  C5       1.0000 0.17937  0.63553  0.50463  Biso   1.000  C
  H4       1.0000 0.19927  0.67643  0.50383  Biso   1.000  H
  C6       1.0000 0.99357  0.58493  0.71483  Biso   1.000  C
  N3       1.0000 0.66503  0.88547  0.97427  Biso   1.000  N
  C7       1.0000 0.78453  0.93667  0.84017  Biso   1.000  C
  H5       1.0000 0.76373  0.95677  0.84177  Biso   1.000  H
  C8       1.0000 0.84603  0.96887  0.83797  Biso   1.000  C
  H6       1.0000 0.86593  0.00977  0.83717  Biso   1.000  H
  C9       1.0000 0.66023  0.91827  0.04817  Biso   1.000  C
  N4       1.0000 0.78120  0.11290  0.30760  Biso   1.000  N
  C10      1.0000 0.73000  0.18120  0.17350  Biso   1.000  C
  H7       1.0000 0.70990  0.14030  0.17510  Biso   1.000  H
  C11      1.0000 0.69780  0.21050  0.17130  Biso   1.000  C
  H8       1.0000 0.65690  0.18950  0.17050  Biso   1.000  H
  C12      1.0000 0.74840  0.07530  0.38150  Biso   1.000  C
  N5       1.0000 0.44787  0.44623  0.64093  Biso   1.000  N
  C13      1.0000 0.39667  0.51453  0.50683  Biso   1.000  C
  H9       1.0000 0.37657  0.47363  0.50843  Biso   1.000  H
  C14      1.0000 0.36447  0.54383  0.50463  Biso   1.000  C
  H10      1.0000 0.32357  0.52283  0.50383  Biso   1.000  H
  C15      1.0000 0.41507  0.40863  0.71483  Biso   1.000  C
  N6       1.0000 0.11453  0.77957  0.97427  Biso   1.000  N
  C16      1.0000 0.06333  0.84787  0.84017  Biso   1.000  C
  H11      1.0000 0.04323  0.80697  0.84177  Biso   1.000  H
  C17      1.0000 0.03113  0.87717  0.83797  Biso   1.000  C
  H12      1.0000 0.99023  0.85617  0.83717  Biso   1.000  H
  C18      1.0000 0.08173  0.74197  0.04817  Biso   1.000  C
  N7       1.0000 0.88710  0.66830  0.30760  Biso   1.000  N
  C19      1.0000 0.81880  0.54880  0.17350  Biso   1.000  C
  H13      1.0000 0.85970  0.56960  0.17510  Biso   1.000  H
  C20      1.0000 0.78950  0.48730  0.17130  Biso   1.000  C
  H14      1.0000 0.81050  0.46740  0.17050  Biso   1.000  H
  C21      1.0000 0.92470  0.67310  0.38150  Biso   1.000  C
  N8       1.0000 0.55377  0.00163  0.64093  Biso   1.000  N
  C22      1.0000 0.48547  0.88213  0.50683  Biso   1.000  C
  H15      1.0000 0.52637  0.90293  0.50843  Biso   1.000  H
  C23      1.0000 0.45617  0.82063  0.50463  Biso   1.000  C
  H16      1.0000 0.47717  0.80073  0.50383  Biso   1.000  H
  C24      1.0000 0.59137  0.00643  0.71483  Biso   1.000  C
  N9       1.0000 0.22043  0.33497  0.97427  Biso   1.000  N
  C25      1.0000 0.15213  0.21547  0.84017  Biso   1.000  C
  H17      1.0000 0.19303  0.23627  0.84177  Biso   1.000  H
  C26      1.0000 0.12283  0.15397  0.83797  Biso   1.000  C
  H18      1.0000 0.14383  0.13407  0.83717  Biso   1.000  H
  C27      1.0000 0.25803  0.33977  0.04817  Biso   1.000  C
  N10      1.0000 0.21880  0.33170  0.69240  Biso   1.000  N
  C28      1.0000 0.27000  0.45120  0.82650  Biso   1.000  C
  H19      1.0000 0.29010  0.43040  0.82490  Biso   1.000  H
  C29      1.0000 0.30220  0.51270  0.82870  Biso   1.000  C
  H20      1.0000 0.34310  0.53260  0.82950  Biso   1.000  H
  C30      1.0000 0.25160  0.32690  0.61850  Biso   1.000  C
  N11      1.0000 0.88547  0.66503  0.02573  Biso   1.000  N
  C31      1.0000 0.93667  0.78453  0.15983  Biso   1.000  C
  H21      1.0000 0.95677  0.76373  0.15823  Biso   1.000  H
  C32      1.0000 0.96887  0.84603  0.16203  Biso   1.000  C
  H22      1.0000 0.00977  0.86593  0.16283  Biso   1.000  H
  C33      1.0000 0.91827  0.66023  0.95183  Biso   1.000  C
  N12      1.0000 0.55213  0.99837  0.35907  Biso   1.000  N
  C34      1.0000 0.60333  0.11787  0.49317  Biso   1.000  C
  H23      1.0000 0.62343  0.09707  0.49157  Biso   1.000  H
  C35      1.0000 0.63553  0.17937  0.49537  Biso   1.000  C
  H24      1.0000 0.67643  0.19927  0.49617  Biso   1.000  H
  C36      1.0000 0.58493  0.99357  0.28517  Biso   1.000  C
  N13      1.0000 0.11290  0.78120  0.69240  Biso   1.000  N
  C37      1.0000 0.18120  0.73000  0.82650  Biso   1.000  C
  H25      1.0000 0.14030  0.70990  0.82490  Biso   1.000  H
  C38      1.0000 0.21050  0.69780  0.82870  Biso   1.000  C
  H26      1.0000 0.18950  0.65690  0.82950  Biso   1.000  H
  C39      1.0000 0.07530  0.74840  0.61850  Biso   1.000  C
  N14      1.0000 0.77957  0.11453  0.02573  Biso   1.000  N
  C40      1.0000 0.84787  0.06333  0.15983  Biso   1.000  C
  H27      1.0000 0.80697  0.04323  0.15823  Biso   1.000  H
  C41      1.0000 0.87717  0.03113  0.16203  Biso   1.000  C
  H28      1.0000 0.85617  0.99023  0.16283  Biso   1.000  H
  C42      1.0000 0.74197  0.08173  0.95183  Biso   1.000  C
  N15      1.0000 0.44623  0.44787  0.35907  Biso   1.000  N
  C43      1.0000 0.51453  0.39667  0.49317  Biso   1.000  C
  H29      1.0000 0.47363  0.37657  0.49157  Biso   1.000  H
  C44      1.0000 0.54383  0.36447  0.49537  Biso   1.000  C
  H30      1.0000 0.52283  0.32357  0.49617  Biso   1.000  H
  C45      1.0000 0.40863  0.41507  0.28517  Biso   1.000  C
  N16      1.0000 0.66830  0.88710  0.69240  Biso   1.000  N
  C46      1.0000 0.54880  0.81880  0.82650  Biso   1.000  C
  H31      1.0000 0.56960  0.85970  0.82490  Biso   1.000  H
  C47      1.0000 0.48730  0.78950  0.82870  Biso   1.000  C
  H32      1.0000 0.46740  0.81050  0.82950  Biso   1.000  H
  C48      1.0000 0.67310  0.92470  0.61850  Biso   1.000  C
  N17      1.0000 0.33497  0.22043  0.02573  Biso   1.000  N
  C49      1.0000 0.21547  0.15213  0.15983  Biso   1.000  C
  H33      1.0000 0.23627  0.19303  0.15823  Biso   1.000  H
  C50      1.0000 0.15397  0.12283  0.16203  Biso   1.000  C
  H34      1.0000 0.13407  0.14383  0.16283  Biso   1.000  H
  C51      1.0000 0.33977  0.25803  0.95183  Biso   1.000  C
  N18      1.0000 0.00163  0.55377  0.35907  Biso   1.000  N
  C52      1.0000 0.88213  0.48547  0.49317  Biso   1.000  C
  H35      1.0000 0.90293  0.52637  0.49157  Biso   1.000  H
  C53      1.0000 0.82063  0.45617  0.49537  Biso   1.000  C
  H36      1.0000 0.80073  0.47717  0.49617  Biso   1.000  H
  C54      1.0000 0.00643  0.59137  0.28517  Biso   1.000  C
  N19      1.0000 0.66830  0.78120  0.69240  Biso   1.000  N
  C55      1.0000 0.54880  0.73000  0.82650  Biso   1.000  C
  H37      1.0000 0.56960  0.70990  0.82490  Biso   1.000  H
  C56      1.0000 0.48730  0.69780  0.82870  Biso   1.000  C
  H38      1.0000 0.46740  0.65690  0.82950  Biso   1.000  H
  C57      1.0000 0.67310  0.74840  0.61850  Biso   1.000  C
  N20      1.0000 0.33497  0.11453  0.02573  Biso   1.000  N
  C58      1.0000 0.21547  0.06333  0.15983  Biso   1.000  C
  H39      1.0000 0.23627  0.04323  0.15823  Biso   1.000  H
  C59      1.0000 0.15397  0.03113  0.16203  Biso   1.000  C
  H40      1.0000 0.13407  0.99023  0.16283  Biso   1.000  H
  C60      1.0000 0.33977  0.08173  0.95183  Biso   1.000  C
  N21      1.0000 0.00163  0.44787  0.35907  Biso   1.000  N
  C61      1.0000 0.88213  0.39667  0.49317  Biso   1.000  C
  H41      1.0000 0.90293  0.37657  0.49157  Biso   1.000  H
  C62      1.0000 0.82063  0.36447  0.49537  Biso   1.000  C
  H42      1.0000 0.80073  0.32357  0.49617  Biso   1.000  H
  C63      1.0000 0.00643  0.41507  0.28517  Biso   1.000  C
  N22      1.0000 0.21880  0.88710  0.69240  Biso   1.000  N
  C64      1.0000 0.27000  0.81880  0.82650  Biso   1.000  C
  H43      1.0000 0.29010  0.85970  0.82490  Biso   1.000  H
  C65      1.0000 0.30220  0.78950  0.82870  Biso   1.000  C
  H44      1.0000 0.34310  0.81050  0.82950  Biso   1.000  H
  C66      1.0000 0.25160  0.92470  0.61850  Biso   1.000  C
  N23      1.0000 0.88547  0.22043  0.02573  Biso   1.000  N
  C67      1.0000 0.93667  0.15213  0.15983  Biso   1.000  C
  H45      1.0000 0.95677  0.19303  0.15823  Biso   1.000  H
  C68      1.0000 0.96887  0.12283  0.16203  Biso   1.000  C
  H46      1.0000 0.00977  0.14383  0.16283  Biso   1.000  H
  C69      1.0000 0.91827  0.25803  0.95183  Biso   1.000  C
  N24      1.0000 0.55213  0.55377  0.35907  Biso   1.000  N
  C70      1.0000 0.60333  0.48547  0.49317  Biso   1.000  C
  H47      1.0000 0.62343  0.52637  0.49157  Biso   1.000  H
  C71      1.0000 0.63553  0.45617  0.49537  Biso   1.000  C
  H48      1.0000 0.67643  0.47717  0.49617  Biso   1.000  H
  C72      1.0000 0.58493  0.59137  0.28517  Biso   1.000  C
  N25      1.0000 0.11290  0.33170  0.69240  Biso   1.000  N
  C73      1.0000 0.18120  0.45120  0.82650  Biso   1.000  C
  H49      1.0000 0.14030  0.43040  0.82490  Biso   1.000  H
  C74      1.0000 0.21050  0.51270  0.82870  Biso   1.000  C
  H50      1.0000 0.18950  0.53260  0.82950  Biso   1.000  H
  C75      1.0000 0.07530  0.32690  0.61850  Biso   1.000  C
  N26      1.0000 0.77957  0.66503  0.02573  Biso   1.000  N
  C76      1.0000 0.84787  0.78453  0.15983  Biso   1.000  C
  H51      1.0000 0.80697  0.76373  0.15823  Biso   1.000  H
  C77      1.0000 0.87717  0.84603  0.16203  Biso   1.000  C
  H52      1.0000 0.85617  0.86593  0.16283  Biso   1.000  H
  C78      1.0000 0.74197  0.66023  0.95183  Biso   1.000  C
  N27      1.0000 0.44623  0.99837  0.35907  Biso   1.000  N
  C79      1.0000 0.51453  0.11787  0.49317  Biso   1.000  C
  H53      1.0000 0.47363  0.09707  0.49157  Biso   1.000  H
  C80      1.0000 0.54383  0.17937  0.49537  Biso   1.000  C
  H54      1.0000 0.52283  0.19927  0.49617  Biso   1.000  H
  C81      1.0000 0.40863  0.99357  0.28517  Biso   1.000  C
  N28      1.0000 0.78120  0.66830  0.30760  Biso   1.000  N
  C82      1.0000 0.73000  0.54880  0.17350  Biso   1.000  C
  H55      1.0000 0.70990  0.56960  0.17510  Biso   1.000  H
  C83      1.0000 0.69780  0.48730  0.17130  Biso   1.000  C
  H56      1.0000 0.65690  0.46740  0.17050  Biso   1.000  H
  C84      1.0000 0.74840  0.67310  0.38150  Biso   1.000  C
  N29      1.0000 0.44787  0.00163  0.64093  Biso   1.000  N
  C85      1.0000 0.39667  0.88213  0.50683  Biso   1.000  C
  H57      1.0000 0.37657  0.90293  0.50843  Biso   1.000  H
  C86      1.0000 0.36447  0.82063  0.50463  Biso   1.000  C
  H58      1.0000 0.32357  0.80073  0.50383  Biso   1.000  H
  C87      1.0000 0.41507  0.00643  0.71483  Biso   1.000  C
  N30      1.0000 0.11453  0.33497  0.97427  Biso   1.000  N
  C88      1.0000 0.06333  0.21547  0.84017  Biso   1.000  C
  H59      1.0000 0.04323  0.23627  0.84177  Biso   1.000  H
  C89      1.0000 0.03113  0.15397  0.83797  Biso   1.000  C
  H60      1.0000 0.99023  0.13407  0.83717  Biso   1.000  H
  C90      1.0000 0.08173  0.33977  0.04817  Biso   1.000  C
  N31      1.0000 0.88710  0.21880  0.30760  Biso   1.000  N
  C91      1.0000 0.81880  0.27000  0.17350  Biso   1.000  C
  H61      1.0000 0.85970  0.29010  0.17510  Biso   1.000  H
  C92      1.0000 0.78950  0.30220  0.17130  Biso   1.000  C
  H62      1.0000 0.81050  0.34310  0.17050  Biso   1.000  H
  C93      1.0000 0.92470  0.25160  0.38150  Biso   1.000  C
  N32      1.0000 0.55377  0.55213  0.64093  Biso   1.000  N
  C94      1.0000 0.48547  0.60333  0.50683  Biso   1.000  C
  H63      1.0000 0.52637  0.62343  0.50843  Biso   1.000  H
  C95      1.0000 0.45617  0.63553  0.50463  Biso   1.000  C
  H64      1.0000 0.47717  0.67643  0.50383  Biso   1.000  H
  C96      1.0000 0.59137  0.58493  0.71483  Biso   1.000  C
  N33      1.0000 0.22043  0.88547  0.97427  Biso   1.000  N
  C97      1.0000 0.15213  0.93667  0.84017  Biso   1.000  C
  H65      1.0000 0.19303  0.95677  0.84177  Biso   1.000  H
  C98      1.0000 0.12283  0.96887  0.83797  Biso   1.000  C
  H66      1.0000 0.14383  0.00977  0.83717  Biso   1.000  H
  C99      1.0000 0.25803  0.91827  0.04817  Biso   1.000  C
  N34      1.0000 0.33170  0.11290  0.30760  Biso   1.000  N
  C100     1.0000 0.45120  0.18120  0.17350  Biso   1.000  C
  H67      1.0000 0.43040  0.14030  0.17510  Biso   1.000  H
  C101     1.0000 0.51270  0.21050  0.17130  Biso   1.000  C
  H68      1.0000 0.53260  0.18950  0.17050  Biso   1.000  H
  C102     1.0000 0.32690  0.07530  0.38150  Biso   1.000  C
  N35      1.0000 0.99837  0.44623  0.64093  Biso   1.000  N
  C103     1.0000 0.11787  0.51453  0.50683  Biso   1.000  C
  H69      1.0000 0.09707  0.47363  0.50843  Biso   1.000  H
  C104     1.0000 0.17937  0.54383  0.50463  Biso   1.000  C
  H70      1.0000 0.19927  0.52283  0.50383  Biso   1.000  H
  C105     1.0000 0.99357  0.40863  0.71483  Biso   1.000  C
  N36      1.0000 0.66503  0.77957  0.97427  Biso   1.000  N
  C106     1.0000 0.78453  0.84787  0.84017  Biso   1.000  C
  H71      1.0000 0.76373  0.80697  0.84177  Biso   1.000  H
  C107     1.0000 0.84603  0.87717  0.83797  Biso   1.000  C
  H72      1.0000 0.86593  0.85617  0.83717  Biso   1.000  H
  C108     1.0000 0.66023  0.74197  0.04817  Biso   1.000  C
  Ag1      1.0000 0.29860  0.29860  0.50000  Biso   1.000  Ag
  Ag2      1.0000 0.96527  0.63193  0.83333  Biso   1.000  Ag
  Ag3      1.0000 0.63193  0.96527  0.16667  Biso   1.000  Ag
  Ag4      1.0000 0.70140  0.00000  0.50000  Biso   1.000  Ag
  Ag5      1.0000 0.36807  0.33333  0.83333  Biso   1.000  Ag
  Ag6      1.0000 0.03473  0.66667  0.16667  Biso   1.000  Ag
  Ag7      1.0000 0.00000  0.70140  0.50000  Biso   1.000  Ag
  Ag8      1.0000 0.66667  0.03473  0.83333  Biso   1.000  Ag
  Ag9      1.0000 0.33333  0.36807  0.16667  Biso   1.000  Ag
  Ag10     1.0000 0.70140  0.70140  0.50000  Biso   1.000  Ag
  Ag11     1.0000 0.36807  0.03473  0.83333  Biso   1.000  Ag
  Ag12     1.0000 0.03473  0.36807  0.16667  Biso   1.000  Ag
  Ag13     1.0000 0.29860  0.00000  0.50000  Biso   1.000  Ag
  Ag14     1.0000 0.96527  0.33333  0.83333  Biso   1.000  Ag
  Ag15     1.0000 0.63193  0.66667  0.16667  Biso   1.000  Ag
  Ag16     1.0000 0.00000  0.29860  0.50000  Biso   1.000  Ag
  Ag17     1.0000 0.66667  0.63193  0.83333  Biso   1.000  Ag
  Ag18     1.0000 0.33333  0.96527  0.16667  Biso   1.000  Ag
  Fe1      1.0000 0.33333  0.16667  0.16667  Biso   1.000  Fe
  Fe2      1.0000 0.00000  0.50000  0.50000  Biso   1.000  Fe
  Fe3      1.0000 0.83333  0.16667  0.16667  Biso   1.000  Fe
  Fe4      1.0000 0.50000  0.50000  0.50000  Biso   1.000  Fe
  Fe5      1.0000 0.83333  0.66667  0.16667  Biso   1.000  Fe
  Fe6      1.0000 0.50000  0.00000  0.50000  Biso   1.000  Fe
  Fe7      1.0000 0.16667  0.33333  0.83333  Biso   1.000  Fe
  Fe8      1.0000 0.16667  0.83333  0.83333  Biso   1.000  Fe
  Fe9      1.0000 0.66667  0.83333  0.83333  Biso   1.000  Fe
  N37      1.0000 0.42100  0.21050  0.17330  Biso   1.000  N
  C109     1.0000 0.54380  0.27190  0.17020  Biso   1.000  C
  C110     1.0000 0.60890  0.30445  0.16450  Biso   1.000  C
  N38      1.0000 0.08767  0.54383  0.50663  Biso   1.000  N
  C111     1.0000 0.21047  0.60523  0.50353  Biso   1.000  C
  C112     1.0000 0.27557  0.63778  0.49783  Biso   1.000  C
  N39      1.0000 0.75433  0.87717  0.83997  Biso   1.000  N
  C113     1.0000 0.87713  0.93857  0.83687  Biso   1.000  C
  C114     1.0000 0.94223  0.97112  0.83117  Biso   1.000  C
  N40      1.0000 0.78950  0.21050  0.17330  Biso   1.000  N
  C115     1.0000 0.72810  0.27190  0.17020  Biso   1.000  C
  C116     1.0000 0.69555  0.30445  0.16450  Biso   1.000  C
  N41      1.0000 0.45617  0.54383  0.50663  Biso   1.000  N
  C117     1.0000 0.39477  0.60523  0.50353  Biso   1.000  C
  C118     1.0000 0.36222  0.63778  0.49783  Biso   1.000  C
  N42      1.0000 0.12283  0.87717  0.83997  Biso   1.000  N
  C119     1.0000 0.06143  0.93857  0.83687  Biso   1.000  C
  C120     1.0000 0.02888  0.97112  0.83117  Biso   1.000  C
  N43      1.0000 0.78950  0.57900  0.17330  Biso   1.000  N
  C121     1.0000 0.72810  0.45620  0.17020  Biso   1.000  C
  C122     1.0000 0.69555  0.39110  0.16450  Biso   1.000  C
  N44      1.0000 0.45617  0.91233  0.50663  Biso   1.000  N
  C123     1.0000 0.39477  0.78953  0.50353  Biso   1.000  C
  C124     1.0000 0.36222  0.72443  0.49783  Biso   1.000  C
  N45      1.0000 0.12283  0.24567  0.83997  Biso   1.000  N
  C125     1.0000 0.06143  0.12287  0.83687  Biso   1.000  C
  C126     1.0000 0.02888  0.05777  0.83117  Biso   1.000  C
  N46      1.0000 0.21050  0.42100  0.82670  Biso   1.000  N
  C127     1.0000 0.27190  0.54380  0.82980  Biso   1.000  C
  C128     1.0000 0.30445  0.60890  0.83550  Biso   1.000  C
  N47      1.0000 0.87717  0.75433  0.16003  Biso   1.000  N
  C129     1.0000 0.93857  0.87713  0.16313  Biso   1.000  C
  C130     1.0000 0.97112  0.94223  0.16883  Biso   1.000  C
  N48      1.0000 0.54383  0.08767  0.49337  Biso   1.000  N
  C131     1.0000 0.60523  0.21047  0.49647  Biso   1.000  C
  C132     1.0000 0.63778  0.27557  0.50217  Biso   1.000  C
  N49      1.0000 0.21050  0.78950  0.82670  Biso   1.000  N
  C133     1.0000 0.27190  0.72810  0.82980  Biso   1.000  C
  C134     1.0000 0.30445  0.69555  0.83550  Biso   1.000  C
  N50      1.0000 0.87717  0.12283  0.16003  Biso   1.000  N
  C135     1.0000 0.93857  0.06143  0.16313  Biso   1.000  C
  C136     1.0000 0.97112  0.02888  0.16883  Biso   1.000  C
  N51      1.0000 0.54383  0.45617  0.49337  Biso   1.000  N
  C137     1.0000 0.60523  0.39477  0.49647  Biso   1.000  C
  C138     1.0000 0.63778  0.36222  0.50217  Biso   1.000  C
  N52      1.0000 0.57900  0.78950  0.82670  Biso   1.000  N
  C139     1.0000 0.45620  0.72810  0.82980  Biso   1.000  C
  C140     1.0000 0.39110  0.69555  0.83550  Biso   1.000  C
  N53      1.0000 0.24567  0.12283  0.16003  Biso   1.000  N
  C141     1.0000 0.12287  0.06143  0.16313  Biso   1.000  C
  C142     1.0000 0.05777  0.02888  0.16883  Biso   1.000  C
  N54      1.0000 0.91233  0.45617  0.49337  Biso   1.000  N
  C143     1.0000 0.78953  0.39477  0.49647  Biso   1.000  C
  C144     1.0000 0.72443  0.36222  0.50217  Biso   1.000  C
  N55      1.0000 0.63614  0.36386  0.16540  Biso   1.000  N
  N56      1.0000 0.30281  0.69719  0.49873  Biso   1.000  N
  N57      1.0000 0.96947  0.03053  0.83207  Biso   1.000  N
  N58      1.0000 0.63614  0.27228  0.16540  Biso   1.000  N
  N59      1.0000 0.30281  0.60561  0.49873  Biso   1.000  N
  N60      1.0000 0.96947  0.93895  0.83207  Biso   1.000  N
  N61      1.0000 0.72772  0.36386  0.16540  Biso   1.000  N
  N62      1.0000 0.39439  0.69719  0.49873  Biso   1.000  N
  N63      1.0000 0.06105  0.03053  0.83207  Biso   1.000  N
  N64      1.0000 0.36386  0.63614  0.83460  Biso   1.000  N
  N65      1.0000 0.03053  0.96947  0.16793  Biso   1.000  N
  N66      1.0000 0.69719  0.30281  0.50127  Biso   1.000  N
  N67      1.0000 0.27228  0.63614  0.83460  Biso   1.000  N
  N68      1.0000 0.93895  0.96947  0.16793  Biso   1.000  N
  N69      1.0000 0.60561  0.30281  0.50127  Biso   1.000  N
  N70      1.0000 0.36386  0.72772  0.83460  Biso   1.000  N
  N71      1.0000 0.03053  0.06105  0.16793  Biso   1.000  N
  N72      1.0000 0.69719  0.39439  0.50127  Biso   1.000  N
