data_image0
_cell_length_a       9.10303
_cell_length_b       15.4537
_cell_length_c       15.4537
_cell_angle_alpha    63.7576
_cell_angle_beta     78.6764
_cell_angle_gamma    101.324

_symmetry_space_group_name_H-M    P 1
_symmetry_int_tables_number       1

loop_
  _symmetry_equiv_pos_as_xyz
  'x, y, z'

loop_
  _atom_site_label
  _atom_site_occupancy
  _atom_site_fract_x
  _atom_site_fract_y
  _atom_site_fract_z
  _atom_site_thermal_displace_type
  _atom_site_B_iso_or_equiv
  _atom_site_type_symbol
  Fe1      1.0000 0.50000  0.50000  0.00000  Biso   1.000  Fe
  Fe2      1.0000 0.50000  0.00000  0.50000  Biso   1.000  Fe
  Fe3      1.0000 0.00000  0.50000  0.50000  Biso   1.000  Fe
  Ag1      1.0000 0.30437  0.60874  0.69563  Biso   1.000  Ag
  Ag2      1.0000 0.00000  0.69563  0.69563  Biso   1.000  Ag
  Ag3      1.0000 0.69563  0.69563  0.60874  Biso   1.000  Ag
  Ag4      1.0000 0.69563  0.39126  0.30437  Biso   1.000  Ag
  Ag5      1.0000 0.00000  0.30437  0.30437  Biso   1.000  Ag
  Ag6      1.0000 0.30437  0.30437  0.39126  Biso   1.000  Ag
  H1       1.0000 0.47730  0.57270  0.14860  Biso   1.000  H
  H2       1.0000 0.52960  0.72010  0.15440  Biso   1.000  H
  H3       1.0000 0.62590  0.14860  0.27870  Biso   1.000  H
  H4       1.0000 0.68400  0.15440  0.12550  Biso   1.000  H
  H5       1.0000 0.90460  0.27870  0.57270  Biso   1.000  H
  H6       1.0000 0.80950  0.12550  0.72010  Biso   1.000  H
  H7       1.0000 0.37410  0.27870  0.14860  Biso   1.000  H
  H8       1.0000 0.31600  0.12550  0.15440  Biso   1.000  H
  H9       1.0000 0.09540  0.57270  0.27870  Biso   1.000  H
  H10      1.0000 0.19050  0.72010  0.12550  Biso   1.000  H
  H11      1.0000 0.52270  0.14860  0.57270  Biso   1.000  H
  H12      1.0000 0.47040  0.15440  0.72010  Biso   1.000  H
  H13      1.0000 0.52270  0.42730  0.85140  Biso   1.000  H
  H14      1.0000 0.47040  0.27990  0.84560  Biso   1.000  H
  H15      1.0000 0.37410  0.85140  0.72130  Biso   1.000  H
  H16      1.0000 0.31600  0.84560  0.87450  Biso   1.000  H
  H17      1.0000 0.09540  0.72130  0.42730  Biso   1.000  H
  H18      1.0000 0.19050  0.87450  0.27990  Biso   1.000  H
  H19      1.0000 0.62590  0.72130  0.85140  Biso   1.000  H
  H20      1.0000 0.68400  0.87450  0.84560  Biso   1.000  H
  H21      1.0000 0.90460  0.42730  0.72130  Biso   1.000  H
  H22      1.0000 0.80950  0.27990  0.87450  Biso   1.000  H
  H23      1.0000 0.47730  0.85140  0.42730  Biso   1.000  H
  H24      1.0000 0.52960  0.84560  0.27990  Biso   1.000  H
  C1       1.0000 0.52140  0.63440  0.08760  Biso   1.000  C
  C2       1.0000 0.55100  0.72260  0.09180  Biso   1.000  C
  C3       1.0000 0.36460  0.58600  0.82320  Biso   1.000  C
  C4       1.0000 0.60900  0.08760  0.27800  Biso   1.000  C
  C5       1.0000 0.64280  0.09180  0.18560  Biso   1.000  C
  C6       1.0000 0.18780  0.82320  0.59080  Biso   1.000  C
  C7       1.0000 0.88700  0.27800  0.63440  Biso   1.000  C
  C8       1.0000 0.82840  0.18560  0.72260  Biso   1.000  C
  C9       1.0000 0.77860  0.59080  0.58600  Biso   1.000  C
  C10      1.0000 0.39100  0.27800  0.08760  Biso   1.000  C
  C11      1.0000 0.35720  0.18560  0.09180  Biso   1.000  C
  C12      1.0000 0.81220  0.59080  0.82320  Biso   1.000  C
  C13      1.0000 0.11300  0.63440  0.27800  Biso   1.000  C
  C14      1.0000 0.17160  0.72260  0.18560  Biso   1.000  C
  C15      1.0000 0.22140  0.58600  0.59080  Biso   1.000  C
  C16      1.0000 0.47860  0.08760  0.63440  Biso   1.000  C
  C17      1.0000 0.44900  0.09180  0.72260  Biso   1.000  C
  C18      1.0000 0.63540  0.82320  0.58600  Biso   1.000  C
  C19      1.0000 0.47860  0.36560  0.91240  Biso   1.000  C
  C20      1.0000 0.44900  0.27740  0.90820  Biso   1.000  C
  C21      1.0000 0.63540  0.41400  0.17680  Biso   1.000  C
  C22      1.0000 0.39100  0.91240  0.72200  Biso   1.000  C
  C23      1.0000 0.35720  0.90820  0.81440  Biso   1.000  C
  C24      1.0000 0.81220  0.17680  0.40920  Biso   1.000  C
  C25      1.0000 0.11300  0.72200  0.36560  Biso   1.000  C
  C26      1.0000 0.17160  0.81440  0.27740  Biso   1.000  C
  C27      1.0000 0.22140  0.40920  0.41400  Biso   1.000  C
  C28      1.0000 0.60900  0.72200  0.91240  Biso   1.000  C
  C29      1.0000 0.64280  0.81440  0.90820  Biso   1.000  C
  C30      1.0000 0.18780  0.40920  0.17680  Biso   1.000  C
  C31      1.0000 0.88700  0.36560  0.72200  Biso   1.000  C
  C32      1.0000 0.82840  0.27740  0.81440  Biso   1.000  C
  C33      1.0000 0.77860  0.41400  0.40920  Biso   1.000  C
  C34      1.0000 0.52140  0.91240  0.36560  Biso   1.000  C
  C35      1.0000 0.55100  0.90820  0.27740  Biso   1.000  C
  C36      1.0000 0.36460  0.17680  0.41400  Biso   1.000  C
  C37      1.0000 0.61500  0.81800  0.00000  Biso   1.000  C
  C38      1.0000 0.65110  0.91430  0.00000  Biso   1.000  C
  C39      1.0000 0.61500  1.00000  0.18200  Biso   1.000  C
  C40      1.0000 0.65110  0.00000  0.08570  Biso   1.000  C
  C41      1.0000 0.79700  0.18200  0.81800  Biso   1.000  C
  C42      1.0000 0.73680  0.08570  0.91430  Biso   1.000  C
  C43      1.0000 0.38500  0.18200  0.00000  Biso   1.000  C
  C44      1.0000 0.34890  0.08570  0.00000  Biso   1.000  C
  C45      1.0000 0.20300  0.81800  0.18200  Biso   1.000  C
  C46      1.0000 0.26320  0.91430  0.08570  Biso   1.000  C
  C47      1.0000 0.38500  1.00000  0.81800  Biso   1.000  C
  C48      1.0000 0.34890  1.00000  0.91430  Biso   1.000  C
  N1       1.0000 0.40660  0.55610  0.89320  Biso   1.000  N
  N2       1.0000 0.29980  0.89320  0.55070  Biso   1.000  N
  N3       1.0000 0.85050  0.55070  0.55610  Biso   1.000  N
  N4       1.0000 0.70020  0.55070  0.89320  Biso   1.000  N
  N5       1.0000 0.14950  0.55610  0.55070  Biso   1.000  N
  N6       1.0000 0.59340  0.89320  0.55610  Biso   1.000  N
  N7       1.0000 0.59340  0.44390  0.10680  Biso   1.000  N
  N8       1.0000 0.70020  0.10680  0.44930  Biso   1.000  N
  N9       1.0000 0.14950  0.44930  0.44390  Biso   1.000  N
  N10      1.0000 0.29980  0.44930  0.10680  Biso   1.000  N
  N11      1.0000 0.85050  0.44390  0.44930  Biso   1.000  N
  N12      1.0000 0.40660  0.10680  0.44390  Biso   1.000  N
  N13      1.0000 0.55270  0.63200  0.00000  Biso   1.000  N
  N14      1.0000 0.55270  1.00000  0.36800  Biso   1.000  N
  N15      1.0000 0.92070  0.36800  0.63200  Biso   1.000  N
  N16      1.0000 0.44730  0.36800  0.00000  Biso   1.000  N
  N17      1.0000 0.07930  0.63200  0.36800  Biso   1.000  N
  N18      1.0000 0.44730  1.00000  0.63200  Biso   1.000  N
  N19      1.0000 0.70555  0.00000  0.91035  Biso   1.000  N
  N20      1.0000 0.61590  0.91035  0.08965  Biso   1.000  N
  N21      1.0000 0.70555  0.08965  0.00000  Biso   1.000  N
  N22      1.0000 0.38410  0.08965  0.91035  Biso   1.000  N
  N23      1.0000 0.29445  0.00000  0.08965  Biso   1.000  N
  N24      1.0000 0.29445  0.91035  0.00000  Biso   1.000  N
