data_image0
_cell_length_a       9.75117
_cell_length_b       15.8547
_cell_length_c       15.8547
_cell_angle_alpha    64.0902
_cell_angle_beta     78.1698
_cell_angle_gamma    101.83

_symmetry_space_group_name_H-M    P 1
_symmetry_int_tables_number       1

loop_
  _symmetry_equiv_pos_as_xyz
  'x, y, z'

loop_
  _atom_site_label
  _atom_site_occupancy
  _atom_site_fract_x
  _atom_site_fract_y
  _atom_site_fract_z
  _atom_site_thermal_displace_type
  _atom_site_B_iso_or_equiv
  _atom_site_type_symbol
  Fe1      1.0000 0.00000  0.50000  0.00000  Biso   1.000  Fe
  Fe2      1.0000 0.00000  0.00000  0.50000  Biso   1.000  Fe
  Fe3      1.0000 0.50000  0.50000  0.50000  Biso   1.000  Fe
  H1       1.0000 0.97600  0.58380  0.14420  Biso   1.000  H
  H2       1.0000 0.02420  0.72890  0.14890  Biso   1.000  H
  H3       1.0000 0.12020  0.14420  0.27200  Biso   1.000  H
  H4       1.0000 0.17310  0.14890  0.12220  Biso   1.000  H
  H5       1.0000 0.39220  0.27200  0.58380  Biso   1.000  H
  H6       1.0000 0.29530  0.12220  0.72890  Biso   1.000  H
  H7       1.0000 0.87980  0.27200  0.14420  Biso   1.000  H
  H8       1.0000 0.82690  0.12220  0.14890  Biso   1.000  H
  H9       1.0000 0.60780  0.58380  0.27200  Biso   1.000  H
  H10      1.0000 0.70470  0.72890  0.12220  Biso   1.000  H
  H11      1.0000 0.02400  0.14420  0.58380  Biso   1.000  H
  H12      1.0000 0.97580  0.14890  0.72890  Biso   1.000  H
  H13      1.0000 0.02400  0.41620  0.85580  Biso   1.000  H
  H14      1.0000 0.97580  0.27110  0.85110  Biso   1.000  H
  H15      1.0000 0.87980  0.85580  0.72800  Biso   1.000  H
  H16      1.0000 0.82690  0.85110  0.87780  Biso   1.000  H
  H17      1.0000 0.60780  0.72800  0.41620  Biso   1.000  H
  H18      1.0000 0.70470  0.87780  0.27110  Biso   1.000  H
  H19      1.0000 0.12020  0.72800  0.85580  Biso   1.000  H
  H20      1.0000 0.17310  0.87780  0.85110  Biso   1.000  H
  H21      1.0000 0.39220  0.41620  0.72800  Biso   1.000  H
  H22      1.0000 0.29530  0.27110  0.87780  Biso   1.000  H
  H23      1.0000 0.97600  0.85580  0.41620  Biso   1.000  H
  H24      1.0000 0.02420  0.85110  0.27110  Biso   1.000  H
  Au1      1.0000 0.20784  0.41568  0.29216  Biso   1.000  Au
  Au2      1.0000 0.50000  0.29216  0.29216  Biso   1.000  Au
  Au3      1.0000 0.79216  0.29216  0.41568  Biso   1.000  Au
  Au4      1.0000 0.79216  0.58432  0.70784  Biso   1.000  Au
  Au5      1.0000 0.50000  0.70784  0.70784  Biso   1.000  Au
  Au6      1.0000 0.20784  0.70784  0.58432  Biso   1.000  Au
  C1       1.0000 0.01530  0.64390  0.08460  Biso   1.000  C
  C2       1.0000 0.04480  0.73060  0.08820  Biso   1.000  C
  C3       1.0000 0.13300  0.42420  0.18260  Biso   1.000  C
  C4       1.0000 0.09990  0.08460  0.27150  Biso   1.000  C
  C5       1.0000 0.13300  0.08820  0.18120  Biso   1.000  C
  C6       1.0000 0.31560  0.18260  0.39320  Biso   1.000  C
  C7       1.0000 0.37140  0.27150  0.64390  Biso   1.000  C
  C8       1.0000 0.31420  0.18120  0.73060  Biso   1.000  C
  C9       1.0000 0.70880  0.39320  0.42420  Biso   1.000  C
  C10      1.0000 0.90010  0.27150  0.08460  Biso   1.000  C
  C11      1.0000 0.86700  0.18120  0.08820  Biso   1.000  C
  C12      1.0000 0.68440  0.39320  0.18260  Biso   1.000  C
  C13      1.0000 0.62860  0.64390  0.27150  Biso   1.000  C
  C14      1.0000 0.68580  0.73060  0.18120  Biso   1.000  C
  C15      1.0000 0.29120  0.42420  0.39320  Biso   1.000  C
  C16      1.0000 0.98470  0.08460  0.64390  Biso   1.000  C
  C17      1.0000 0.95520  0.08820  0.73060  Biso   1.000  C
  C18      1.0000 0.86700  0.18260  0.42420  Biso   1.000  C
  C19      1.0000 0.98470  0.35610  0.91540  Biso   1.000  C
  C20      1.0000 0.95520  0.26940  0.91180  Biso   1.000  C
  C21      1.0000 0.86700  0.57580  0.81740  Biso   1.000  C
  C22      1.0000 0.90010  0.91540  0.72850  Biso   1.000  C
  C23      1.0000 0.86700  0.91180  0.81880  Biso   1.000  C
  C24      1.0000 0.68440  0.81740  0.60680  Biso   1.000  C
  C25      1.0000 0.62860  0.72850  0.35610  Biso   1.000  C
  C26      1.0000 0.68580  0.81880  0.26940  Biso   1.000  C
  C27      1.0000 0.29120  0.60680  0.57580  Biso   1.000  C
  C28      1.0000 0.09990  0.72850  0.91540  Biso   1.000  C
  C29      1.0000 0.13300  0.81880  0.91180  Biso   1.000  C
  C30      1.0000 0.31560  0.60680  0.81740  Biso   1.000  C
  C31      1.0000 0.37140  0.35610  0.72850  Biso   1.000  C
  C32      1.0000 0.31420  0.26940  0.81880  Biso   1.000  C
  C33      1.0000 0.70880  0.57580  0.60680  Biso   1.000  C
  C34      1.0000 0.01530  0.91540  0.35610  Biso   1.000  C
  C35      1.0000 0.04480  0.91180  0.26940  Biso   1.000  C
  C36      1.0000 0.13300  0.81740  0.57580  Biso   1.000  C
  C37      1.0000 0.10585  0.82015  0.00000  Biso   1.000  C
  C38      1.0000 0.13995  0.91675  0.00000  Biso   1.000  C
  C39      1.0000 0.10585  0.00000  0.17985  Biso   1.000  C
  C40      1.0000 0.13995  0.00000  0.08325  Biso   1.000  C
  C41      1.0000 0.28570  0.17985  0.82015  Biso   1.000  C
  C42      1.0000 0.22320  0.08325  0.91675  Biso   1.000  C
  C43      1.0000 0.89415  0.17985  0.00000  Biso   1.000  C
  C44      1.0000 0.86005  0.08325  0.00000  Biso   1.000  C
  C45      1.0000 0.71430  0.82015  0.17985  Biso   1.000  C
  C46      1.0000 0.77680  0.91675  0.08325  Biso   1.000  C
  C47      1.0000 0.89415  0.00000  0.82015  Biso   1.000  C
  C48      1.0000 0.86005  0.00000  0.91675  Biso   1.000  C
  N1       1.0000 0.09060  0.44190  0.11750  Biso   1.000  N
  N2       1.0000 0.20810  0.11750  0.44060  Biso   1.000  N
  N3       1.0000 0.64870  0.44060  0.44190  Biso   1.000  N
  N4       1.0000 0.79190  0.44060  0.11750  Biso   1.000  N
  N5       1.0000 0.35130  0.44190  0.44060  Biso   1.000  N
  N6       1.0000 0.90940  0.11750  0.44190  Biso   1.000  N
  N7       1.0000 0.90940  0.55810  0.88250  Biso   1.000  N
  N8       1.0000 0.79190  0.88250  0.55940  Biso   1.000  N
  N9       1.0000 0.35130  0.55940  0.55810  Biso   1.000  N
  N10      1.0000 0.20810  0.55940  0.88250  Biso   1.000  N
  N11      1.0000 0.64870  0.55810  0.55940  Biso   1.000  N
  N12      1.0000 0.09060  0.88250  0.55810  Biso   1.000  N
  N13      1.0000 0.04020  0.64180  0.00000  Biso   1.000  N
  N14      1.0000 0.04020  1.00000  0.35820  Biso   1.000  N
  N15      1.0000 0.39840  0.35820  0.64180  Biso   1.000  N
  N16      1.0000 0.95980  0.35820  0.00000  Biso   1.000  N
  N17      1.0000 0.60160  0.64180  0.35820  Biso   1.000  N
  N18      1.0000 0.95980  0.00000  0.64180  Biso   1.000  N
  N19      1.0000 0.10860  0.91210  0.08790  Biso   1.000  N
  N20      1.0000 0.19650  0.08790  0.00000  Biso   1.000  N
  N21      1.0000 0.19650  0.00000  0.91210  Biso   1.000  N
  N22      1.0000 0.80350  0.00000  0.08790  Biso   1.000  N
  N23      1.0000 0.80350  0.91210  0.00000  Biso   1.000  N
  N24      1.0000 0.89140  0.08790  0.91210  Biso   1.000  N
