data_image0
_cell_length_a       9.96963
_cell_length_b       15.7389
_cell_length_c       15.7389
_cell_angle_alpha    64.3339
_cell_angle_beta     77.8105
_cell_angle_gamma    102.19

_symmetry_space_group_name_H-M    P 1
_symmetry_int_tables_number       1

loop_
  _symmetry_equiv_pos_as_xyz
  'x, y, z'

loop_
  _atom_site_label
  _atom_site_occupancy
  _atom_site_fract_x
  _atom_site_fract_y
  _atom_site_fract_z
  _atom_site_thermal_displace_type
  _atom_site_B_iso_or_equiv
  _atom_site_type_symbol
  Fe1      1.0000 0.50000  0.00000  0.50000  Biso   1.000  Fe
  Fe2      1.0000 0.00000  0.50000  0.50000  Biso   1.000  Fe
  Fe3      1.0000 0.50000  0.50000  0.00000  Biso   1.000  Fe
  Ag1      1.0000 0.70338  0.70338  0.59324  Biso   1.000  Ag
  Ag2      1.0000 0.29662  0.59324  0.70338  Biso   1.000  Ag
  Ag3      1.0000 0.00000  0.70338  0.70338  Biso   1.000  Ag
  Ag4      1.0000 0.29662  0.29662  0.40676  Biso   1.000  Ag
  Ag5      1.0000 0.70338  0.40676  0.29662  Biso   1.000  Ag
  Ag6      1.0000 0.00000  0.29662  0.29662  Biso   1.000  Ag
  H1       1.0000 0.46910  0.85370  0.41960  Biso   1.000  H
  H2       1.0000 0.51680  0.85040  0.27200  Biso   1.000  H
  H3       1.0000 0.88870  0.41960  0.72670  Biso   1.000  H
  H4       1.0000 0.78880  0.27200  0.87760  Biso   1.000  H
  H5       1.0000 0.61540  0.72670  0.85370  Biso   1.000  H
  H6       1.0000 0.66640  0.87760  0.85040  Biso   1.000  H
  H7       1.0000 0.11130  0.72670  0.41960  Biso   1.000  H
  H8       1.0000 0.21120  0.87760  0.27200  Biso   1.000  H
  H9       1.0000 0.38460  0.85370  0.72670  Biso   1.000  H
  H10      1.0000 0.33360  0.85040  0.87760  Biso   1.000  H
  H11      1.0000 0.53090  0.41960  0.85370  Biso   1.000  H
  H12      1.0000 0.48320  0.27200  0.85040  Biso   1.000  H
  H13      1.0000 0.53090  0.14630  0.58040  Biso   1.000  H
  H14      1.0000 0.48320  0.14960  0.72800  Biso   1.000  H
  H15      1.0000 0.11130  0.58040  0.27330  Biso   1.000  H
  H16      1.0000 0.21120  0.72800  0.12240  Biso   1.000  H
  H17      1.0000 0.38460  0.27330  0.14630  Biso   1.000  H
  H18      1.0000 0.33360  0.12240  0.14960  Biso   1.000  H
  H19      1.0000 0.88870  0.27330  0.58040  Biso   1.000  H
  H20      1.0000 0.78880  0.12240  0.72800  Biso   1.000  H
  H21      1.0000 0.61540  0.14630  0.27330  Biso   1.000  H
  H22      1.0000 0.66640  0.14960  0.12240  Biso   1.000  H
  H23      1.0000 0.46910  0.58040  0.14630  Biso   1.000  H
  H24      1.0000 0.51680  0.72800  0.14960  Biso   1.000  H
  C1       1.0000 0.51110  0.91410  0.35880  Biso   1.000  C
  C2       1.0000 0.53960  0.91140  0.27090  Biso   1.000  C
  C3       1.0000 0.62710  0.81770  0.57800  Biso   1.000  C
  C4       1.0000 0.86990  0.35880  0.72710  Biso   1.000  C
  C5       1.0000 0.81050  0.27090  0.81770  Biso   1.000  C
  C6       1.0000 0.20510  0.57800  0.60430  Biso   1.000  C
  C7       1.0000 0.59700  0.72710  0.91410  Biso   1.000  C
  C8       1.0000 0.62820  0.81770  0.91140  Biso   1.000  C
  C9       1.0000 0.80940  0.60430  0.81770  Biso   1.000  C
  C10      1.0000 0.13010  0.72710  0.35880  Biso   1.000  C
  C11      1.0000 0.18950  0.81770  0.27090  Biso   1.000  C
  C12      1.0000 0.79490  0.60430  0.57800  Biso   1.000  C
  C13      1.0000 0.40300  0.91410  0.72710  Biso   1.000  C
  C14      1.0000 0.37180  0.91140  0.81770  Biso   1.000  C
  C15      1.0000 0.19060  0.81770  0.60430  Biso   1.000  C
  C16      1.0000 0.48890  0.35880  0.91410  Biso   1.000  C
  C17      1.0000 0.46040  0.27090  0.91140  Biso   1.000  C
  C18      1.0000 0.37290  0.57800  0.81770  Biso   1.000  C
  C19      1.0000 0.48890  0.08590  0.64120  Biso   1.000  C
  C20      1.0000 0.46040  0.08860  0.72910  Biso   1.000  C
  C21      1.0000 0.37290  0.18230  0.42200  Biso   1.000  C
  C22      1.0000 0.13010  0.64120  0.27290  Biso   1.000  C
  C23      1.0000 0.18950  0.72910  0.18230  Biso   1.000  C
  C24      1.0000 0.79490  0.42200  0.39570  Biso   1.000  C
  C25      1.0000 0.40300  0.27290  0.08590  Biso   1.000  C
  C26      1.0000 0.37180  0.18230  0.08860  Biso   1.000  C
  C27      1.0000 0.19060  0.39570  0.18230  Biso   1.000  C
  C28      1.0000 0.86990  0.27290  0.64120  Biso   1.000  C
  C29      1.0000 0.81050  0.18230  0.72910  Biso   1.000  C
  C30      1.0000 0.20510  0.39570  0.42200  Biso   1.000  C
  C31      1.0000 0.59700  0.08590  0.27290  Biso   1.000  C
  C32      1.0000 0.62820  0.08860  0.18230  Biso   1.000  C
  C33      1.0000 0.80940  0.18230  0.39570  Biso   1.000  C
  C34      1.0000 0.51110  0.64120  0.08590  Biso   1.000  C
  C35      1.0000 0.53960  0.72910  0.08860  Biso   1.000  C
  C36      1.0000 0.62710  0.42200  0.18230  Biso   1.000  C
  C37      1.0000 0.60215  0.00000  0.18145  Biso   1.000  C
  C38      1.0000 0.63450  0.00000  0.08320  Biso   1.000  C
  C39      1.0000 0.78360  0.18145  0.81855  Biso   1.000  C
  C40      1.0000 0.71770  0.08320  0.91680  Biso   1.000  C
  C41      1.0000 0.60215  0.81855  1.00000  Biso   1.000  C
  C42      1.0000 0.63450  0.91680  0.00000  Biso   1.000  C
  C43      1.0000 0.21640  0.81855  0.18145  Biso   1.000  C
  C44      1.0000 0.28230  0.91680  0.08320  Biso   1.000  C
  C45      1.0000 0.39785  0.00000  0.81855  Biso   1.000  C
  C46      1.0000 0.36550  1.00000  0.91680  Biso   1.000  C
  C47      1.0000 0.39785  0.18145  0.00000  Biso   1.000  C
  C48      1.0000 0.36550  0.08320  0.00000  Biso   1.000  C
  N1       1.0000 0.58790  0.88580  0.55550  Biso   1.000  N
  N2       1.0000 0.14340  0.55550  0.55870  Biso   1.000  N
  N3       1.0000 0.70210  0.55870  0.88580  Biso   1.000  N
  N4       1.0000 0.85660  0.55870  0.55550  Biso   1.000  N
  N5       1.0000 0.29790  0.88580  0.55870  Biso   1.000  N
  N6       1.0000 0.41210  0.55550  0.88580  Biso   1.000  N
  N7       1.0000 0.41210  0.11420  0.44450  Biso   1.000  N
  N8       1.0000 0.85660  0.44450  0.44130  Biso   1.000  N
  N9       1.0000 0.29790  0.44130  0.11420  Biso   1.000  N
  N10      1.0000 0.14340  0.44130  0.44450  Biso   1.000  N
  N11      1.0000 0.70210  0.11420  0.44130  Biso   1.000  N
  N12      1.0000 0.58790  0.44450  0.11420  Biso   1.000  N
  N13      1.0000 0.54150  0.00000  0.36010  Biso   1.000  N
  N14      1.0000 0.90160  0.36010  0.63990  Biso   1.000  N
  N15      1.0000 0.54150  0.63990  0.00000  Biso   1.000  N
  N16      1.0000 0.09840  0.63990  0.36010  Biso   1.000  N
  N17      1.0000 0.45850  0.00000  0.63990  Biso   1.000  N
  N18      1.0000 0.45850  0.36010  0.00000  Biso   1.000  N
  N19      1.0000 0.60542  0.91178  0.08822  Biso   1.000  N
  N20      1.0000 0.69364  0.08822  0.00000  Biso   1.000  N
  N21      1.0000 0.69364  1.00000  0.91178  Biso   1.000  N
  N22      1.0000 0.30636  0.00000  0.08822  Biso   1.000  N
  N23      1.0000 0.30636  0.91178  1.00000  Biso   1.000  N
  N24      1.0000 0.39458  0.08822  0.91178  Biso   1.000  N
