data_image0
_cell_length_a       12.109
_cell_length_b       9.209
_cell_length_c       16.081
_cell_angle_alpha    90
_cell_angle_beta     92.94
_cell_angle_gamma    90

_symmetry_space_group_name_H-M    "P 1"
_symmetry_int_tables_number       1

loop_
  _symmetry_equiv_pos_as_xyz
  'x, y, z'

loop_
  _atom_site_label
  _atom_site_occupancy
  _atom_site_fract_x
  _atom_site_fract_y
  _atom_site_fract_z
  _atom_site_thermal_displace_type
  _atom_site_B_iso_or_equiv
  _atom_site_type_symbol
  Zn1      1.0000 0.00784  0.75695  0.79829  Biso   1.000  Zn
  Zn2      1.0000 0.22118  0.75196  0.58678  Biso   1.000  Zn
  Zn3      1.0000 0.23040  0.67382  0.99901  Biso   1.000  Zn
  P1       1.0000 0.96237  0.83520  0.60530  Biso   1.000  P
  H1       1.0000 0.96400  0.96000  0.56700  Biso   1.000  H
  P2       1.0000 0.85636  0.62580  0.93653  Biso   1.000  P
  H2       1.0000 0.94200  0.66300  0.98300  Biso   1.000  H
  P3       1.0000 0.13742  0.96920  0.93287  Biso   1.000  P
  H3       1.0000 0.07400  0.07400  0.95900  Biso   1.000  H
  P4       1.0000 0.20440  0.52630  0.81517  Biso   1.000  P
  H4       1.0000 0.27100  0.55000  0.75500  Biso   1.000  H
  O1       1.0000 0.06350  0.75480  0.58430  Biso   1.000  O
  O2       1.0000 0.94390  0.83930  0.69610  Biso   1.000  O
  O3       1.0000 0.08900  0.57610  0.78690  Biso   1.000  O
  O4       1.0000 0.08100  0.90960  0.85550  Biso   1.000  O
  O5       1.0000 0.87620  0.68750  0.85040  Biso   1.000  O
  O6       1.0000 0.75510  0.69810  0.97090  Biso   1.000  O
  O7       1.0000 0.19990  0.36470  0.82990  Biso   1.000  O
  O8       1.0000 0.24290  0.04550  0.91480  Biso   1.000  O
  O9       1.0000 0.15310  0.85810  0.00220  Biso   1.000  O
  O10      1.0000 0.86610  0.76260  0.55640  Biso   1.000  O
  O11      1.0000 0.84730  0.46210  0.93550  Biso   1.000  O
  O12      1.0000 0.25570  0.61090  0.88720  Biso   1.000  O
  Zn4      1.0000 0.49216  0.25695  0.70171  Biso   1.000  Zn
  Zn5      1.0000 0.27882  0.25196  0.91322  Biso   1.000  Zn
  Zn6      1.0000 0.26960  0.17382  0.50099  Biso   1.000  Zn
  P5       1.0000 0.53763  0.33520  0.89470  Biso   1.000  P
  H5       1.0000 0.53600  0.46000  0.93300  Biso   1.000  H
  P6       1.0000 0.64364  0.12580  0.56347  Biso   1.000  P
  H6       1.0000 0.55800  0.16300  0.51700  Biso   1.000  H
  P7       1.0000 0.36258  0.46920  0.56713  Biso   1.000  P
  H7       1.0000 0.42600  0.57400  0.54100  Biso   1.000  H
  P8       1.0000 0.29560  0.02630  0.68483  Biso   1.000  P
  H8       1.0000 0.22900  0.05000  0.74500  Biso   1.000  H
  O13      1.0000 0.43650  0.25480  0.91570  Biso   1.000  O
  O14      1.0000 0.55610  0.33930  0.80390  Biso   1.000  O
  O15      1.0000 0.41100  0.07610  0.71310  Biso   1.000  O
  O16      1.0000 0.41900  0.40960  0.64450  Biso   1.000  O
  O17      1.0000 0.62380  0.18750  0.64960  Biso   1.000  O
  O18      1.0000 0.74490  0.19810  0.52910  Biso   1.000  O
  O19      1.0000 0.30010  0.86470  0.67010  Biso   1.000  O
  O20      1.0000 0.25710  0.54550  0.58520  Biso   1.000  O
  O21      1.0000 0.34690  0.35810  0.49780  Biso   1.000  O
  O22      1.0000 0.63390  0.26260  0.94360  Biso   1.000  O
  O23      1.0000 0.65270  0.96210  0.56450  Biso   1.000  O
  O24      1.0000 0.24430  0.11090  0.61280  Biso   1.000  O
  Zn7      1.0000 0.99216  0.24305  0.20171  Biso   1.000  Zn
  Zn8      1.0000 0.77882  0.24804  0.41322  Biso   1.000  Zn
  Zn9      1.0000 0.76960  0.32618  0.00099  Biso   1.000  Zn
  P9       1.0000 0.03763  0.16480  0.39470  Biso   1.000  P
  H9       1.0000 0.03600  0.04000  0.43300  Biso   1.000  H
  P10      1.0000 0.14364  0.37420  0.06347  Biso   1.000  P
  H10      1.0000 0.05800  0.33700  0.01700  Biso   1.000  H
  P11      1.0000 0.86258  0.03080  0.06713  Biso   1.000  P
  H11      1.0000 0.92600  0.92600  0.04100  Biso   1.000  H
  P12      1.0000 0.79560  0.47370  0.18483  Biso   1.000  P
  H12      1.0000 0.72900  0.45000  0.24500  Biso   1.000  H
  O25      1.0000 0.93650  0.24520  0.41570  Biso   1.000  O
  O26      1.0000 0.05610  0.16070  0.30390  Biso   1.000  O
  O27      1.0000 0.91100  0.42390  0.21310  Biso   1.000  O
  O28      1.0000 0.91900  0.09040  0.14450  Biso   1.000  O
  O29      1.0000 0.12380  0.31250  0.14960  Biso   1.000  O
  O30      1.0000 0.24490  0.30190  0.02910  Biso   1.000  O
  O31      1.0000 0.80010  0.63530  0.17010  Biso   1.000  O
  O32      1.0000 0.75710  0.95450  0.08520  Biso   1.000  O
  O33      1.0000 0.84690  0.14190  0.99780  Biso   1.000  O
  O34      1.0000 0.13390  0.23740  0.44360  Biso   1.000  O
  O35      1.0000 0.15270  0.53790  0.06450  Biso   1.000  O
  O36      1.0000 0.74430  0.38910  0.11280  Biso   1.000  O
  Zn10     1.0000 0.50784  0.74305  0.29829  Biso   1.000  Zn
  Zn11     1.0000 0.72118  0.74804  0.08678  Biso   1.000  Zn
  Zn12     1.0000 0.73040  0.82618  0.49901  Biso   1.000  Zn
  P13      1.0000 0.46237  0.66480  0.10530  Biso   1.000  P
  H13      1.0000 0.46400  0.54000  0.06700  Biso   1.000  H
  P14      1.0000 0.35636  0.87420  0.43653  Biso   1.000  P
  H14      1.0000 0.44200  0.83700  0.48300  Biso   1.000  H
  P15      1.0000 0.63742  0.53080  0.43287  Biso   1.000  P
  H15      1.0000 0.57400  0.42600  0.45900  Biso   1.000  H
  P16      1.0000 0.70440  0.97370  0.31517  Biso   1.000  P
  H16      1.0000 0.77100  0.95000  0.25500  Biso   1.000  H
  O37      1.0000 0.56350  0.74520  0.08430  Biso   1.000  O
  O38      1.0000 0.44390  0.66070  0.19610  Biso   1.000  O
  O39      1.0000 0.58900  0.92390  0.28690  Biso   1.000  O
  O40      1.0000 0.58100  0.59040  0.35550  Biso   1.000  O
  O41      1.0000 0.37620  0.81250  0.35040  Biso   1.000  O
  O42      1.0000 0.25510  0.80190  0.47090  Biso   1.000  O
  O43      1.0000 0.69990  0.13530  0.32990  Biso   1.000  O
  O44      1.0000 0.74290  0.45450  0.41480  Biso   1.000  O
  O45      1.0000 0.65310  0.64190  0.50220  Biso   1.000  O
  O46      1.0000 0.36610  0.73740  0.05640  Biso   1.000  O
  O47      1.0000 0.34730  0.03790  0.43550  Biso   1.000  O
  O48      1.0000 0.75570  0.88910  0.38720  Biso   1.000  O
