data_image0
_cell_length_a       8.4073
_cell_length_b       11.491
_cell_length_c       35.108
_cell_angle_alpha    90
_cell_angle_beta     90
_cell_angle_gamma    105.842

_symmetry_space_group_name_H-M    P 1
_symmetry_int_tables_number       1

loop_
  _symmetry_equiv_pos_as_xyz
  'x, y, z'

loop_
  _atom_site_label
  _atom_site_occupancy
  _atom_site_fract_x
  _atom_site_fract_y
  _atom_site_fract_z
  _atom_site_thermal_displace_type
  _atom_site_B_iso_or_equiv
  _atom_site_type_symbol
  Co1      1.0000 0.47425  0.50377  0.85219  Biso   1.000  Co
  Co2      1.0000 0.52575  0.99623  0.35219  Biso   1.000  Co
  Co3      1.0000 0.52575  0.49623  0.14781  Biso   1.000  Co
  Co4      1.0000 0.47425  0.00377  0.64781  Biso   1.000  Co
  H1       1.0000 0.25850  0.42910  0.96220  Biso   1.000  H
  H2       1.0000 0.32610  0.54170  0.01400  Biso   1.000  H
  H3       1.0000 0.47100  0.59200  0.06870  Biso   1.000  H
  H4       1.0000 0.18660  0.31730  0.12120  Biso   1.000  H
  H5       1.0000 0.03230  0.25990  0.06800  Biso   1.000  H
  H6       1.0000 0.84940  0.26370  0.02060  Biso   1.000  H
  H7       1.0000 0.85170  0.24560  0.90700  Biso   1.000  H
  H8       1.0000 0.58480  0.23310  0.01510  Biso   1.000  H
  H9       1.0000 0.30930  0.13660  0.01280  Biso   1.000  H
  H10      1.0000 0.35470  0.00490  0.91390  Biso   1.000  H
  H11      1.0000 0.63490  0.09530  0.91360  Biso   1.000  H
  H12      1.0000 0.53530  0.91620  0.83440  Biso   1.000  H
  H13      1.0000 0.86900  0.27070  0.81810  Biso   1.000  H
  H14      1.0000 0.77350  0.42970  0.83600  Biso   1.000  H
  H15      1.0000 0.32010  0.22930  0.83580  Biso   1.000  H
  H16      1.0000 0.40140  0.06350  0.81860  Biso   1.000  H
  H17      1.0000 0.89200  0.13250  0.77150  Biso   1.000  H
  H18      1.0000 0.86620  0.78180  0.78090  Biso   1.000  H
  H19      1.0000 0.97910  0.08750  0.70820  Biso   1.000  H
  H20      1.0000 0.18580  0.09590  0.66560  Biso   1.000  H
  H21      1.0000 0.37310  0.89200  0.72950  Biso   1.000  H
  H22      1.0000 0.16840  0.87270  0.77370  Biso   1.000  H
  H23      1.0000 0.74150  0.07090  0.46220  Biso   1.000  H
  H24      1.0000 0.67390  0.95830  0.51400  Biso   1.000  H
  H25      1.0000 0.52900  0.90800  0.56870  Biso   1.000  H
  H26      1.0000 0.81340  0.18270  0.62120  Biso   1.000  H
  H27      1.0000 0.96770  0.24010  0.56800  Biso   1.000  H
  H28      1.0000 0.15060  0.23630  0.52060  Biso   1.000  H
  H29      1.0000 0.14830  0.25440  0.40700  Biso   1.000  H
  H30      1.0000 0.41520  0.26690  0.51510  Biso   1.000  H
  H31      1.0000 0.69070  0.36340  0.51280  Biso   1.000  H
  H32      1.0000 0.64530  0.49510  0.41390  Biso   1.000  H
  H33      1.0000 0.36510  0.40470  0.41360  Biso   1.000  H
  H34      1.0000 0.46470  0.58380  0.33440  Biso   1.000  H
  H35      1.0000 0.13100  0.22930  0.31810  Biso   1.000  H
  H36      1.0000 0.22650  0.07030  0.33600  Biso   1.000  H
  H37      1.0000 0.67990  0.27070  0.33580  Biso   1.000  H
  H38      1.0000 0.59860  0.43650  0.31860  Biso   1.000  H
  H39      1.0000 0.10800  0.36750  0.27150  Biso   1.000  H
  H40      1.0000 0.13380  0.71820  0.28090  Biso   1.000  H
  H41      1.0000 0.02090  0.41250  0.20820  Biso   1.000  H
  H42      1.0000 0.81420  0.40410  0.16560  Biso   1.000  H
  H43      1.0000 0.62690  0.60800  0.22950  Biso   1.000  H
  H44      1.0000 0.83160  0.62730  0.27370  Biso   1.000  H
  H45      1.0000 0.74150  0.57090  0.03780  Biso   1.000  H
  H46      1.0000 0.67390  0.45830  0.98600  Biso   1.000  H
  H47      1.0000 0.52900  0.40800  0.93130  Biso   1.000  H
  H48      1.0000 0.81340  0.68270  0.87880  Biso   1.000  H
  H49      1.0000 0.96770  0.74010  0.93200  Biso   1.000  H
  H50      1.0000 0.15060  0.73630  0.97940  Biso   1.000  H
  H51      1.0000 0.14830  0.75440  0.09300  Biso   1.000  H
  H52      1.0000 0.41520  0.76690  0.98490  Biso   1.000  H
  H53      1.0000 0.69070  0.86340  0.98720  Biso   1.000  H
  H54      1.0000 0.64530  0.99510  0.08610  Biso   1.000  H
  H55      1.0000 0.36510  0.90470  0.08640  Biso   1.000  H
  H56      1.0000 0.46470  0.08380  0.16560  Biso   1.000  H
  H57      1.0000 0.13100  0.72930  0.18190  Biso   1.000  H
  H58      1.0000 0.22650  0.57030  0.16400  Biso   1.000  H
  H59      1.0000 0.67990  0.77070  0.16420  Biso   1.000  H
  H60      1.0000 0.59860  0.93650  0.18140  Biso   1.000  H
  H61      1.0000 0.10800  0.86750  0.22850  Biso   1.000  H
  H62      1.0000 0.13380  0.21820  0.21910  Biso   1.000  H
  H63      1.0000 0.02090  0.91250  0.29180  Biso   1.000  H
  H64      1.0000 0.81420  0.90410  0.33440  Biso   1.000  H
  H65      1.0000 0.62690  0.10800  0.27050  Biso   1.000  H
  H66      1.0000 0.83160  0.12730  0.22630  Biso   1.000  H
  H67      1.0000 0.25850  0.92910  0.53780  Biso   1.000  H
  H68      1.0000 0.32610  0.04170  0.48600  Biso   1.000  H
  H69      1.0000 0.47100  0.09200  0.43130  Biso   1.000  H
  H70      1.0000 0.18660  0.81730  0.37880  Biso   1.000  H
  H71      1.0000 0.03230  0.75990  0.43200  Biso   1.000  H
  H72      1.0000 0.84940  0.76370  0.47940  Biso   1.000  H
  H73      1.0000 0.85170  0.74560  0.59300  Biso   1.000  H
  H74      1.0000 0.58480  0.73310  0.48490  Biso   1.000  H
  H75      1.0000 0.30930  0.63660  0.48720  Biso   1.000  H
  H76      1.0000 0.35470  0.50490  0.58610  Biso   1.000  H
  H77      1.0000 0.63490  0.59530  0.58640  Biso   1.000  H
  H78      1.0000 0.53530  0.41620  0.66560  Biso   1.000  H
  H79      1.0000 0.86900  0.77070  0.68190  Biso   1.000  H
  H80      1.0000 0.77350  0.92970  0.66400  Biso   1.000  H
  H81      1.0000 0.32010  0.72930  0.66420  Biso   1.000  H
  H82      1.0000 0.40140  0.56350  0.68140  Biso   1.000  H
  H83      1.0000 0.89200  0.63250  0.72850  Biso   1.000  H
  H84      1.0000 0.86620  0.28180  0.71910  Biso   1.000  H
  H85      1.0000 0.97910  0.58750  0.79180  Biso   1.000  H
  H86      1.0000 0.18580  0.59590  0.83440  Biso   1.000  H
  H87      1.0000 0.37310  0.39200  0.77050  Biso   1.000  H
  H88      1.0000 0.16840  0.37270  0.72630  Biso   1.000  H
  C1       1.0000 0.16280  0.36200  0.89189  Biso   1.000  C
  C2       1.0000 0.07060  0.33940  0.92885  Biso   1.000  C
  C3       1.0000 0.14980  0.38100  0.96279  Biso   1.000  C
  C4       1.0000 0.07080  0.35240  0.99747  Biso   1.000  C
  C5       1.0000 0.16230  0.39140  0.03352  Biso   1.000  C
  C6       1.0000 0.29530  0.49310  0.03546  Biso   1.000  C
  C7       1.0000 0.38200  0.52290  0.06863  Biso   1.000  C
  C8       1.0000 0.21630  0.36320  0.09917  Biso   1.000  C
  C9       1.0000 0.12300  0.32760  0.06714  Biso   1.000  C
  C10      1.0000 0.90440  0.28390  0.99754  Biso   1.000  C
  C11      1.0000 0.82160  0.24620  0.96402  Biso   1.000  C
  C12      1.0000 0.90620  0.27280  0.92966  Biso   1.000  C
  C13      1.0000 0.64260  0.17950  0.96423  Biso   1.000  C
  C14      1.0000 0.54140  0.18760  0.99370  Biso   1.000  C
  C15      1.0000 0.37460  0.12890  0.99212  Biso   1.000  C
  C16      1.0000 0.40160  0.05210  0.93469  Biso   1.000  C
  C17      1.0000 0.57090  0.10710  0.93404  Biso   1.000  C
  C18      1.0000 0.61070  0.70850  0.82623  Biso   1.000  C
  C19      1.0000 0.68920  0.83020  0.81013  Biso   1.000  C
  C20      1.0000 0.62810  0.92740  0.81899  Biso   1.000  C
  C21      1.0000 0.70550  0.04140  0.80481  Biso   1.000  C
  C22      1.0000 0.64610  0.14720  0.81596  Biso   1.000  C
  C23      1.0000 0.75620  0.25970  0.82157  Biso   1.000  C
  C24      1.0000 0.69740  0.35490  0.83229  Biso   1.000  C
  C25      1.0000 0.43230  0.23770  0.83226  Biso   1.000  C
  C26      1.0000 0.47990  0.13750  0.82178  Biso   1.000  C
  C27      1.0000 0.84120  0.05620  0.78128  Biso   1.000  C
  C28      1.0000 0.90300  0.96030  0.77193  Biso   1.000  C
  C29      1.0000 0.82550  0.84720  0.78679  Biso   1.000  C
  C30      1.0000 0.04340  0.97430  0.74560  Biso   1.000  C
  C31      1.0000 0.05600  0.04440  0.71290  Biso   1.000  C
  C32      1.0000 0.18180  0.05010  0.68754  Biso   1.000  C
  C33      1.0000 0.29070  0.93020  0.72488  Biso   1.000  C
  C34      1.0000 0.16800  0.91800  0.75174  Biso   1.000  C
  C35      1.0000 0.83720  0.13800  0.39189  Biso   1.000  C
  C36      1.0000 0.92940  0.16060  0.42885  Biso   1.000  C
  C37      1.0000 0.85020  0.11900  0.46279  Biso   1.000  C
  C38      1.0000 0.92920  0.14760  0.49747  Biso   1.000  C
  C39      1.0000 0.83770  0.10860  0.53352  Biso   1.000  C
  C40      1.0000 0.70470  0.00690  0.53546  Biso   1.000  C
  C41      1.0000 0.61800  0.97710  0.56863  Biso   1.000  C
  C42      1.0000 0.78370  0.13680  0.59917  Biso   1.000  C
  C43      1.0000 0.87700  0.17240  0.56714  Biso   1.000  C
  C44      1.0000 0.09560  0.21610  0.49754  Biso   1.000  C
  C45      1.0000 0.17840  0.25380  0.46402  Biso   1.000  C
  C46      1.0000 0.09380  0.22720  0.42966  Biso   1.000  C
  C47      1.0000 0.35740  0.32050  0.46423  Biso   1.000  C
  C48      1.0000 0.45860  0.31240  0.49370  Biso   1.000  C
  C49      1.0000 0.62540  0.37110  0.49212  Biso   1.000  C
  C50      1.0000 0.59840  0.44790  0.43469  Biso   1.000  C
  C51      1.0000 0.42910  0.39290  0.43404  Biso   1.000  C
  C52      1.0000 0.38930  0.79150  0.32623  Biso   1.000  C
  C53      1.0000 0.31080  0.66980  0.31013  Biso   1.000  C
  C54      1.0000 0.37190  0.57260  0.31899  Biso   1.000  C
  C55      1.0000 0.29450  0.45860  0.30481  Biso   1.000  C
  C56      1.0000 0.35390  0.35280  0.31596  Biso   1.000  C
  C57      1.0000 0.24380  0.24030  0.32157  Biso   1.000  C
  C58      1.0000 0.30260  0.14510  0.33229  Biso   1.000  C
  C59      1.0000 0.56770  0.26230  0.33226  Biso   1.000  C
  C60      1.0000 0.52010  0.36250  0.32178  Biso   1.000  C
  C61      1.0000 0.15880  0.44380  0.28128  Biso   1.000  C
  C62      1.0000 0.09700  0.53970  0.27193  Biso   1.000  C
  C63      1.0000 0.17450  0.65280  0.28679  Biso   1.000  C
  C64      1.0000 0.95660  0.52570  0.24560  Biso   1.000  C
  C65      1.0000 0.94400  0.45560  0.21290  Biso   1.000  C
  C66      1.0000 0.81820  0.44990  0.18754  Biso   1.000  C
  C67      1.0000 0.70930  0.56980  0.22488  Biso   1.000  C
  C68      1.0000 0.83200  0.58200  0.25174  Biso   1.000  C
  C69      1.0000 0.83720  0.63800  0.10811  Biso   1.000  C
  C70      1.0000 0.92940  0.66060  0.07115  Biso   1.000  C
  C71      1.0000 0.85020  0.61900  0.03721  Biso   1.000  C
  C72      1.0000 0.92920  0.64760  0.00253  Biso   1.000  C
  C73      1.0000 0.83770  0.60860  0.96648  Biso   1.000  C
  C74      1.0000 0.70470  0.50690  0.96454  Biso   1.000  C
  C75      1.0000 0.61800  0.47710  0.93137  Biso   1.000  C
  C76      1.0000 0.78370  0.63680  0.90083  Biso   1.000  C
  C77      1.0000 0.87700  0.67240  0.93286  Biso   1.000  C
  C78      1.0000 0.09560  0.71610  0.00246  Biso   1.000  C
  C79      1.0000 0.17840  0.75380  0.03598  Biso   1.000  C
  C80      1.0000 0.09380  0.72720  0.07034  Biso   1.000  C
  C81      1.0000 0.35740  0.82050  0.03577  Biso   1.000  C
  C82      1.0000 0.45860  0.81240  0.00630  Biso   1.000  C
  C83      1.0000 0.62540  0.87110  0.00788  Biso   1.000  C
  C84      1.0000 0.59840  0.94790  0.06531  Biso   1.000  C
  C85      1.0000 0.42910  0.89290  0.06596  Biso   1.000  C
  C86      1.0000 0.38930  0.29150  0.17377  Biso   1.000  C
  C87      1.0000 0.31080  0.16980  0.18987  Biso   1.000  C
  C88      1.0000 0.37190  0.07260  0.18101  Biso   1.000  C
  C89      1.0000 0.29450  0.95860  0.19519  Biso   1.000  C
  C90      1.0000 0.35390  0.85280  0.18404  Biso   1.000  C
  C91      1.0000 0.24380  0.74030  0.17843  Biso   1.000  C
  C92      1.0000 0.30260  0.64510  0.16771  Biso   1.000  C
  C93      1.0000 0.56770  0.76230  0.16774  Biso   1.000  C
  C94      1.0000 0.52010  0.86250  0.17822  Biso   1.000  C
  C95      1.0000 0.15880  0.94380  0.21872  Biso   1.000  C
  C96      1.0000 0.09700  0.03970  0.22807  Biso   1.000  C
  C97      1.0000 0.17450  0.15280  0.21321  Biso   1.000  C
  C98      1.0000 0.95660  0.02570  0.25440  Biso   1.000  C
  C99      1.0000 0.94400  0.95560  0.28710  Biso   1.000  C
  C100     1.0000 0.81820  0.94990  0.31246  Biso   1.000  C
  C101     1.0000 0.70930  0.06980  0.27512  Biso   1.000  C
  C102     1.0000 0.83200  0.08200  0.24826  Biso   1.000  C
  C103     1.0000 0.16280  0.86200  0.60811  Biso   1.000  C
  C104     1.0000 0.07060  0.83940  0.57115  Biso   1.000  C
  C105     1.0000 0.14980  0.88100  0.53721  Biso   1.000  C
  C106     1.0000 0.07080  0.85240  0.50253  Biso   1.000  C
  C107     1.0000 0.16230  0.89140  0.46648  Biso   1.000  C
  C108     1.0000 0.29530  0.99310  0.46454  Biso   1.000  C
  C109     1.0000 0.38200  0.02290  0.43137  Biso   1.000  C
  C110     1.0000 0.21630  0.86320  0.40083  Biso   1.000  C
  C111     1.0000 0.12300  0.82760  0.43286  Biso   1.000  C
  C112     1.0000 0.90440  0.78390  0.50246  Biso   1.000  C
  C113     1.0000 0.82160  0.74620  0.53598  Biso   1.000  C
  C114     1.0000 0.90620  0.77280  0.57034  Biso   1.000  C
  C115     1.0000 0.64260  0.67950  0.53577  Biso   1.000  C
  C116     1.0000 0.54140  0.68760  0.50630  Biso   1.000  C
  C117     1.0000 0.37460  0.62890  0.50788  Biso   1.000  C
  C118     1.0000 0.40160  0.55210  0.56531  Biso   1.000  C
  C119     1.0000 0.57090  0.60710  0.56596  Biso   1.000  C
  C120     1.0000 0.61070  0.20850  0.67377  Biso   1.000  C
  C121     1.0000 0.68920  0.33020  0.68987  Biso   1.000  C
  C122     1.0000 0.62810  0.42740  0.68101  Biso   1.000  C
  C123     1.0000 0.70550  0.54140  0.69519  Biso   1.000  C
  C124     1.0000 0.64610  0.64720  0.68404  Biso   1.000  C
  C125     1.0000 0.75620  0.75970  0.67843  Biso   1.000  C
  C126     1.0000 0.69740  0.85490  0.66771  Biso   1.000  C
  C127     1.0000 0.43230  0.73770  0.66774  Biso   1.000  C
  C128     1.0000 0.47990  0.63750  0.67822  Biso   1.000  C
  C129     1.0000 0.84120  0.55620  0.71872  Biso   1.000  C
  C130     1.0000 0.90300  0.46030  0.72807  Biso   1.000  C
  C131     1.0000 0.82550  0.34720  0.71321  Biso   1.000  C
  C132     1.0000 0.04340  0.47430  0.75440  Biso   1.000  C
  C133     1.0000 0.05600  0.54440  0.78710  Biso   1.000  C
  C134     1.0000 0.18180  0.55010  0.81246  Biso   1.000  C
  C135     1.0000 0.29070  0.43020  0.77512  Biso   1.000  C
  C136     1.0000 0.16800  0.41800  0.74826  Biso   1.000  C
  N1       1.0000 0.34780  0.46010  0.10074  Biso   1.000  N
  N2       1.0000 0.30280  0.06310  0.96328  Biso   1.000  N
  N3       1.0000 0.53750  0.34680  0.83776  Biso   1.000  N
  N4       1.0000 0.29950  0.99280  0.69277  Biso   1.000  N
  N5       1.0000 0.65220  0.03990  0.60074  Biso   1.000  N
  N6       1.0000 0.69720  0.43690  0.46328  Biso   1.000  N
  N7       1.0000 0.46250  0.15320  0.33776  Biso   1.000  N
  N8       1.0000 0.70050  0.50720  0.19277  Biso   1.000  N
  N9       1.0000 0.65220  0.53990  0.89926  Biso   1.000  N
  N10      1.0000 0.69720  0.93690  0.03672  Biso   1.000  N
  N11      1.0000 0.46250  0.65320  0.16224  Biso   1.000  N
  N12      1.0000 0.70050  0.00720  0.30723  Biso   1.000  N
  N13      1.0000 0.34780  0.96010  0.39926  Biso   1.000  N
  N14      1.0000 0.30280  0.56310  0.53672  Biso   1.000  N
  N15      1.0000 0.53750  0.84680  0.66224  Biso   1.000  N
  N16      1.0000 0.29950  0.49280  0.80723  Biso   1.000  N
  O1       1.0000 0.29360  0.45090  0.89171  Biso   1.000  O
  O2       1.0000 0.10940  0.29450  0.86457  Biso   1.000  O
  O3       1.0000 0.49700  0.69621  0.85062  Biso   1.000  O
  O4       1.0000 0.65930  0.61924  0.81575  Biso   1.000  O
  O5       1.0000 0.70640  0.04910  0.39171  Biso   1.000  O
  O6       1.0000 0.89060  0.20550  0.36457  Biso   1.000  O
  O7       1.0000 0.50300  0.80379  0.35062  Biso   1.000  O
  O8       1.0000 0.34070  0.88076  0.31575  Biso   1.000  O
  O9       1.0000 0.70640  0.54910  0.10829  Biso   1.000  O
  O10      1.0000 0.89060  0.70550  0.13543  Biso   1.000  O
  O11      1.0000 0.50300  0.30379  0.14938  Biso   1.000  O
  O12      1.0000 0.34070  0.38076  0.18425  Biso   1.000  O
  O13      1.0000 0.29360  0.95090  0.60829  Biso   1.000  O
  O14      1.0000 0.10940  0.79450  0.63543  Biso   1.000  O
  O15      1.0000 0.49700  0.19621  0.64938  Biso   1.000  O
  O16      1.0000 0.65930  0.11924  0.68425  Biso   1.000  O
