data_image0
_cell_length_a       8.3722
_cell_length_b       11.4888
_cell_length_c       34.923
_cell_angle_alpha    90
_cell_angle_beta     90
_cell_angle_gamma    105.59

_symmetry_space_group_name_H-M    P 1
_symmetry_int_tables_number       1

loop_
  _symmetry_equiv_pos_as_xyz
  'x, y, z'

loop_
  _atom_site_label
  _atom_site_occupancy
  _atom_site_fract_x
  _atom_site_fract_y
  _atom_site_fract_z
  _atom_site_thermal_displace_type
  _atom_site_B_iso_or_equiv
  _atom_site_type_symbol
  Ni1      1.0000 0.47694  0.50910  0.85140  Biso   1.000  Ni
  Ni2      1.0000 0.52306  0.99090  0.35140  Biso   1.000  Ni
  Ni3      1.0000 0.52306  0.49090  0.14860  Biso   1.000  Ni
  Ni4      1.0000 0.47694  0.00910  0.64860  Biso   1.000  Ni
  H1       1.0000 0.86760  0.78440  0.78090  Biso   1.000  H
  H2       1.0000 0.17090  0.87660  0.77360  Biso   1.000  H
  H3       1.0000 0.37910  0.89650  0.72970  Biso   1.000  H
  H4       1.0000 0.18810  0.09860  0.66470  Biso   1.000  H
  H5       1.0000 0.97820  0.08950  0.70750  Biso   1.000  H
  H6       1.0000 0.89330  0.13600  0.77160  Biso   1.000  H
  H7       1.0000 0.53260  0.91870  0.83430  Biso   1.000  H
  H8       1.0000 0.86780  0.27530  0.81770  Biso   1.000  H
  H9       1.0000 0.77350  0.43470  0.83650  Biso   1.000  H
  H10      1.0000 0.31720  0.23450  0.83700  Biso   1.000  H
  H11      1.0000 0.39890  0.06830  0.81930  Biso   1.000  H
  H12      1.0000 0.85270  0.24910  0.90660  Biso   1.000  H
  H13      1.0000 0.85210  0.26330  0.02100  Biso   1.000  H
  H14      1.0000 0.26140  0.43180  0.96240  Biso   1.000  H
  H15      1.0000 0.32580  0.54280  0.01530  Biso   1.000  H
  H16      1.0000 0.47130  0.59050  0.07060  Biso   1.000  H
  H17      1.0000 0.19130  0.31160  0.12180  Biso   1.000  H
  H18      1.0000 0.03650  0.25520  0.06820  Biso   1.000  H
  H19      1.0000 0.63780  0.09420  0.91330  Biso   1.000  H
  H20      1.0000 0.35730  0.00250  0.91300  Biso   1.000  H
  H21      1.0000 0.30460  0.13480  0.01150  Biso   1.000  H
  H22      1.0000 0.58150  0.23270  0.01500  Biso   1.000  H
  H23      1.0000 0.13240  0.71560  0.28090  Biso   1.000  H
  H24      1.0000 0.82910  0.62340  0.27360  Biso   1.000  H
  H25      1.0000 0.62090  0.60350  0.22970  Biso   1.000  H
  H26      1.0000 0.81190  0.40140  0.16470  Biso   1.000  H
  H27      1.0000 0.02180  0.41050  0.20750  Biso   1.000  H
  H28      1.0000 0.10670  0.36400  0.27160  Biso   1.000  H
  H29      1.0000 0.46740  0.58130  0.33430  Biso   1.000  H
  H30      1.0000 0.13220  0.22470  0.31770  Biso   1.000  H
  H31      1.0000 0.22650  0.06530  0.33650  Biso   1.000  H
  H32      1.0000 0.68280  0.26550  0.33700  Biso   1.000  H
  H33      1.0000 0.60110  0.43170  0.31930  Biso   1.000  H
  H34      1.0000 0.14730  0.25090  0.40660  Biso   1.000  H
  H35      1.0000 0.14790  0.23670  0.52100  Biso   1.000  H
  H36      1.0000 0.73860  0.06820  0.46240  Biso   1.000  H
  H37      1.0000 0.67420  0.95720  0.51530  Biso   1.000  H
  H38      1.0000 0.52870  0.90950  0.57060  Biso   1.000  H
  H39      1.0000 0.80870  0.18840  0.62180  Biso   1.000  H
  H40      1.0000 0.96350  0.24480  0.56820  Biso   1.000  H
  H41      1.0000 0.36220  0.40580  0.41330  Biso   1.000  H
  H42      1.0000 0.64270  0.49750  0.41300  Biso   1.000  H
  H43      1.0000 0.69540  0.36520  0.51150  Biso   1.000  H
  H44      1.0000 0.41850  0.26730  0.51500  Biso   1.000  H
  H45      1.0000 0.13240  0.21560  0.21910  Biso   1.000  H
  H46      1.0000 0.82910  0.12340  0.22640  Biso   1.000  H
  H47      1.0000 0.62090  0.10350  0.27030  Biso   1.000  H
  H48      1.0000 0.81190  0.90140  0.33530  Biso   1.000  H
  H49      1.0000 0.02180  0.91050  0.29250  Biso   1.000  H
  H50      1.0000 0.10670  0.86400  0.22840  Biso   1.000  H
  H51      1.0000 0.46740  0.08130  0.16570  Biso   1.000  H
  H52      1.0000 0.13220  0.72470  0.18230  Biso   1.000  H
  H53      1.0000 0.22650  0.56530  0.16350  Biso   1.000  H
  H54      1.0000 0.68280  0.76550  0.16300  Biso   1.000  H
  H55      1.0000 0.60110  0.93170  0.18070  Biso   1.000  H
  H56      1.0000 0.14730  0.75090  0.09340  Biso   1.000  H
  H57      1.0000 0.14790  0.73670  0.97900  Biso   1.000  H
  H58      1.0000 0.73860  0.56820  0.03760  Biso   1.000  H
  H59      1.0000 0.67420  0.45720  0.98470  Biso   1.000  H
  H60      1.0000 0.52870  0.40950  0.92940  Biso   1.000  H
  H61      1.0000 0.80870  0.68840  0.87820  Biso   1.000  H
  H62      1.0000 0.96350  0.74480  0.93180  Biso   1.000  H
  H63      1.0000 0.36220  0.90580  0.08670  Biso   1.000  H
  H64      1.0000 0.64270  0.99750  0.08700  Biso   1.000  H
  H65      1.0000 0.69540  0.86520  0.98850  Biso   1.000  H
  H66      1.0000 0.41850  0.76730  0.98500  Biso   1.000  H
  H67      1.0000 0.86760  0.28440  0.71910  Biso   1.000  H
  H68      1.0000 0.17090  0.37660  0.72640  Biso   1.000  H
  H69      1.0000 0.37910  0.39650  0.77030  Biso   1.000  H
  H70      1.0000 0.18810  0.59860  0.83530  Biso   1.000  H
  H71      1.0000 0.97820  0.58950  0.79250  Biso   1.000  H
  H72      1.0000 0.89330  0.63600  0.72840  Biso   1.000  H
  H73      1.0000 0.53260  0.41870  0.66570  Biso   1.000  H
  H74      1.0000 0.86780  0.77530  0.68230  Biso   1.000  H
  H75      1.0000 0.77350  0.93470  0.66350  Biso   1.000  H
  H76      1.0000 0.31720  0.73450  0.66300  Biso   1.000  H
  H77      1.0000 0.39890  0.56830  0.68070  Biso   1.000  H
  H78      1.0000 0.85270  0.74910  0.59340  Biso   1.000  H
  H79      1.0000 0.85210  0.76330  0.47900  Biso   1.000  H
  H80      1.0000 0.26140  0.93180  0.53760  Biso   1.000  H
  H81      1.0000 0.32580  0.04280  0.48470  Biso   1.000  H
  H82      1.0000 0.47130  0.09050  0.42940  Biso   1.000  H
  H83      1.0000 0.19130  0.81160  0.37820  Biso   1.000  H
  H84      1.0000 0.03650  0.75520  0.43180  Biso   1.000  H
  H85      1.0000 0.63780  0.59420  0.58670  Biso   1.000  H
  H86      1.0000 0.35730  0.50250  0.58700  Biso   1.000  H
  H87      1.0000 0.30460  0.63480  0.48850  Biso   1.000  H
  H88      1.0000 0.58150  0.73270  0.48500  Biso   1.000  H
  C1       1.0000 0.60800  0.71130  0.82607  Biso   1.000  C
  C2       1.0000 0.68780  0.83340  0.80985  Biso   1.000  C
  C3       1.0000 0.82610  0.84970  0.78665  Biso   1.000  C
  C4       1.0000 0.90390  0.96390  0.77174  Biso   1.000  C
  C5       1.0000 0.04610  0.97840  0.74551  Biso   1.000  C
  C6       1.0000 0.17110  0.92220  0.75162  Biso   1.000  C
  C7       1.0000 0.29580  0.93430  0.72488  Biso   1.000  C
  C8       1.0000 0.18440  0.05330  0.68694  Biso   1.000  C
  C9       1.0000 0.05670  0.04750  0.71239  Biso   1.000  C
  C10      1.0000 0.84190  0.05980  0.78135  Biso   1.000  C
  C11      1.0000 0.70480  0.04590  0.80508  Biso   1.000  C
  C12      1.0000 0.62630  0.93030  0.81897  Biso   1.000  C
  C13      1.0000 0.64450  0.15110  0.81620  Biso   1.000  C
  C14      1.0000 0.75490  0.26450  0.82162  Biso   1.000  C
  C15      1.0000 0.69700  0.36030  0.83271  Biso   1.000  C
  C16      1.0000 0.42960  0.24270  0.83316  Biso   1.000  C
  C17      1.0000 0.47770  0.14210  0.82242  Biso   1.000  C
  C18      1.0000 0.16350  0.36680  0.89105  Biso   1.000  C
  C19      1.0000 0.07250  0.34260  0.92868  Biso   1.000  C
  C20      1.0000 0.90740  0.27530  0.92952  Biso   1.000  C
  C21      1.0000 0.82240  0.24630  0.96403  Biso   1.000  C
  C22      1.0000 0.90680  0.28410  0.99780  Biso   1.000  C
  C23      1.0000 0.07230  0.35250  0.99792  Biso   1.000  C
  C24      1.0000 0.15270  0.38340  0.96283  Biso   1.000  C
  C25      1.0000 0.16440  0.39000  0.03408  Biso   1.000  C
  C26      1.0000 0.29610  0.49270  0.03653  Biso   1.000  C
  C27      1.0000 0.38330  0.52100  0.07011  Biso   1.000  C
  C28      1.0000 0.22020  0.35860  0.09993  Biso   1.000  C
  C29      1.0000 0.12610  0.32360  0.06758  Biso   1.000  C
  C30      1.0000 0.64360  0.17920  0.96390  Biso   1.000  C
  C31      1.0000 0.57260  0.10620  0.93372  Biso   1.000  C
  C32      1.0000 0.40250  0.05030  0.93388  Biso   1.000  C
  C33      1.0000 0.37210  0.12740  0.99095  Biso   1.000  C
  C34      1.0000 0.54000  0.18730  0.99338  Biso   1.000  C
  C35      1.0000 0.39200  0.78870  0.32607  Biso   1.000  C
  C36      1.0000 0.31220  0.66660  0.30985  Biso   1.000  C
  C37      1.0000 0.17390  0.65030  0.28665  Biso   1.000  C
  C38      1.0000 0.09610  0.53610  0.27174  Biso   1.000  C
  C39      1.0000 0.95390  0.52160  0.24551  Biso   1.000  C
  C40      1.0000 0.82890  0.57780  0.25162  Biso   1.000  C
  C41      1.0000 0.70420  0.56570  0.22488  Biso   1.000  C
  C42      1.0000 0.81560  0.44670  0.18694  Biso   1.000  C
  C43      1.0000 0.94330  0.45250  0.21239  Biso   1.000  C
  C44      1.0000 0.15810  0.44020  0.28135  Biso   1.000  C
  C45      1.0000 0.29520  0.45410  0.30508  Biso   1.000  C
  C46      1.0000 0.37370  0.56970  0.31897  Biso   1.000  C
  C47      1.0000 0.35550  0.34890  0.31620  Biso   1.000  C
  C48      1.0000 0.24510  0.23550  0.32162  Biso   1.000  C
  C49      1.0000 0.30300  0.13970  0.33271  Biso   1.000  C
  C50      1.0000 0.57040  0.25730  0.33316  Biso   1.000  C
  C51      1.0000 0.52230  0.35790  0.32242  Biso   1.000  C
  C52      1.0000 0.83650  0.13320  0.39105  Biso   1.000  C
  C53      1.0000 0.92750  0.15740  0.42868  Biso   1.000  C
  C54      1.0000 0.09260  0.22470  0.42952  Biso   1.000  C
  C55      1.0000 0.17760  0.25370  0.46403  Biso   1.000  C
  C56      1.0000 0.09320  0.21590  0.49780  Biso   1.000  C
  C57      1.0000 0.92770  0.14750  0.49792  Biso   1.000  C
  C58      1.0000 0.84730  0.11660  0.46283  Biso   1.000  C
  C59      1.0000 0.83560  0.11000  0.53408  Biso   1.000  C
  C60      1.0000 0.70390  0.00730  0.53653  Biso   1.000  C
  C61      1.0000 0.61670  0.97900  0.57011  Biso   1.000  C
  C62      1.0000 0.77980  0.14140  0.59993  Biso   1.000  C
  C63      1.0000 0.87390  0.17640  0.56758  Biso   1.000  C
  C64      1.0000 0.35640  0.32080  0.46390  Biso   1.000  C
  C65      1.0000 0.42740  0.39380  0.43372  Biso   1.000  C
  C66      1.0000 0.59750  0.44970  0.43388  Biso   1.000  C
  C67      1.0000 0.62790  0.37260  0.49095  Biso   1.000  C
  C68      1.0000 0.46000  0.31270  0.49338  Biso   1.000  C
  C69      1.0000 0.39200  0.28870  0.17393  Biso   1.000  C
  C70      1.0000 0.31220  0.16660  0.19015  Biso   1.000  C
  C71      1.0000 0.17390  0.15030  0.21335  Biso   1.000  C
  C72      1.0000 0.09610  0.03610  0.22826  Biso   1.000  C
  C73      1.0000 0.95390  0.02160  0.25449  Biso   1.000  C
  C74      1.0000 0.82890  0.07780  0.24838  Biso   1.000  C
  C75      1.0000 0.70420  0.06570  0.27512  Biso   1.000  C
  C76      1.0000 0.81560  0.94670  0.31306  Biso   1.000  C
  C77      1.0000 0.94330  0.95250  0.28761  Biso   1.000  C
  C78      1.0000 0.15810  0.94020  0.21865  Biso   1.000  C
  C79      1.0000 0.29520  0.95410  0.19492  Biso   1.000  C
  C80      1.0000 0.37370  0.06970  0.18103  Biso   1.000  C
  C81      1.0000 0.35550  0.84890  0.18380  Biso   1.000  C
  C82      1.0000 0.24510  0.73550  0.17838  Biso   1.000  C
  C83      1.0000 0.30300  0.63970  0.16729  Biso   1.000  C
  C84      1.0000 0.57040  0.75730  0.16684  Biso   1.000  C
  C85      1.0000 0.52230  0.85790  0.17758  Biso   1.000  C
  C86      1.0000 0.83650  0.63320  0.10895  Biso   1.000  C
  C87      1.0000 0.92750  0.65740  0.07132  Biso   1.000  C
  C88      1.0000 0.09260  0.72470  0.07048  Biso   1.000  C
  C89      1.0000 0.17760  0.75370  0.03597  Biso   1.000  C
  C90      1.0000 0.09320  0.71590  0.00220  Biso   1.000  C
  C91      1.0000 0.92770  0.64750  0.00208  Biso   1.000  C
  C92      1.0000 0.84730  0.61660  0.03717  Biso   1.000  C
  C93      1.0000 0.83560  0.61000  0.96592  Biso   1.000  C
  C94      1.0000 0.70390  0.50730  0.96347  Biso   1.000  C
  C95      1.0000 0.61670  0.47900  0.92989  Biso   1.000  C
  C96      1.0000 0.77980  0.64140  0.90007  Biso   1.000  C
  C97      1.0000 0.87390  0.67640  0.93242  Biso   1.000  C
  C98      1.0000 0.35640  0.82080  0.03610  Biso   1.000  C
  C99      1.0000 0.42740  0.89380  0.06628  Biso   1.000  C
  C100     1.0000 0.59750  0.94970  0.06612  Biso   1.000  C
  C101     1.0000 0.62790  0.87260  0.00905  Biso   1.000  C
  C102     1.0000 0.46000  0.81270  0.00662  Biso   1.000  C
  C103     1.0000 0.60800  0.21130  0.67393  Biso   1.000  C
  C104     1.0000 0.68780  0.33340  0.69015  Biso   1.000  C
  C105     1.0000 0.82610  0.34970  0.71335  Biso   1.000  C
  C106     1.0000 0.90390  0.46390  0.72826  Biso   1.000  C
  C107     1.0000 0.04610  0.47840  0.75449  Biso   1.000  C
  C108     1.0000 0.17110  0.42220  0.74838  Biso   1.000  C
  C109     1.0000 0.29580  0.43430  0.77512  Biso   1.000  C
  C110     1.0000 0.18440  0.55330  0.81306  Biso   1.000  C
  C111     1.0000 0.05670  0.54750  0.78761  Biso   1.000  C
  C112     1.0000 0.84190  0.55980  0.71865  Biso   1.000  C
  C113     1.0000 0.70480  0.54590  0.69492  Biso   1.000  C
  C114     1.0000 0.62630  0.43030  0.68103  Biso   1.000  C
  C115     1.0000 0.64450  0.65110  0.68380  Biso   1.000  C
  C116     1.0000 0.75490  0.76450  0.67838  Biso   1.000  C
  C117     1.0000 0.69700  0.86030  0.66729  Biso   1.000  C
  C118     1.0000 0.42960  0.74270  0.66684  Biso   1.000  C
  C119     1.0000 0.47770  0.64210  0.67758  Biso   1.000  C
  C120     1.0000 0.16350  0.86680  0.60895  Biso   1.000  C
  C121     1.0000 0.07250  0.84260  0.57132  Biso   1.000  C
  C122     1.0000 0.90740  0.77530  0.57048  Biso   1.000  C
  C123     1.0000 0.82240  0.74630  0.53597  Biso   1.000  C
  C124     1.0000 0.90680  0.78410  0.50220  Biso   1.000  C
  C125     1.0000 0.07230  0.85250  0.50208  Biso   1.000  C
  C126     1.0000 0.15270  0.88340  0.53717  Biso   1.000  C
  C127     1.0000 0.16440  0.89000  0.46592  Biso   1.000  C
  C128     1.0000 0.29610  0.99270  0.46347  Biso   1.000  C
  C129     1.0000 0.38330  0.02100  0.42989  Biso   1.000  C
  C130     1.0000 0.22020  0.85860  0.40007  Biso   1.000  C
  C131     1.0000 0.12610  0.82360  0.43242  Biso   1.000  C
  C132     1.0000 0.64360  0.67920  0.53610  Biso   1.000  C
  C133     1.0000 0.57260  0.60620  0.56628  Biso   1.000  C
  C134     1.0000 0.40250  0.55030  0.56612  Biso   1.000  C
  C135     1.0000 0.37210  0.62740  0.50905  Biso   1.000  C
  C136     1.0000 0.54000  0.68730  0.50662  Biso   1.000  C
  N1       1.0000 0.30360  0.99700  0.69250  Biso   1.000  N
  N2       1.0000 0.53570  0.35230  0.83840  Biso   1.000  N
  N3       1.0000 0.35040  0.45570  0.10201  Biso   1.000  N
  N4       1.0000 0.30250  0.06140  0.96187  Biso   1.000  N
  N5       1.0000 0.69640  0.50300  0.19250  Biso   1.000  N
  N6       1.0000 0.46430  0.14770  0.33840  Biso   1.000  N
  N7       1.0000 0.64960  0.04430  0.60201  Biso   1.000  N
  N8       1.0000 0.69750  0.43860  0.46187  Biso   1.000  N
  N9       1.0000 0.69640  0.00300  0.30750  Biso   1.000  N
  N10      1.0000 0.46430  0.64770  0.16160  Biso   1.000  N
  N11      1.0000 0.64960  0.54430  0.89799  Biso   1.000  N
  N12      1.0000 0.69750  0.93860  0.03813  Biso   1.000  N
  N13      1.0000 0.30360  0.49700  0.80750  Biso   1.000  N
  N14      1.0000 0.53570  0.85230  0.66160  Biso   1.000  N
  N15      1.0000 0.35040  0.95570  0.39799  Biso   1.000  N
  N16      1.0000 0.30250  0.56140  0.53813  Biso   1.000  N
  O1       1.0000 0.65720  0.62155  0.81514  Biso   1.000  O
  O2       1.0000 0.49450  0.69910  0.85064  Biso   1.000  O
  O3       1.0000 0.10750  0.29950  0.86364  Biso   1.000  O
  O4       1.0000 0.29520  0.45410  0.89113  Biso   1.000  O
  O5       1.0000 0.34280  0.87845  0.31514  Biso   1.000  O
  O6       1.0000 0.50550  0.80090  0.35064  Biso   1.000  O
  O7       1.0000 0.89250  0.20050  0.36364  Biso   1.000  O
  O8       1.0000 0.70480  0.04590  0.39113  Biso   1.000  O
  O9       1.0000 0.34280  0.37845  0.18486  Biso   1.000  O
  O10      1.0000 0.50550  0.30090  0.14936  Biso   1.000  O
  O11      1.0000 0.89250  0.70050  0.13636  Biso   1.000  O
  O12      1.0000 0.70480  0.54590  0.10887  Biso   1.000  O
  O13      1.0000 0.65720  0.12155  0.68486  Biso   1.000  O
  O14      1.0000 0.49450  0.19910  0.64936  Biso   1.000  O
  O15      1.0000 0.10750  0.79950  0.63636  Biso   1.000  O
  O16      1.0000 0.29520  0.95410  0.60887  Biso   1.000  O
