data_image0
_cell_length_a       4.7101
_cell_length_b       10.7704
_cell_length_c       20.0289
_cell_angle_alpha    90
_cell_angle_beta     90
_cell_angle_gamma    95.472

_symmetry_space_group_name_H-M    P 1
_symmetry_int_tables_number       1

loop_
  _symmetry_equiv_pos_as_xyz
  'x, y, z'

loop_
  _atom_site_label
  _atom_site_occupancy
  _atom_site_fract_x
  _atom_site_fract_y
  _atom_site_fract_z
  _atom_site_thermal_displace_type
  _atom_site_B_iso_or_equiv
  _atom_site_type_symbol
  Cu1      1.0000 0.31100  0.46500  0.66360  Biso   1.000  Cu
  Cu2      1.0000 0.68900  0.03500  0.16360  Biso   1.000  Cu
  Cu3      1.0000 0.68900  0.53500  0.33640  Biso   1.000  Cu
  Cu4      1.0000 0.31100  0.96500  0.83640  Biso   1.000  Cu
  H1       1.0000 0.23466  0.43135  0.91538  Biso   1.000  H
  H2       1.0000 0.40361  0.53635  0.81680  Biso   1.000  H
  H3       1.0000 0.61129  0.35527  0.57496  Biso   1.000  H
  H4       1.0000 0.17998  0.63198  0.53545  Biso   1.000  H
  H5       1.0000 0.76534  0.06865  0.41538  Biso   1.000  H
  H6       1.0000 0.59639  0.96365  0.31680  Biso   1.000  H
  H7       1.0000 0.38871  0.14473  0.07496  Biso   1.000  H
  H8       1.0000 0.82002  0.86802  0.03545  Biso   1.000  H
  H9       1.0000 0.76534  0.56865  0.08462  Biso   1.000  H
  H10      1.0000 0.59639  0.46365  0.18320  Biso   1.000  H
  H11      1.0000 0.38871  0.64473  0.42504  Biso   1.000  H
  H12      1.0000 0.82002  0.36802  0.46455  Biso   1.000  H
  H13      1.0000 0.23466  0.93135  0.58462  Biso   1.000  H
  H14      1.0000 0.40361  0.03635  0.68320  Biso   1.000  H
  H15      1.0000 0.61129  0.85527  0.92504  Biso   1.000  H
  H16      1.0000 0.17998  0.13198  0.96455  Biso   1.000  H
  C1       1.0000 0.05900  0.30000  0.75500  Biso   1.000  C
  C2       1.0000 0.95700  0.24000  0.81300  Biso   1.000  C
  C3       1.0000 0.18800  0.40000  0.87200  Biso   1.000  C
  C4       1.0000 0.28900  0.45900  0.81540  Biso   1.000  C
  C5       1.0000 0.00700  0.24000  0.68500  Biso   1.000  C
  C6       1.0000 0.78400  0.12000  0.82000  Biso   1.000  C
  C7       1.0000 0.56700  0.41600  0.54300  Biso   1.000  C
  C8       1.0000 0.31400  0.57700  0.52100  Biso   1.000  C
  C9       1.0000 0.94100  0.20000  0.25500  Biso   1.000  C
  C10      1.0000 0.04300  0.26000  0.31300  Biso   1.000  C
  C11      1.0000 0.81200  0.10000  0.37200  Biso   1.000  C
  C12      1.0000 0.71100  0.04100  0.31540  Biso   1.000  C
  C13      1.0000 0.99300  0.26000  0.18500  Biso   1.000  C
  C14      1.0000 0.21600  0.38000  0.32000  Biso   1.000  C
  C15      1.0000 0.43300  0.08400  0.04300  Biso   1.000  C
  C16      1.0000 0.68600  0.92300  0.02100  Biso   1.000  C
  C17      1.0000 0.94100  0.70000  0.24500  Biso   1.000  C
  C18      1.0000 0.04300  0.76000  0.18700  Biso   1.000  C
  C19      1.0000 0.81200  0.60000  0.12800  Biso   1.000  C
  C20      1.0000 0.71100  0.54100  0.18460  Biso   1.000  C
  C21      1.0000 0.99300  0.76000  0.31500  Biso   1.000  C
  C22      1.0000 0.21600  0.88000  0.18000  Biso   1.000  C
  C23      1.0000 0.43300  0.58400  0.45700  Biso   1.000  C
  C24      1.0000 0.68600  0.42300  0.47900  Biso   1.000  C
  C25      1.0000 0.05900  0.80000  0.74500  Biso   1.000  C
  C26      1.0000 0.95700  0.74000  0.68700  Biso   1.000  C
  C27      1.0000 0.18800  0.90000  0.62800  Biso   1.000  C
  C28      1.0000 0.28900  0.95900  0.68460  Biso   1.000  C
  C29      1.0000 0.00700  0.74000  0.81500  Biso   1.000  C
  C30      1.0000 0.78400  0.62000  0.68000  Biso   1.000  C
  C31      1.0000 0.56700  0.91600  0.95700  Biso   1.000  C
  C32      1.0000 0.31400  0.07700  0.97900  Biso   1.000  C
  N1       1.0000 0.22000  0.40400  0.75630  Biso   1.000  N
  N2       1.0000 0.02500  0.29000  0.87100  Biso   1.000  N
  N3       1.0000 0.38900  0.49300  0.56320  Biso   1.000  N
  N4       1.0000 0.78000  0.09600  0.25630  Biso   1.000  N
  N5       1.0000 0.97500  0.21000  0.37100  Biso   1.000  N
  N6       1.0000 0.61100  0.00700  0.06320  Biso   1.000  N
  N7       1.0000 0.78000  0.59600  0.24370  Biso   1.000  N
  N8       1.0000 0.97500  0.71000  0.12900  Biso   1.000  N
  N9       1.0000 0.61100  0.50700  0.43680  Biso   1.000  N
  N10      1.0000 0.22000  0.90400  0.74370  Biso   1.000  N
  N11      1.0000 0.02500  0.79000  0.62900  Biso   1.000  N
  N12      1.0000 0.38900  0.99300  0.93680  Biso   1.000  N
  O1       1.0000 0.12900  0.30500  0.63000  Biso   1.000  O
  O2       1.0000 0.87200  0.13600  0.68600  Biso   1.000  O
  O3       1.0000 0.49500  0.13600  0.81700  Biso   1.000  O
  O4       1.0000 0.88600  0.02700  0.83700  Biso   1.000  O
  O5       1.0000 0.87100  0.19500  0.13000  Biso   1.000  O
  O6       1.0000 0.12800  0.36400  0.18600  Biso   1.000  O
  O7       1.0000 0.50500  0.36400  0.31700  Biso   1.000  O
  O8       1.0000 0.11400  0.47300  0.33700  Biso   1.000  O
  O9       1.0000 0.87100  0.69500  0.37000  Biso   1.000  O
  O10      1.0000 0.12800  0.86400  0.31400  Biso   1.000  O
  O11      1.0000 0.50500  0.86400  0.18300  Biso   1.000  O
  O12      1.0000 0.11400  0.97300  0.16300  Biso   1.000  O
  O13      1.0000 0.12900  0.80500  0.87000  Biso   1.000  O
  O14      1.0000 0.87200  0.63600  0.81400  Biso   1.000  O
  O15      1.0000 0.49500  0.63600  0.68300  Biso   1.000  O
  O16      1.0000 0.88600  0.52700  0.66300  Biso   1.000  O
