data_image0
_cell_length_a       19.074
_cell_length_b       19.652
_cell_length_c       19.652
_cell_angle_alpha    120
_cell_angle_beta     90
_cell_angle_gamma    90

_symmetry_space_group_name_H-M    P 1
_symmetry_int_tables_number       1

loop_
  _symmetry_equiv_pos_as_xyz
  'x, y, z'

loop_
  _atom_site_label
  _atom_site_occupancy
  _atom_site_fract_x
  _atom_site_fract_y
  _atom_site_fract_z
  _atom_site_thermal_displace_type
  _atom_site_B_iso_or_equiv
  _atom_site_type_symbol
  Co1      1.0000 0.60140  0.99957  0.66401  Biso   1.000  Co
  Co2      1.0000 0.60140  0.66444  0.00043  Biso   1.000  Co
  Co3      1.0000 0.60140  0.33599  0.33556  Biso   1.000  Co
  Co4      1.0000 0.10140  0.66444  0.66401  Biso   1.000  Co
  Co5      1.0000 0.10140  0.33599  0.00043  Biso   1.000  Co
  Co6      1.0000 0.10140  0.99957  0.33556  Biso   1.000  Co
  H1       1.0000 0.56680  0.83020  0.62310  Biso   1.000  H
  H2       1.0000 0.55360  0.75450  0.68030  Biso   1.000  H
  H3       1.0000 0.55090  0.81580  0.82100  Biso   1.000  H
  H4       1.0000 0.60780  0.01910  0.82920  Biso   1.000  H
  H5       1.0000 0.02780  0.86390  0.35390  Biso   1.000  H
  H6       1.0000 0.92220  0.82460  0.37280  Biso   1.000  H
  H7       1.0000 0.82630  0.90410  0.39970  Biso   1.000  H
  H8       1.0000 0.94660  0.04870  0.35970  Biso   1.000  H
  H9       1.0000 0.51700  0.14110  0.66400  Biso   1.000  H
  H10      1.0000 0.53240  0.22100  0.61020  Biso   1.000  H
  H11      1.0000 0.61330  0.20770  0.52200  Biso   1.000  H
  H12      1.0000 0.69750  0.03270  0.55090  Biso   1.000  H
  H13      1.0000 0.68000  0.23910  0.39860  Biso   1.000  H
  H14      1.0000 0.85890  0.25350  0.25460  Biso   1.000  H
  H15      1.0000 0.87160  0.15860  0.30150  Biso   1.000  H
  H16      1.0000 0.75720  0.31350  0.25700  Biso   1.000  H
  H17      1.0000 0.56680  0.79290  0.16980  Biso   1.000  H
  H18      1.0000 0.55360  0.92580  0.24550  Biso   1.000  H
  H19      1.0000 0.55090  0.00520  0.18420  Biso   1.000  H
  H20      1.0000 0.60780  0.81010  0.98090  Biso   1.000  H
  H21      1.0000 0.02780  0.49000  0.13610  Biso   1.000  H
  H22      1.0000 0.92220  0.54820  0.17540  Biso   1.000  H
  H23      1.0000 0.82630  0.49560  0.09590  Biso   1.000  H
  H24      1.0000 0.94660  0.31100  0.95130  Biso   1.000  H
  H25      1.0000 0.51700  0.52290  0.85890  Biso   1.000  H
  H26      1.0000 0.53240  0.38920  0.77900  Biso   1.000  H
  H27      1.0000 0.61330  0.31430  0.79230  Biso   1.000  H
  H28      1.0000 0.69750  0.51820  0.96730  Biso   1.000  H
  H29      1.0000 0.68000  0.15950  0.76090  Biso   1.000  H
  H30      1.0000 0.85890  0.00110  0.74650  Biso   1.000  H
  H31      1.0000 0.87160  0.14290  0.84140  Biso   1.000  H
  H32      1.0000 0.75720  0.94350  0.68650  Biso   1.000  H
  H33      1.0000 0.56680  0.37690  0.20710  Biso   1.000  H
  H34      1.0000 0.55360  0.31970  0.07420  Biso   1.000  H
  H35      1.0000 0.55090  0.17900  0.99480  Biso   1.000  H
  H36      1.0000 0.60780  0.17080  0.18990  Biso   1.000  H
  H37      1.0000 0.02780  0.64610  0.51000  Biso   1.000  H
  H38      1.0000 0.92220  0.62720  0.45180  Biso   1.000  H
  H39      1.0000 0.82630  0.60030  0.50440  Biso   1.000  H
  H40      1.0000 0.94660  0.64030  0.68900  Biso   1.000  H
  H41      1.0000 0.51700  0.33600  0.47710  Biso   1.000  H
  H42      1.0000 0.53240  0.38980  0.61080  Biso   1.000  H
  H43      1.0000 0.61330  0.47800  0.68570  Biso   1.000  H
  H44      1.0000 0.69750  0.44910  0.48180  Biso   1.000  H
  H45      1.0000 0.68000  0.60140  0.84050  Biso   1.000  H
  H46      1.0000 0.85890  0.74540  0.99890  Biso   1.000  H
  H47      1.0000 0.87160  0.69850  0.85710  Biso   1.000  H
  H48      1.0000 0.75720  0.74300  0.05650  Biso   1.000  H
  H49      1.0000 0.06680  0.79290  0.62310  Biso   1.000  H
  H50      1.0000 0.05360  0.92580  0.68030  Biso   1.000  H
  H51      1.0000 0.05090  0.00520  0.82100  Biso   1.000  H
  H52      1.0000 0.10780  0.81010  0.82920  Biso   1.000  H
  H53      1.0000 0.52780  0.49000  0.35390  Biso   1.000  H
  H54      1.0000 0.42220  0.54820  0.37280  Biso   1.000  H
  H55      1.0000 0.32630  0.49560  0.39970  Biso   1.000  H
  H56      1.0000 0.44660  0.31100  0.35970  Biso   1.000  H
  H57      1.0000 0.01700  0.52290  0.66400  Biso   1.000  H
  H58      1.0000 0.03240  0.38920  0.61020  Biso   1.000  H
  H59      1.0000 0.11330  0.31430  0.52200  Biso   1.000  H
  H60      1.0000 0.19750  0.51820  0.55090  Biso   1.000  H
  H61      1.0000 0.18000  0.15950  0.39860  Biso   1.000  H
  H62      1.0000 0.35890  0.00110  0.25460  Biso   1.000  H
  H63      1.0000 0.37160  0.14290  0.30150  Biso   1.000  H
  H64      1.0000 0.25720  0.94350  0.25700  Biso   1.000  H
  H65      1.0000 0.06680  0.37690  0.16980  Biso   1.000  H
  H66      1.0000 0.05360  0.31970  0.24550  Biso   1.000  H
  H67      1.0000 0.05090  0.17900  0.18420  Biso   1.000  H
  H68      1.0000 0.10780  0.17080  0.98090  Biso   1.000  H
  H69      1.0000 0.52780  0.64610  0.13610  Biso   1.000  H
  H70      1.0000 0.42220  0.62720  0.17540  Biso   1.000  H
  H71      1.0000 0.32630  0.60030  0.09590  Biso   1.000  H
  H72      1.0000 0.44660  0.64030  0.95130  Biso   1.000  H
  H73      1.0000 0.01700  0.33600  0.85890  Biso   1.000  H
  H74      1.0000 0.03240  0.38980  0.77900  Biso   1.000  H
  H75      1.0000 0.11330  0.47800  0.79230  Biso   1.000  H
  H76      1.0000 0.19750  0.44910  0.96730  Biso   1.000  H
  H77      1.0000 0.18000  0.60140  0.76090  Biso   1.000  H
  H78      1.0000 0.35890  0.74540  0.74650  Biso   1.000  H
  H79      1.0000 0.37160  0.69850  0.84140  Biso   1.000  H
  H80      1.0000 0.25720  0.74300  0.68650  Biso   1.000  H
  H81      1.0000 0.06680  0.83020  0.20710  Biso   1.000  H
  H82      1.0000 0.05360  0.75450  0.07420  Biso   1.000  H
  H83      1.0000 0.05090  0.81580  0.99480  Biso   1.000  H
  H84      1.0000 0.10780  0.01910  0.18990  Biso   1.000  H
  H85      1.0000 0.52780  0.86390  0.51000  Biso   1.000  H
  H86      1.0000 0.42220  0.82460  0.45180  Biso   1.000  H
  H87      1.0000 0.32630  0.90410  0.50440  Biso   1.000  H
  H88      1.0000 0.44660  0.04870  0.68900  Biso   1.000  H
  H89      1.0000 0.01700  0.14110  0.47710  Biso   1.000  H
  H90      1.0000 0.03240  0.22100  0.61080  Biso   1.000  H
  H91      1.0000 0.11330  0.20770  0.68570  Biso   1.000  H
  H92      1.0000 0.19750  0.03270  0.48180  Biso   1.000  H
  H93      1.0000 0.18000  0.23910  0.84050  Biso   1.000  H
  H94      1.0000 0.35890  0.25350  0.99890  Biso   1.000  H
  H95      1.0000 0.37160  0.15860  0.85710  Biso   1.000  H
  H96      1.0000 0.25720  0.31350  0.05650  Biso   1.000  H
  C1       1.0000 0.69350  0.86580  0.52530  Biso   1.000  C
  C2       1.0000 0.53490  0.15070  0.81570  Biso   1.000  C
  C3       1.0000 0.57300  0.85350  0.67830  Biso   1.000  C
  C4       1.0000 0.56180  0.80930  0.71200  Biso   1.000  C
  C5       1.0000 0.56240  0.84520  0.79610  Biso   1.000  C
  C6       1.0000 0.57980  0.92240  0.83890  Biso   1.000  C
  C7       1.0000 0.59540  0.96520  0.79920  Biso   1.000  C
  C8       1.0000 0.98790  0.89490  0.35860  Biso   1.000  C
  C9       1.0000 0.92630  0.87320  0.37350  Biso   1.000  C
  C10      1.0000 0.87030  0.91960  0.38940  Biso   1.000  C
  C11      1.0000 0.87680  0.99010  0.39070  Biso   1.000  C
  C12      1.0000 0.94200  0.00380  0.36560  Biso   1.000  C
  C13      1.0000 0.55520  0.13350  0.62980  Biso   1.000  C
  C14      1.0000 0.56530  0.17950  0.59500  Biso   1.000  C
  C15      1.0000 0.61310  0.17460  0.54440  Biso   1.000  C
  C16      1.0000 0.66390  0.11620  0.52660  Biso   1.000  C
  C17      1.0000 0.66100  0.06950  0.56100  Biso   1.000  C
  C18      1.0000 0.71970  0.10450  0.47210  Biso   1.000  C
  C19      1.0000 0.58470  0.96280  0.92360  Biso   1.000  C
  C20      1.0000 0.81760  0.04820  0.40950  Biso   1.000  C
  C21      1.0000 0.76770  0.19630  0.35840  Biso   1.000  C
  C22      1.0000 0.71500  0.23760  0.36350  Biso   1.000  C
  C23      1.0000 0.77050  0.14060  0.38800  Biso   1.000  C
  C24      1.0000 0.82000  0.24490  0.27960  Biso   1.000  C
  C25      1.0000 0.83160  0.19070  0.31030  Biso   1.000  C
  C26      1.0000 0.76010  0.28410  0.28320  Biso   1.000  C
  C27      1.0000 0.69350  0.65950  0.13420  Biso   1.000  C
  C28      1.0000 0.53490  0.66500  0.84930  Biso   1.000  C
  C29      1.0000 0.57300  0.82480  0.14650  Biso   1.000  C
  C30      1.0000 0.56180  0.90270  0.19070  Biso   1.000  C
  C31      1.0000 0.56240  0.95090  0.15480  Biso   1.000  C
  C32      1.0000 0.57980  0.91650  0.07760  Biso   1.000  C
  C33      1.0000 0.59540  0.83400  0.03480  Biso   1.000  C
  C34      1.0000 0.98790  0.46370  0.10510  Biso   1.000  C
  C35      1.0000 0.92630  0.50030  0.12680  Biso   1.000  C
  C36      1.0000 0.87030  0.46980  0.08040  Biso   1.000  C
  C37      1.0000 0.87680  0.40060  0.00990  Biso   1.000  C
  C38      1.0000 0.94200  0.36180  0.99620  Biso   1.000  C
  C39      1.0000 0.55520  0.49630  0.86650  Biso   1.000  C
  C40      1.0000 0.56530  0.41550  0.82050  Biso   1.000  C
  C41      1.0000 0.61310  0.36980  0.82540  Biso   1.000  C
  C42      1.0000 0.66390  0.41040  0.88380  Biso   1.000  C
  C43      1.0000 0.66100  0.49150  0.93050  Biso   1.000  C
  C44      1.0000 0.71970  0.36760  0.89550  Biso   1.000  C
  C45      1.0000 0.58470  0.96080  0.03720  Biso   1.000  C
  C46      1.0000 0.81760  0.36130  0.95180  Biso   1.000  C
  C47      1.0000 0.76770  0.16210  0.80370  Biso   1.000  C
  C48      1.0000 0.71500  0.12590  0.76240  Biso   1.000  C
  C49      1.0000 0.77050  0.24740  0.85940  Biso   1.000  C
  C50      1.0000 0.82000  0.03470  0.75510  Biso   1.000  C
  C51      1.0000 0.83160  0.11960  0.80930  Biso   1.000  C
  C52      1.0000 0.76010  0.99910  0.71590  Biso   1.000  C
  C53      1.0000 0.69350  0.47470  0.34050  Biso   1.000  C
  C54      1.0000 0.53490  0.18430  0.33500  Biso   1.000  C
  C55      1.0000 0.57300  0.32170  0.17520  Biso   1.000  C
  C56      1.0000 0.56180  0.28800  0.09730  Biso   1.000  C
  C57      1.0000 0.56240  0.20390  0.04910  Biso   1.000  C
  C58      1.0000 0.57980  0.16110  0.08350  Biso   1.000  C
  C59      1.0000 0.59540  0.20080  0.16600  Biso   1.000  C
  C60      1.0000 0.98790  0.64140  0.53630  Biso   1.000  C
  C61      1.0000 0.92630  0.62650  0.49970  Biso   1.000  C
  C62      1.0000 0.87030  0.61060  0.53020  Biso   1.000  C
  C63      1.0000 0.87680  0.60930  0.59940  Biso   1.000  C
  C64      1.0000 0.94200  0.63440  0.63820  Biso   1.000  C
  C65      1.0000 0.55520  0.37020  0.50370  Biso   1.000  C
  C66      1.0000 0.56530  0.40500  0.58450  Biso   1.000  C
  C67      1.0000 0.61310  0.45560  0.63020  Biso   1.000  C
  C68      1.0000 0.66390  0.47340  0.58960  Biso   1.000  C
  C69      1.0000 0.66100  0.43900  0.50850  Biso   1.000  C
  C70      1.0000 0.71970  0.52790  0.63240  Biso   1.000  C
  C71      1.0000 0.58470  0.07640  0.03920  Biso   1.000  C
  C72      1.0000 0.81760  0.59050  0.63870  Biso   1.000  C
  C73      1.0000 0.76770  0.64160  0.83790  Biso   1.000  C
  C74      1.0000 0.71500  0.63650  0.87410  Biso   1.000  C
  C75      1.0000 0.77050  0.61200  0.75260  Biso   1.000  C
  C76      1.0000 0.82000  0.72040  0.96530  Biso   1.000  C
  C77      1.0000 0.83160  0.68970  0.88040  Biso   1.000  C
  C78      1.0000 0.76010  0.71680  0.00090  Biso   1.000  C
  C79      1.0000 0.19350  0.65950  0.52530  Biso   1.000  C
  C80      1.0000 0.03490  0.66500  0.81570  Biso   1.000  C
  C81      1.0000 0.07300  0.82480  0.67830  Biso   1.000  C
  C82      1.0000 0.06180  0.90270  0.71200  Biso   1.000  C
  C83      1.0000 0.06240  0.95090  0.79610  Biso   1.000  C
  C84      1.0000 0.07980  0.91650  0.83890  Biso   1.000  C
  C85      1.0000 0.09540  0.83400  0.79920  Biso   1.000  C
  C86      1.0000 0.48790  0.46370  0.35860  Biso   1.000  C
  C87      1.0000 0.42630  0.50030  0.37350  Biso   1.000  C
  C88      1.0000 0.37030  0.46980  0.38940  Biso   1.000  C
  C89      1.0000 0.37680  0.40060  0.39070  Biso   1.000  C
  C90      1.0000 0.44200  0.36180  0.36560  Biso   1.000  C
  C91      1.0000 0.05520  0.49630  0.62980  Biso   1.000  C
  C92      1.0000 0.06530  0.41550  0.59500  Biso   1.000  C
  C93      1.0000 0.11310  0.36980  0.54440  Biso   1.000  C
  C94      1.0000 0.16390  0.41040  0.52660  Biso   1.000  C
  C95      1.0000 0.16100  0.49150  0.56100  Biso   1.000  C
  C96      1.0000 0.21970  0.36760  0.47210  Biso   1.000  C
  C97      1.0000 0.08470  0.96080  0.92360  Biso   1.000  C
  C98      1.0000 0.31760  0.36130  0.40950  Biso   1.000  C
  C99      1.0000 0.26770  0.16210  0.35840  Biso   1.000  C
  C100     1.0000 0.21500  0.12590  0.36350  Biso   1.000  C
  C101     1.0000 0.27050  0.24740  0.38800  Biso   1.000  C
  C102     1.0000 0.32000  0.03470  0.27960  Biso   1.000  C
  C103     1.0000 0.33160  0.11960  0.31030  Biso   1.000  C
  C104     1.0000 0.26010  0.99910  0.28320  Biso   1.000  C
  C105     1.0000 0.19350  0.47470  0.13420  Biso   1.000  C
  C106     1.0000 0.03490  0.18430  0.84930  Biso   1.000  C
  C107     1.0000 0.07300  0.32170  0.14650  Biso   1.000  C
  C108     1.0000 0.06180  0.28800  0.19070  Biso   1.000  C
  C109     1.0000 0.06240  0.20390  0.15480  Biso   1.000  C
  C110     1.0000 0.07980  0.16110  0.07760  Biso   1.000  C
  C111     1.0000 0.09540  0.20080  0.03480  Biso   1.000  C
  C112     1.0000 0.48790  0.64140  0.10510  Biso   1.000  C
  C113     1.0000 0.42630  0.62650  0.12680  Biso   1.000  C
  C114     1.0000 0.37030  0.61060  0.08040  Biso   1.000  C
  C115     1.0000 0.37680  0.60930  0.00990  Biso   1.000  C
  C116     1.0000 0.44200  0.63440  0.99620  Biso   1.000  C
  C117     1.0000 0.05520  0.37020  0.86650  Biso   1.000  C
  C118     1.0000 0.06530  0.40500  0.82050  Biso   1.000  C
  C119     1.0000 0.11310  0.45560  0.82540  Biso   1.000  C
  C120     1.0000 0.16390  0.47340  0.88380  Biso   1.000  C
  C121     1.0000 0.16100  0.43900  0.93050  Biso   1.000  C
  C122     1.0000 0.21970  0.52790  0.89550  Biso   1.000  C
  C123     1.0000 0.08470  0.07640  0.03720  Biso   1.000  C
  C124     1.0000 0.31760  0.59050  0.95180  Biso   1.000  C
  C125     1.0000 0.26770  0.64160  0.80370  Biso   1.000  C
  C126     1.0000 0.21500  0.63650  0.76240  Biso   1.000  C
  C127     1.0000 0.27050  0.61200  0.85940  Biso   1.000  C
  C128     1.0000 0.32000  0.72040  0.75510  Biso   1.000  C
  C129     1.0000 0.33160  0.68970  0.80930  Biso   1.000  C
  C130     1.0000 0.26010  0.71680  0.71590  Biso   1.000  C
  C131     1.0000 0.19350  0.86580  0.34050  Biso   1.000  C
  C132     1.0000 0.03490  0.15070  0.33500  Biso   1.000  C
  C133     1.0000 0.07300  0.85350  0.17520  Biso   1.000  C
  C134     1.0000 0.06180  0.80930  0.09730  Biso   1.000  C
  C135     1.0000 0.06240  0.84520  0.04910  Biso   1.000  C
  C136     1.0000 0.07980  0.92240  0.08350  Biso   1.000  C
  C137     1.0000 0.09540  0.96520  0.16600  Biso   1.000  C
  C138     1.0000 0.48790  0.89490  0.53630  Biso   1.000  C
  C139     1.0000 0.42630  0.87320  0.49970  Biso   1.000  C
  C140     1.0000 0.37030  0.91960  0.53020  Biso   1.000  C
  C141     1.0000 0.37680  0.99010  0.59940  Biso   1.000  C
  C142     1.0000 0.44200  0.00380  0.63820  Biso   1.000  C
  C143     1.0000 0.05520  0.13350  0.50370  Biso   1.000  C
  C144     1.0000 0.06530  0.17950  0.58450  Biso   1.000  C
  C145     1.0000 0.11310  0.17460  0.63020  Biso   1.000  C
  C146     1.0000 0.16390  0.11620  0.58960  Biso   1.000  C
  C147     1.0000 0.16100  0.06950  0.50850  Biso   1.000  C
  C148     1.0000 0.21970  0.10450  0.63240  Biso   1.000  C
  C149     1.0000 0.08470  0.96280  0.03920  Biso   1.000  C
  C150     1.0000 0.31760  0.04820  0.63870  Biso   1.000  C
  C151     1.0000 0.26770  0.19630  0.83790  Biso   1.000  C
  C152     1.0000 0.21500  0.23760  0.87410  Biso   1.000  C
  C153     1.0000 0.27050  0.14060  0.75260  Biso   1.000  C
  C154     1.0000 0.32000  0.24490  0.96530  Biso   1.000  C
  C155     1.0000 0.33160  0.19070  0.88040  Biso   1.000  C
  C156     1.0000 0.26010  0.28410  0.00090  Biso   1.000  C
  S1       1.0000 0.74540  0.80200  0.46170  Biso   1.000  S
  S2       1.0000 0.51530  0.23620  0.88840  Biso   1.000  S
  S3       1.0000 0.74540  0.65970  0.19800  Biso   1.000  S
  S4       1.0000 0.51530  0.65220  0.76380  Biso   1.000  S
  S5       1.0000 0.74540  0.53830  0.34030  Biso   1.000  S
  S6       1.0000 0.51530  0.11160  0.34780  Biso   1.000  S
  S7       1.0000 0.24540  0.65970  0.46170  Biso   1.000  S
  S8       1.0000 0.01530  0.65220  0.88840  Biso   1.000  S
  S9       1.0000 0.24540  0.53830  0.19800  Biso   1.000  S
  S10      1.0000 0.01530  0.11160  0.76380  Biso   1.000  S
  S11      1.0000 0.24540  0.80200  0.34030  Biso   1.000  S
  S12      1.0000 0.01530  0.23620  0.34780  Biso   1.000  S
  N1       1.0000 0.65230  0.90790  0.56890  Biso   1.000  N
  N2       1.0000 0.55070  0.09020  0.75980  Biso   1.000  N
  N3       1.0000 0.59270  0.93030  0.72030  Biso   1.000  N
  N4       1.0000 0.99690  0.95710  0.35000  Biso   1.000  N
  N5       1.0000 0.60550  0.07540  0.61030  Biso   1.000  N
  N6       1.0000 0.71350  0.14980  0.43960  Biso   1.000  N
  N7       1.0000 0.58910  0.04260  0.96040  Biso   1.000  N
  N8       1.0000 0.82670  0.09370  0.37510  Biso   1.000  N
  N9       1.0000 0.76640  0.05000  0.45240  Biso   1.000  N
  N10      1.0000 0.69880  0.28000  0.32870  Biso   1.000  N
  N11      1.0000 0.65230  0.66100  0.09210  Biso   1.000  N
  N12      1.0000 0.55070  0.66960  0.90980  Biso   1.000  N
  N13      1.0000 0.59270  0.79000  0.06970  Biso   1.000  N
  N14      1.0000 0.99690  0.39290  0.04290  Biso   1.000  N
  N15      1.0000 0.60550  0.53490  0.92460  Biso   1.000  N
  N16      1.0000 0.71350  0.28980  0.85020  Biso   1.000  N
  N17      1.0000 0.58910  0.91780  0.95740  Biso   1.000  N
  N18      1.0000 0.82670  0.28140  0.90630  Biso   1.000  N
  N19      1.0000 0.76640  0.40240  0.95000  Biso   1.000  N
  N20      1.0000 0.69880  0.04870  0.72000  Biso   1.000  N
  N21      1.0000 0.65230  0.43110  0.33900  Biso   1.000  N
  N22      1.0000 0.55070  0.24020  0.33040  Biso   1.000  N
  N23      1.0000 0.59270  0.27970  0.21000  Biso   1.000  N
  N24      1.0000 0.99690  0.65000  0.60710  Biso   1.000  N
  N25      1.0000 0.60550  0.38970  0.46510  Biso   1.000  N
  N26      1.0000 0.71350  0.56040  0.71020  Biso   1.000  N
  N27      1.0000 0.58910  0.03960  0.08220  Biso   1.000  N
  N28      1.0000 0.82670  0.62490  0.71860  Biso   1.000  N
  N29      1.0000 0.76640  0.54760  0.59760  Biso   1.000  N
  N30      1.0000 0.69880  0.67130  0.95130  Biso   1.000  N
  N31      1.0000 0.15230  0.66100  0.56890  Biso   1.000  N
  N32      1.0000 0.05070  0.66960  0.75980  Biso   1.000  N
  N33      1.0000 0.09270  0.79000  0.72030  Biso   1.000  N
  N34      1.0000 0.49690  0.39290  0.35000  Biso   1.000  N
  N35      1.0000 0.10550  0.53490  0.61030  Biso   1.000  N
  N36      1.0000 0.21350  0.28980  0.43960  Biso   1.000  N
  N37      1.0000 0.08910  0.91780  0.96040  Biso   1.000  N
  N38      1.0000 0.32670  0.28140  0.37510  Biso   1.000  N
  N39      1.0000 0.26640  0.40240  0.45240  Biso   1.000  N
  N40      1.0000 0.19880  0.04870  0.32870  Biso   1.000  N
  N41      1.0000 0.15230  0.43110  0.09210  Biso   1.000  N
  N42      1.0000 0.05070  0.24020  0.90980  Biso   1.000  N
  N43      1.0000 0.09270  0.27970  0.06970  Biso   1.000  N
  N44      1.0000 0.49690  0.65000  0.04290  Biso   1.000  N
  N45      1.0000 0.10550  0.38970  0.92460  Biso   1.000  N
  N46      1.0000 0.21350  0.56040  0.85020  Biso   1.000  N
  N47      1.0000 0.08910  0.03960  0.95740  Biso   1.000  N
  N48      1.0000 0.32670  0.62490  0.90630  Biso   1.000  N
  N49      1.0000 0.26640  0.54760  0.95000  Biso   1.000  N
  N50      1.0000 0.19880  0.67130  0.72000  Biso   1.000  N
  N51      1.0000 0.15230  0.90790  0.33900  Biso   1.000  N
  N52      1.0000 0.05070  0.09020  0.33040  Biso   1.000  N
  N53      1.0000 0.09270  0.93030  0.21000  Biso   1.000  N
  N54      1.0000 0.49690  0.95710  0.60710  Biso   1.000  N
  N55      1.0000 0.10550  0.07540  0.46510  Biso   1.000  N
  N56      1.0000 0.21350  0.14980  0.71020  Biso   1.000  N
  N57      1.0000 0.08910  0.04260  0.08220  Biso   1.000  N
  N58      1.0000 0.32670  0.09370  0.71860  Biso   1.000  N
  N59      1.0000 0.26640  0.05000  0.59760  Biso   1.000  N
  N60      1.0000 0.19880  0.28000  0.95130  Biso   1.000  N
