data_image0
_cell_length_a       11.05
_cell_length_b       11.05
_cell_length_c       27.772
_cell_angle_alpha    90
_cell_angle_beta     90
_cell_angle_gamma    120

_symmetry_space_group_name_H-M    P 1
_symmetry_int_tables_number       1

loop_
  _symmetry_equiv_pos_as_xyz
  'x, y, z'

loop_
  _atom_site_label
  _atom_site_occupancy
  _atom_site_fract_x
  _atom_site_fract_y
  _atom_site_fract_z
  _atom_site_thermal_displace_type
  _atom_site_B_iso_or_equiv
  _atom_site_type_symbol
  Co1      1.0000 0.07699  0.83077  0.97075  Biso   1.000  Co
  Co2      1.0000 0.75378  0.92301  0.63742  Biso   1.000  Co
  Co3      1.0000 0.16923  0.24622  0.30408  Biso   1.000  Co
  Co4      1.0000 0.24622  0.16923  0.02925  Biso   1.000  Co
  Co5      1.0000 0.83077  0.07699  0.36258  Biso   1.000  Co
  Co6      1.0000 0.92301  0.75378  0.69592  Biso   1.000  Co
  H1       1.0000 0.74640  0.53960  0.77690  Biso   1.000  H
  H2       1.0000 0.66350  0.15730  0.73980  Biso   1.000  H
  H3       1.0000 0.94320  0.50080  0.66740  Biso   1.000  H
  H4       1.0000 0.69310  0.44710  0.85070  Biso   1.000  H
  H5       1.0000 0.54570  0.35240  0.91640  Biso   1.000  H
  H6       1.0000 0.29810  0.00280  0.83970  Biso   1.000  H
  H7       1.0000 0.44850  0.09640  0.77480  Biso   1.000  H
  H8       1.0000 0.96910  0.77410  0.88790  Biso   1.000  H
  H9       1.0000 0.85270  0.74500  0.91410  Biso   1.000  H
  H10      1.0000 0.79320  0.25360  0.44357  Biso   1.000  H
  H11      1.0000 0.49380  0.33650  0.40647  Biso   1.000  H
  H12      1.0000 0.55760  0.05680  0.33407  Biso   1.000  H
  H13      1.0000 0.75400  0.30690  0.51737  Biso   1.000  H
  H14      1.0000 0.80670  0.45430  0.58307  Biso   1.000  H
  H15      1.0000 0.70470  0.70190  0.50637  Biso   1.000  H
  H16      1.0000 0.64790  0.55150  0.44147  Biso   1.000  H
  H17      1.0000 0.80500  0.03090  0.55457  Biso   1.000  H
  H18      1.0000 0.89230  0.14730  0.58077  Biso   1.000  H
  H19      1.0000 0.46040  0.20680  0.11023  Biso   1.000  H
  H20      1.0000 0.84270  0.50620  0.07313  Biso   1.000  H
  H21      1.0000 0.49920  0.44240  0.00073  Biso   1.000  H
  H22      1.0000 0.55290  0.24600  0.18403  Biso   1.000  H
  H23      1.0000 0.64760  0.19330  0.24973  Biso   1.000  H
  H24      1.0000 0.99720  0.29530  0.17303  Biso   1.000  H
  H25      1.0000 0.90360  0.35210  0.10813  Biso   1.000  H
  H26      1.0000 0.22590  0.19500  0.22123  Biso   1.000  H
  H27      1.0000 0.25500  0.10770  0.24743  Biso   1.000  H
  H28      1.0000 0.20680  0.46040  0.22310  Biso   1.000  H
  H29      1.0000 0.50620  0.84270  0.26020  Biso   1.000  H
  H30      1.0000 0.44240  0.49920  0.33260  Biso   1.000  H
  H31      1.0000 0.24600  0.55290  0.14930  Biso   1.000  H
  H32      1.0000 0.19330  0.64760  0.08360  Biso   1.000  H
  H33      1.0000 0.29530  0.99720  0.16030  Biso   1.000  H
  H34      1.0000 0.35210  0.90360  0.22520  Biso   1.000  H
  H35      1.0000 0.19500  0.22590  0.11210  Biso   1.000  H
  H36      1.0000 0.10770  0.25500  0.08590  Biso   1.000  H
  H37      1.0000 0.53960  0.74640  0.55643  Biso   1.000  H
  H38      1.0000 0.15730  0.66350  0.59353  Biso   1.000  H
  H39      1.0000 0.50080  0.94320  0.66593  Biso   1.000  H
  H40      1.0000 0.44710  0.69310  0.48263  Biso   1.000  H
  H41      1.0000 0.35240  0.54570  0.41693  Biso   1.000  H
  H42      1.0000 0.00280  0.29810  0.49363  Biso   1.000  H
  H43      1.0000 0.09640  0.44850  0.55853  Biso   1.000  H
  H44      1.0000 0.77410  0.96910  0.44543  Biso   1.000  H
  H45      1.0000 0.74500  0.85270  0.41923  Biso   1.000  H
  H46      1.0000 0.25360  0.79320  0.88977  Biso   1.000  H
  H47      1.0000 0.33650  0.49380  0.92687  Biso   1.000  H
  H48      1.0000 0.05680  0.55760  0.99927  Biso   1.000  H
  H49      1.0000 0.30690  0.75400  0.81597  Biso   1.000  H
  H50      1.0000 0.45430  0.80670  0.75027  Biso   1.000  H
  H51      1.0000 0.70190  0.70470  0.82697  Biso   1.000  H
  H52      1.0000 0.55150  0.64790  0.89187  Biso   1.000  H
  H53      1.0000 0.03090  0.80500  0.77877  Biso   1.000  H
  H54      1.0000 0.14730  0.89230  0.75257  Biso   1.000  H
  C1       1.0000 0.76000  0.48070  0.75644  Biso   1.000  C
  C2       1.0000 0.68580  0.33700  0.76539  Biso   1.000  C
  C3       1.0000 0.70940  0.25320  0.73474  Biso   1.000  C
  C4       1.0000 0.80260  0.31160  0.69576  Biso   1.000  C
  C5       1.0000 0.87550  0.45890  0.69122  Biso   1.000  C
  C6       1.0000 0.83200  0.22430  0.66178  Biso   1.000  C
  C7       1.0000 0.58710  0.28180  0.80670  Biso   1.000  C
  C8       1.0000 0.61560  0.35790  0.84878  Biso   1.000  C
  C9       1.0000 0.52710  0.29970  0.88837  Biso   1.000  C
  C10      1.0000 0.41020  0.16330  0.88715  Biso   1.000  C
  C11      1.0000 0.37870  0.08970  0.84250  Biso   1.000  C
  C12      1.0000 0.46750  0.14680  0.80331  Biso   1.000  C
  C13      1.0000 0.31720  0.09730  0.92952  Biso   1.000  C
  C14      1.0000 0.72070  0.24000  0.42311  Biso   1.000  C
  C15      1.0000 0.65120  0.31420  0.43206  Biso   1.000  C
  C16      1.0000 0.54380  0.29060  0.40141  Biso   1.000  C
  C17      1.0000 0.50900  0.19740  0.36243  Biso   1.000  C
  C18      1.0000 0.58340  0.12450  0.35789  Biso   1.000  C
  C19      1.0000 0.39230  0.16800  0.32845  Biso   1.000  C
  C20      1.0000 0.69470  0.41290  0.47337  Biso   1.000  C
  C21      1.0000 0.74230  0.38440  0.51545  Biso   1.000  C
  C22      1.0000 0.77260  0.47290  0.55504  Biso   1.000  C
  C23      1.0000 0.75310  0.58980  0.55382  Biso   1.000  C
  C24      1.0000 0.71100  0.62130  0.50917  Biso   1.000  C
  C25      1.0000 0.67930  0.53250  0.46998  Biso   1.000  C
  C26      1.0000 0.78010  0.68280  0.59619  Biso   1.000  C
  C27      1.0000 0.51930  0.27930  0.08977  Biso   1.000  C
  C28      1.0000 0.66300  0.34880  0.09872  Biso   1.000  C
  C29      1.0000 0.74680  0.45620  0.06807  Biso   1.000  C
  C30      1.0000 0.68840  0.49100  0.02909  Biso   1.000  C
  C31      1.0000 0.54110  0.41660  0.02455  Biso   1.000  C
  C32      1.0000 0.77570  0.60770  0.99511  Biso   1.000  C
  C33      1.0000 0.71820  0.30530  0.14003  Biso   1.000  C
  C34      1.0000 0.64210  0.25770  0.18211  Biso   1.000  C
  C35      1.0000 0.70030  0.22740  0.22170  Biso   1.000  C
  C36      1.0000 0.83670  0.24690  0.22048  Biso   1.000  C
  C37      1.0000 0.91030  0.28900  0.17583  Biso   1.000  C
  C38      1.0000 0.85320  0.32070  0.13664  Biso   1.000  C
  C39      1.0000 0.90270  0.21990  0.26285  Biso   1.000  C
  C40      1.0000 0.27930  0.51930  0.24356  Biso   1.000  C
  C41      1.0000 0.34880  0.66300  0.23461  Biso   1.000  C
  C42      1.0000 0.45620  0.74680  0.26526  Biso   1.000  C
  C43      1.0000 0.49100  0.68840  0.30424  Biso   1.000  C
  C44      1.0000 0.41660  0.54110  0.30878  Biso   1.000  C
  C45      1.0000 0.60770  0.77570  0.33822  Biso   1.000  C
  C46      1.0000 0.30530  0.71820  0.19330  Biso   1.000  C
  C47      1.0000 0.25770  0.64210  0.15122  Biso   1.000  C
  C48      1.0000 0.22740  0.70030  0.11163  Biso   1.000  C
  C49      1.0000 0.24690  0.83670  0.11285  Biso   1.000  C
  C50      1.0000 0.28900  0.91030  0.15750  Biso   1.000  C
  C51      1.0000 0.32070  0.85320  0.19669  Biso   1.000  C
  C52      1.0000 0.21990  0.90270  0.07048  Biso   1.000  C
  C53      1.0000 0.48070  0.76000  0.57689  Biso   1.000  C
  C54      1.0000 0.33700  0.68580  0.56794  Biso   1.000  C
  C55      1.0000 0.25320  0.70940  0.59859  Biso   1.000  C
  C56      1.0000 0.31160  0.80260  0.63757  Biso   1.000  C
  C57      1.0000 0.45890  0.87550  0.64211  Biso   1.000  C
  C58      1.0000 0.22430  0.83200  0.67155  Biso   1.000  C
  C59      1.0000 0.28180  0.58710  0.52663  Biso   1.000  C
  C60      1.0000 0.35790  0.61560  0.48455  Biso   1.000  C
  C61      1.0000 0.29970  0.52710  0.44496  Biso   1.000  C
  C62      1.0000 0.16330  0.41020  0.44618  Biso   1.000  C
  C63      1.0000 0.08970  0.37870  0.49083  Biso   1.000  C
  C64      1.0000 0.14680  0.46750  0.53002  Biso   1.000  C
  C65      1.0000 0.09730  0.31720  0.40381  Biso   1.000  C
  C66      1.0000 0.24000  0.72070  0.91023  Biso   1.000  C
  C67      1.0000 0.31420  0.65120  0.90128  Biso   1.000  C
  C68      1.0000 0.29060  0.54380  0.93193  Biso   1.000  C
  C69      1.0000 0.19740  0.50900  0.97091  Biso   1.000  C
  C70      1.0000 0.12450  0.58340  0.97545  Biso   1.000  C
  C71      1.0000 0.16800  0.39230  0.00489  Biso   1.000  C
  C72      1.0000 0.41290  0.69470  0.85997  Biso   1.000  C
  C73      1.0000 0.38440  0.74230  0.81789  Biso   1.000  C
  C74      1.0000 0.47290  0.77260  0.77830  Biso   1.000  C
  C75      1.0000 0.58980  0.75310  0.77952  Biso   1.000  C
  C76      1.0000 0.62130  0.71100  0.82417  Biso   1.000  C
  C77      1.0000 0.53250  0.67930  0.86336  Biso   1.000  C
  C78      1.0000 0.68280  0.78010  0.73715  Biso   1.000  C
  N1       1.0000 0.84970  0.53750  0.71978  Biso   1.000  N
  N2       1.0000 0.68780  0.15030  0.38645  Biso   1.000  N
  N3       1.0000 0.46250  0.31220  0.05311  Biso   1.000  N
  N4       1.0000 0.31220  0.46250  0.28022  Biso   1.000  N
  N5       1.0000 0.53750  0.84970  0.61355  Biso   1.000  N
  N6       1.0000 0.15030  0.68780  0.94689  Biso   1.000  N
  O1       1.0000 0.22070  0.97460  0.92481  Biso   1.000  O
  O2       1.0000 0.34920  0.16790  0.96738  Biso   1.000  O
  O3       1.0000 0.77390  0.09640  0.67173  Biso   1.000  O
  O4       1.0000 0.90720  0.28180  0.62683  Biso   1.000  O
  O5       1.0000 0.93990  0.80140  0.91149  Biso   1.000  O
  O6       1.0000 0.75390  0.77930  0.59148  Biso   1.000  O
  O7       1.0000 0.81870  0.65080  0.63405  Biso   1.000  O
  O8       1.0000 0.32250  0.22610  0.33840  Biso   1.000  O
  O9       1.0000 0.37460  0.09280  0.29350  Biso   1.000  O
  O10      1.0000 0.86150  0.06010  0.57816  Biso   1.000  O
  O11      1.0000 0.02540  0.24610  0.25814  Biso   1.000  O
  O12      1.0000 0.83210  0.18130  0.30071  Biso   1.000  O
  O13      1.0000 0.90360  0.67750  0.00506  Biso   1.000  O
  O14      1.0000 0.71820  0.62540  0.96016  Biso   1.000  O
  O15      1.0000 0.19860  0.13850  0.24482  Biso   1.000  O
  O16      1.0000 0.24610  0.02540  0.07519  Biso   1.000  O
  O17      1.0000 0.18130  0.83210  0.03262  Biso   1.000  O
  O18      1.0000 0.67750  0.90360  0.32827  Biso   1.000  O
  O19      1.0000 0.62540  0.71820  0.37317  Biso   1.000  O
  O20      1.0000 0.13850  0.19860  0.08851  Biso   1.000  O
  O21      1.0000 0.97460  0.22070  0.40852  Biso   1.000  O
  O22      1.0000 0.16790  0.34920  0.36595  Biso   1.000  O
  O23      1.0000 0.09640  0.77390  0.66160  Biso   1.000  O
  O24      1.0000 0.28180  0.90720  0.70650  Biso   1.000  O
  O25      1.0000 0.80140  0.93990  0.42184  Biso   1.000  O
  O26      1.0000 0.77930  0.75390  0.74186  Biso   1.000  O
  O27      1.0000 0.65080  0.81870  0.69929  Biso   1.000  O
  O28      1.0000 0.22610  0.32250  0.99494  Biso   1.000  O
  O29      1.0000 0.09280  0.37460  0.03984  Biso   1.000  O
  O30      1.0000 0.06010  0.86150  0.75518  Biso   1.000  O
