data_image0
_cell_length_a       13.006
_cell_length_b       14.279
_cell_length_c       17.515
_cell_angle_alpha    96.872
_cell_angle_beta     90
_cell_angle_gamma    90

_symmetry_space_group_name_H-M    P 1
_symmetry_int_tables_number       1

loop_
  _symmetry_equiv_pos_as_xyz
  'x, y, z'

loop_
  _atom_site_label
  _atom_site_occupancy
  _atom_site_fract_x
  _atom_site_fract_y
  _atom_site_fract_z
  _atom_site_thermal_displace_type
  _atom_site_B_iso_or_equiv
  _atom_site_type_symbol
  Co1      1.0000 0.06702  0.99855  0.77396  Biso   1.000  Co
  Co2      1.0000 0.27162  0.43054  0.13121  Biso   1.000  Co
  Co3      1.0000 0.56702  0.50145  0.72604  Biso   1.000  Co
  Co4      1.0000 0.77162  0.06946  0.36879  Biso   1.000  Co
  Co5      1.0000 0.93298  0.00145  0.22604  Biso   1.000  Co
  Co6      1.0000 0.72838  0.56946  0.86879  Biso   1.000  Co
  Co7      1.0000 0.43298  0.49855  0.27396  Biso   1.000  Co
  Co8      1.0000 0.22838  0.93054  0.63121  Biso   1.000  Co
  H1       1.0000 0.60180  0.22730  0.22540  Biso   1.000  H
  H2       1.0000 0.55550  0.30850  0.01460  Biso   1.000  H
  H3       1.0000 0.79160  0.13530  0.05010  Biso   1.000  H
  H4       1.0000 0.81790  0.11820  0.93580  Biso   1.000  H
  H5       1.0000 0.80460  0.23310  0.73590  Biso   1.000  H
  H6       1.0000 0.64040  0.34720  0.91990  Biso   1.000  H
  H7       1.0000 0.26940  0.23770  0.04570  Biso   1.000  H
  H8       1.0000 0.18120  0.03110  0.02900  Biso   1.000  H
  H9       1.0000 0.14110  0.06480  0.95040  Biso   1.000  H
  H10      1.0000 0.25350  0.09430  0.98180  Biso   1.000  H
  H11      1.0000 0.01100  0.24460  0.06980  Biso   1.000  H
  H12      1.0000 0.99610  0.16670  0.99700  Biso   1.000  H
  H13      1.0000 0.00170  0.13560  0.08160  Biso   1.000  H
  H14      1.0000 0.10230  0.54840  0.05480  Biso   1.000  H
  H15      1.0000 0.97590  0.70160  0.22430  Biso   1.000  H
  H16      1.0000 0.90530  0.60910  0.21340  Biso   1.000  H
  H17      1.0000 0.02140  0.60260  0.24260  Biso   1.000  H
  H18      1.0000 0.97860  0.63260  0.02120  Biso   1.000  H
  H19      1.0000 0.88100  0.64830  0.07690  Biso   1.000  H
  H20      1.0000 0.96880  0.72710  0.07990  Biso   1.000  H
  H21      1.0000 0.36280  0.44630  0.99580  Biso   1.000  H
  H22      1.0000 0.25670  0.50960  0.00010  Biso   1.000  H
  H23      1.0000 0.10180  0.27270  0.27460  Biso   1.000  H
  H24      1.0000 0.05550  0.19150  0.48540  Biso   1.000  H
  H25      1.0000 0.29160  0.36470  0.44990  Biso   1.000  H
  H26      1.0000 0.31790  0.38180  0.56420  Biso   1.000  H
  H27      1.0000 0.30460  0.26690  0.76410  Biso   1.000  H
  H28      1.0000 0.14040  0.15280  0.58010  Biso   1.000  H
  H29      1.0000 0.76940  0.26230  0.45430  Biso   1.000  H
  H30      1.0000 0.68120  0.46890  0.47100  Biso   1.000  H
  H31      1.0000 0.64110  0.43520  0.54960  Biso   1.000  H
  H32      1.0000 0.75350  0.40570  0.51820  Biso   1.000  H
  H33      1.0000 0.51100  0.25540  0.43020  Biso   1.000  H
  H34      1.0000 0.49610  0.33330  0.50300  Biso   1.000  H
  H35      1.0000 0.50170  0.36440  0.41840  Biso   1.000  H
  H36      1.0000 0.60230  0.95160  0.44520  Biso   1.000  H
  H37      1.0000 0.47590  0.79840  0.27570  Biso   1.000  H
  H38      1.0000 0.40530  0.89090  0.28660  Biso   1.000  H
  H39      1.0000 0.52140  0.89740  0.25740  Biso   1.000  H
  H40      1.0000 0.47860  0.86740  0.47880  Biso   1.000  H
  H41      1.0000 0.38100  0.85170  0.42310  Biso   1.000  H
  H42      1.0000 0.46880  0.77290  0.42010  Biso   1.000  H
  H43      1.0000 0.86280  0.05370  0.50420  Biso   1.000  H
  H44      1.0000 0.75670  0.99040  0.49990  Biso   1.000  H
  H45      1.0000 0.39820  0.77270  0.77460  Biso   1.000  H
  H46      1.0000 0.44450  0.69150  0.98540  Biso   1.000  H
  H47      1.0000 0.20840  0.86470  0.94990  Biso   1.000  H
  H48      1.0000 0.18210  0.88180  0.06420  Biso   1.000  H
  H49      1.0000 0.19540  0.76690  0.26410  Biso   1.000  H
  H50      1.0000 0.35960  0.65280  0.08010  Biso   1.000  H
  H51      1.0000 0.73060  0.76230  0.95430  Biso   1.000  H
  H52      1.0000 0.81880  0.96890  0.97100  Biso   1.000  H
  H53      1.0000 0.85890  0.93520  0.04960  Biso   1.000  H
  H54      1.0000 0.74650  0.90570  0.01820  Biso   1.000  H
  H55      1.0000 0.98900  0.75540  0.93020  Biso   1.000  H
  H56      1.0000 0.00390  0.83330  0.00300  Biso   1.000  H
  H57      1.0000 0.99830  0.86440  0.91840  Biso   1.000  H
  H58      1.0000 0.89770  0.45160  0.94520  Biso   1.000  H
  H59      1.0000 0.02410  0.29840  0.77570  Biso   1.000  H
  H60      1.0000 0.09470  0.39090  0.78660  Biso   1.000  H
  H61      1.0000 0.97860  0.39740  0.75740  Biso   1.000  H
  H62      1.0000 0.02140  0.36740  0.97880  Biso   1.000  H
  H63      1.0000 0.11900  0.35170  0.92310  Biso   1.000  H
  H64      1.0000 0.03120  0.27290  0.92010  Biso   1.000  H
  H65      1.0000 0.63720  0.55370  0.00420  Biso   1.000  H
  H66      1.0000 0.74330  0.49040  0.99990  Biso   1.000  H
  H67      1.0000 0.89820  0.72730  0.72540  Biso   1.000  H
  H68      1.0000 0.94450  0.80850  0.51460  Biso   1.000  H
  H69      1.0000 0.70840  0.63530  0.55010  Biso   1.000  H
  H70      1.0000 0.68210  0.61820  0.43580  Biso   1.000  H
  H71      1.0000 0.69540  0.73310  0.23590  Biso   1.000  H
  H72      1.0000 0.85960  0.84720  0.41990  Biso   1.000  H
  H73      1.0000 0.23060  0.73770  0.54570  Biso   1.000  H
  H74      1.0000 0.31880  0.53110  0.52900  Biso   1.000  H
  H75      1.0000 0.35890  0.56480  0.45040  Biso   1.000  H
  H76      1.0000 0.24650  0.59430  0.48180  Biso   1.000  H
  H77      1.0000 0.48900  0.74460  0.56980  Biso   1.000  H
  H78      1.0000 0.50390  0.66670  0.49700  Biso   1.000  H
  H79      1.0000 0.49830  0.63560  0.58160  Biso   1.000  H
  H80      1.0000 0.39770  0.04840  0.55480  Biso   1.000  H
  H81      1.0000 0.52410  0.20160  0.72430  Biso   1.000  H
  H82      1.0000 0.59470  0.10910  0.71340  Biso   1.000  H
  H83      1.0000 0.47860  0.10260  0.74260  Biso   1.000  H
  H84      1.0000 0.52140  0.13260  0.52120  Biso   1.000  H
  H85      1.0000 0.61900  0.14830  0.57690  Biso   1.000  H
  H86      1.0000 0.53120  0.22710  0.57990  Biso   1.000  H
  H87      1.0000 0.13720  0.94630  0.49580  Biso   1.000  H
  H88      1.0000 0.24330  0.00960  0.50010  Biso   1.000  H
  C1       1.0000 0.62100  0.22540  0.17286  Biso   1.000  C
  C2       1.0000 0.48190  0.34200  0.15660  Biso   1.000  C
  C3       1.0000 0.56650  0.27750  0.12470  Biso   1.000  C
  C4       1.0000 0.59530  0.27530  0.04820  Biso   1.000  C
  C5       1.0000 0.71960  0.22900  0.93990  Biso   1.000  C
  C6       1.0000 0.70300  0.17050  0.14470  Biso   1.000  C
  C7       1.0000 0.68180  0.22520  0.02000  Biso   1.000  C
  C8       1.0000 0.73380  0.17170  0.06890  Biso   1.000  C
  C9       1.0000 0.79130  0.16470  0.90660  Biso   1.000  C
  C10      1.0000 0.90770  0.09960  0.80000  Biso   1.000  C
  C11      1.0000 0.71660  0.30050  0.82200  Biso   1.000  C
  C12      1.0000 0.67500  0.37360  0.77660  Biso   1.000  C
  C13      1.0000 0.78520  0.23340  0.78820  Biso   1.000  C
  C14      1.0000 0.68550  0.29950  0.89700  Biso   1.000  C
  C15      1.0000 0.82500  0.16660  0.83190  Biso   1.000  C
  C16      1.0000 0.76230  0.11170  0.19520  Biso   1.000  C
  C17      1.0000 0.19900  0.24760  0.05880  Biso   1.000  C
  C18      1.0000 0.18240  0.08250  0.99660  Biso   1.000  C
  C19      1.0000 0.02800  0.18000  0.04800  Biso   1.000  C
  C20      1.0000 0.08670  0.55600  0.10820  Biso   1.000  C
  C21      1.0000 0.97530  0.63330  0.20900  Biso   1.000  C
  C22      1.0000 0.95500  0.65920  0.07240  Biso   1.000  C
  C23      1.0000 0.12100  0.27460  0.32714  Biso   1.000  C
  C24      1.0000 0.98190  0.15800  0.34340  Biso   1.000  C
  C25      1.0000 0.06650  0.22250  0.37530  Biso   1.000  C
  C26      1.0000 0.09530  0.22470  0.45180  Biso   1.000  C
  C27      1.0000 0.21960  0.27100  0.56010  Biso   1.000  C
  C28      1.0000 0.20300  0.32950  0.35530  Biso   1.000  C
  C29      1.0000 0.18180  0.27480  0.48000  Biso   1.000  C
  C30      1.0000 0.23380  0.32830  0.43110  Biso   1.000  C
  C31      1.0000 0.29130  0.33530  0.59340  Biso   1.000  C
  C32      1.0000 0.40770  0.40040  0.70000  Biso   1.000  C
  C33      1.0000 0.21660  0.19950  0.67800  Biso   1.000  C
  C34      1.0000 0.17500  0.12640  0.72340  Biso   1.000  C
  C35      1.0000 0.28520  0.26660  0.71180  Biso   1.000  C
  C36      1.0000 0.18550  0.20050  0.60300  Biso   1.000  C
  C37      1.0000 0.32500  0.33340  0.66810  Biso   1.000  C
  C38      1.0000 0.26230  0.38830  0.30480  Biso   1.000  C
  C39      1.0000 0.69900  0.25240  0.44120  Biso   1.000  C
  C40      1.0000 0.68240  0.41750  0.50340  Biso   1.000  C
  C41      1.0000 0.52800  0.32000  0.45200  Biso   1.000  C
  C42      1.0000 0.58670  0.94400  0.39180  Biso   1.000  C
  C43      1.0000 0.47530  0.86670  0.29100  Biso   1.000  C
  C44      1.0000 0.45500  0.84080  0.42760  Biso   1.000  C
  C45      1.0000 0.37900  0.77460  0.82714  Biso   1.000  C
  C46      1.0000 0.51810  0.65800  0.84340  Biso   1.000  C
  C47      1.0000 0.43350  0.72250  0.87530  Biso   1.000  C
  C48      1.0000 0.40470  0.72470  0.95180  Biso   1.000  C
  C49      1.0000 0.28040  0.77100  0.06010  Biso   1.000  C
  C50      1.0000 0.29700  0.82950  0.85530  Biso   1.000  C
  C51      1.0000 0.31820  0.77480  0.98000  Biso   1.000  C
  C52      1.0000 0.26620  0.82830  0.93110  Biso   1.000  C
  C53      1.0000 0.20870  0.83530  0.09340  Biso   1.000  C
  C54      1.0000 0.09230  0.90040  0.20000  Biso   1.000  C
  C55      1.0000 0.28340  0.69950  0.17800  Biso   1.000  C
  C56      1.0000 0.32500  0.62640  0.22340  Biso   1.000  C
  C57      1.0000 0.21480  0.76660  0.21180  Biso   1.000  C
  C58      1.0000 0.31450  0.70050  0.10300  Biso   1.000  C
  C59      1.0000 0.17500  0.83340  0.16810  Biso   1.000  C
  C60      1.0000 0.23770  0.88830  0.80480  Biso   1.000  C
  C61      1.0000 0.80100  0.75240  0.94120  Biso   1.000  C
  C62      1.0000 0.81760  0.91750  0.00340  Biso   1.000  C
  C63      1.0000 0.97200  0.82000  0.95200  Biso   1.000  C
  C64      1.0000 0.91330  0.44400  0.89180  Biso   1.000  C
  C65      1.0000 0.02470  0.36670  0.79100  Biso   1.000  C
  C66      1.0000 0.04500  0.34080  0.92760  Biso   1.000  C
  C67      1.0000 0.87900  0.72540  0.67286  Biso   1.000  C
  C68      1.0000 0.01810  0.84200  0.65660  Biso   1.000  C
  C69      1.0000 0.93350  0.77750  0.62470  Biso   1.000  C
  C70      1.0000 0.90470  0.77530  0.54820  Biso   1.000  C
  C71      1.0000 0.78040  0.72900  0.43990  Biso   1.000  C
  C72      1.0000 0.79700  0.67050  0.64470  Biso   1.000  C
  C73      1.0000 0.81820  0.72520  0.52000  Biso   1.000  C
  C74      1.0000 0.76620  0.67170  0.56890  Biso   1.000  C
  C75      1.0000 0.70870  0.66470  0.40660  Biso   1.000  C
  C76      1.0000 0.59230  0.59960  0.30000  Biso   1.000  C
  C77      1.0000 0.78340  0.80050  0.32200  Biso   1.000  C
  C78      1.0000 0.82500  0.87360  0.27660  Biso   1.000  C
  C79      1.0000 0.71480  0.73340  0.28820  Biso   1.000  C
  C80      1.0000 0.81450  0.79950  0.39700  Biso   1.000  C
  C81      1.0000 0.67500  0.66660  0.33190  Biso   1.000  C
  C82      1.0000 0.73770  0.61170  0.69520  Biso   1.000  C
  C83      1.0000 0.30100  0.74760  0.55880  Biso   1.000  C
  C84      1.0000 0.31760  0.58250  0.49660  Biso   1.000  C
  C85      1.0000 0.47200  0.68000  0.54800  Biso   1.000  C
  C86      1.0000 0.41330  0.05600  0.60820  Biso   1.000  C
  C87      1.0000 0.52470  0.13330  0.70900  Biso   1.000  C
  C88      1.0000 0.54500  0.15920  0.57240  Biso   1.000  C
  N1       1.0000 0.13870  0.17020  0.04060  Biso   1.000  N
  N2       1.0000 0.00950  0.61380  0.13080  Biso   1.000  N
  N3       1.0000 0.63870  0.32980  0.45940  Biso   1.000  N
  N4       1.0000 0.50950  0.88620  0.36920  Biso   1.000  N
  N5       1.0000 0.86130  0.82980  0.95940  Biso   1.000  N
  N6       1.0000 0.99050  0.38620  0.86920  Biso   1.000  N
  N7       1.0000 0.36130  0.67020  0.54060  Biso   1.000  N
  N8       1.0000 0.49050  0.11380  0.63080  Biso   1.000  N
  O1       1.0000 0.92710  0.08920  0.72976  Biso   1.000  O
  O2       1.0000 0.95840  0.05748  0.84720  Biso   1.000  O
  O3       1.0000 0.49540  0.37869  0.22530  Biso   1.000  O
  O4       1.0000 0.40780  0.35551  0.11409  Biso   1.000  O
  O5       1.0000 0.83290  0.06098  0.16287  Biso   1.000  O
  O6       1.0000 0.73810  0.11754  0.26415  Biso   1.000  O
  O7       1.0000 0.64416  0.45242  0.81414  Biso   1.000  O
  O8       1.0000 0.66410  0.35775  0.70637  Biso   1.000  O
  O9       1.0000 0.18250  0.31700  0.08490  Biso   1.000  O
  O10      1.0000 0.13810  0.51320  0.14760  Biso   1.000  O
  O11      1.0000 0.30260  0.46910  0.02274  Biso   1.000  O
  O12      1.0000 0.42710  0.41080  0.77024  Biso   1.000  O
  O13      1.0000 0.45840  0.44252  0.65280  Biso   1.000  O
  O14      1.0000 0.99540  0.12131  0.27470  Biso   1.000  O
  O15      1.0000 0.90780  0.14449  0.38591  Biso   1.000  O
  O16      1.0000 0.33290  0.43902  0.33713  Biso   1.000  O
  O17      1.0000 0.23810  0.38246  0.23585  Biso   1.000  O
  O18      1.0000 0.14416  0.04758  0.68586  Biso   1.000  O
  O19      1.0000 0.16410  0.14225  0.79363  Biso   1.000  O
  O20      1.0000 0.68250  0.18300  0.41510  Biso   1.000  O
  O21      1.0000 0.63810  0.98680  0.35240  Biso   1.000  O
  O22      1.0000 0.80260  0.03090  0.47726  Biso   1.000  O
  O23      1.0000 0.07290  0.91080  0.27024  Biso   1.000  O
  O24      1.0000 0.04160  0.94252  0.15280  Biso   1.000  O
  O25      1.0000 0.50460  0.62131  0.77470  Biso   1.000  O
  O26      1.0000 0.59220  0.64449  0.88591  Biso   1.000  O
  O27      1.0000 0.16710  0.93902  0.83713  Biso   1.000  O
  O28      1.0000 0.26190  0.88246  0.73585  Biso   1.000  O
  O29      1.0000 0.35584  0.54758  0.18586  Biso   1.000  O
  O30      1.0000 0.33590  0.64225  0.29363  Biso   1.000  O
  O31      1.0000 0.81750  0.68300  0.91510  Biso   1.000  O
  O32      1.0000 0.86190  0.48680  0.85240  Biso   1.000  O
  O33      1.0000 0.69740  0.53090  0.97726  Biso   1.000  O
  O34      1.0000 0.57290  0.58920  0.22976  Biso   1.000  O
  O35      1.0000 0.54160  0.55748  0.34720  Biso   1.000  O
  O36      1.0000 0.00460  0.87869  0.72530  Biso   1.000  O
  O37      1.0000 0.09220  0.85551  0.61409  Biso   1.000  O
  O38      1.0000 0.66710  0.56098  0.66287  Biso   1.000  O
  O39      1.0000 0.76190  0.61754  0.76415  Biso   1.000  O
  O40      1.0000 0.85584  0.95242  0.31414  Biso   1.000  O
  O41      1.0000 0.83590  0.85775  0.20637  Biso   1.000  O
  O42      1.0000 0.31750  0.81700  0.58490  Biso   1.000  O
  O43      1.0000 0.36190  0.01320  0.64760  Biso   1.000  O
  O44      1.0000 0.19740  0.96910  0.52274  Biso   1.000  O
