data_image0
_cell_length_a       8.655
_cell_length_b       9.9366
_cell_length_c       11.717
_cell_angle_alpha    74.71
_cell_angle_beta     69.795
_cell_angle_gamma    85.959

_symmetry_space_group_name_H-M    P 1
_symmetry_int_tables_number       1

loop_
  _symmetry_equiv_pos_as_xyz
  'x, y, z'

loop_
  _atom_site_label
  _atom_site_occupancy
  _atom_site_fract_x
  _atom_site_fract_y
  _atom_site_fract_z
  _atom_site_thermal_displace_type
  _atom_site_B_iso_or_equiv
  _atom_site_type_symbol
  Pr1      1.0000 0.74555  0.97761  0.01192  Biso   1.000  Pr
  Pr2      1.0000 0.25445  0.02239  0.98808  Biso   1.000  Pr
  H1       1.0000 0.26560  0.97540  0.67210  Biso   1.000  H
  H2       1.0000 0.24580  0.81350  0.72540  Biso   1.000  H
  H3       1.0000 0.09510  0.79840  0.60280  Biso   1.000  H
  H4       1.0000 0.08570  0.96140  0.56040  Biso   1.000  H
  H5       1.0000 0.37420  0.97290  0.45710  Biso   1.000  H
  H6       1.0000 0.37620  0.80960  0.49340  Biso   1.000  H
  H7       1.0000 0.20450  0.95950  0.33650  Biso   1.000  H
  H8       1.0000 0.23380  0.79870  0.36240  Biso   1.000  H
  H9       1.0000 0.75490  0.48330  0.21830  Biso   1.000  H
  H10      1.0000 0.72090  0.46960  0.09880  Biso   1.000  H
  H11      1.0000 0.03490  0.52250  0.10270  Biso   1.000  H
  H12      1.0000 0.97670  0.37820  0.09940  Biso   1.000  H
  H13      1.0000 0.96700  0.22600  0.85000  Biso   1.000  H
  H14      1.0000 0.83200  0.26400  0.83200  Biso   1.000  H
  H15      1.0000 0.64400  0.26300  0.04400  Biso   1.000  H
  H16      1.0000 0.53800  0.20800  0.13200  Biso   1.000  H
  H17      1.0000 0.73440  0.02460  0.32790  Biso   1.000  H
  H18      1.0000 0.75420  0.18650  0.27460  Biso   1.000  H
  H19      1.0000 0.90490  0.20160  0.39720  Biso   1.000  H
  H20      1.0000 0.91430  0.03860  0.43960  Biso   1.000  H
  H21      1.0000 0.62580  0.02710  0.54290  Biso   1.000  H
  H22      1.0000 0.62380  0.19040  0.50660  Biso   1.000  H
  H23      1.0000 0.79550  0.04050  0.66350  Biso   1.000  H
  H24      1.0000 0.76620  0.20130  0.63760  Biso   1.000  H
  H25      1.0000 0.24510  0.51670  0.78170  Biso   1.000  H
  H26      1.0000 0.27910  0.53040  0.90120  Biso   1.000  H
  H27      1.0000 0.96510  0.47750  0.89730  Biso   1.000  H
  H28      1.0000 0.02330  0.62180  0.90060  Biso   1.000  H
  H29      1.0000 0.03300  0.77400  0.15000  Biso   1.000  H
  H30      1.0000 0.16800  0.73600  0.16800  Biso   1.000  H
  H31      1.0000 0.35600  0.73700  0.95600  Biso   1.000  H
  H32      1.0000 0.46200  0.79200  0.86800  Biso   1.000  H
  C1       1.0000 0.04460  0.91560  0.80680  Biso   1.000  C
  C2       1.0000 0.18990  0.89700  0.69720  Biso   1.000  C
  C3       1.0000 0.15500  0.88530  0.58290  Biso   1.000  C
  C4       1.0000 0.31090  0.88940  0.47200  Biso   1.000  C
  C5       1.0000 0.28290  0.88820  0.35120  Biso   1.000  C
  C6       1.0000 0.56440  0.08730  0.76330  Biso   1.000  C
  C7       1.0000 0.76220  0.67150  0.09280  Biso   1.000  C
  C8       1.0000 0.78940  0.51660  0.12740  Biso   1.000  C
  C9       1.0000 0.96720  0.47840  0.07130  Biso   1.000  C
  C10      1.0000 0.95540  0.08440  0.19320  Biso   1.000  C
  C11      1.0000 0.81010  0.10300  0.30280  Biso   1.000  C
  C12      1.0000 0.84500  0.11470  0.41710  Biso   1.000  C
  C13      1.0000 0.68910  0.11060  0.52800  Biso   1.000  C
  C14      1.0000 0.71710  0.11180  0.64880  Biso   1.000  C
  C15      1.0000 0.43560  0.91270  0.23670  Biso   1.000  C
  C16      1.0000 0.23780  0.32850  0.90720  Biso   1.000  C
  C17      1.0000 0.21060  0.48340  0.87260  Biso   1.000  C
  C18      1.0000 0.03280  0.52160  0.92870  Biso   1.000  C
  O1       1.0000 0.57770  0.04480  0.87212  Biso   1.000  O
  O2       1.0000 0.57510  0.89270  0.24680  Biso   1.000  O
  O3       1.0000 0.86250  0.75300  0.09830  Biso   1.000  O
  O4       1.0000 0.64160  0.71860  0.05910  Biso   1.000  O
  O5       1.0000 0.90060  0.88360  0.81880  Biso   1.000  O
  O6       1.0000 0.06810  0.96470  0.88908  Biso   1.000  O
  O7       1.0000 0.62430  0.19730  0.08790  Biso   1.000  O
  O8       1.0000 0.87160  0.20190  0.84740  Biso   1.000  O
  O9       1.0000 0.42230  0.95520  0.12788  Biso   1.000  O
  O10      1.0000 0.42490  0.10730  0.75320  Biso   1.000  O
  O11      1.0000 0.13750  0.24700  0.90170  Biso   1.000  O
  O12      1.0000 0.35840  0.28140  0.94090  Biso   1.000  O
  O13      1.0000 0.09940  0.11640  0.18120  Biso   1.000  O
  O14      1.0000 0.93190  0.03530  0.11092  Biso   1.000  O
  O15      1.0000 0.37570  0.80270  0.91210  Biso   1.000  O
  O16      1.0000 0.12840  0.79810  0.15260  Biso   1.000  O
