data_image0
_cell_length_a       11.4287
_cell_length_b       11.7031
_cell_length_c       12.918
_cell_angle_alpha    64.005
_cell_angle_beta     89.783
_cell_angle_gamma    71.129

_symmetry_space_group_name_H-M    P 1
_symmetry_int_tables_number       1

loop_
  _symmetry_equiv_pos_as_xyz
  'x, y, z'

loop_
  _atom_site_label
  _atom_site_occupancy
  _atom_site_fract_x
  _atom_site_fract_y
  _atom_site_fract_z
  _atom_site_thermal_displace_type
  _atom_site_B_iso_or_equiv
  _atom_site_type_symbol
  Cu1      1.0000 0.62499  0.83158  0.91995  Biso   1.000  Cu
  Cu2      1.0000 0.45441  0.13139  0.50200  Biso   1.000  Cu
  Cu3      1.0000 0.68451  0.36193  0.20390  Biso   1.000  Cu
  Cu4      1.0000 0.37501  0.16842  0.08005  Biso   1.000  Cu
  Cu5      1.0000 0.54559  0.86861  0.49800  Biso   1.000  Cu
  Cu6      1.0000 0.31549  0.63807  0.79610  Biso   1.000  Cu
  H1       1.0000 0.09050  0.47920  0.06780  Biso   1.000  H
  H2       1.0000 0.03270  0.56750  0.13080  Biso   1.000  H
  H3       1.0000 0.17160  0.54200  0.10860  Biso   1.000  H
  H4       1.0000 0.31850  0.37360  0.27800  Biso   1.000  H
  H5       1.0000 0.59760  0.12480  0.78730  Biso   1.000  H
  H6       1.0000 0.21110  0.06100  0.58270  Biso   1.000  H
  H7       1.0000 0.07890  0.09170  0.52080  Biso   1.000  H
  H8       1.0000 0.19950  0.99580  0.50180  Biso   1.000  H
  H9       1.0000 0.90790  0.39040  0.23620  Biso   1.000  H
  H10      1.0000 0.93100  0.25390  0.34960  Biso   1.000  H
  H11      1.0000 0.13890  0.15530  0.19290  Biso   1.000  H
  H12      1.0000 0.10760  0.06150  0.07550  Biso   1.000  H
  H13      1.0000 0.90960  0.06910  0.02970  Biso   1.000  H
  H14      1.0000 0.66360  0.14290  0.16020  Biso   1.000  H
  H15      1.0000 0.63820  0.28260  0.04960  Biso   1.000  H
  H16      1.0000 0.54870  0.36820  0.73880  Biso   1.000  H
  H17      1.0000 0.57770  0.39850  0.84080  Biso   1.000  H
  H18      1.0000 0.68590  0.35040  0.77760  Biso   1.000  H
  H19      1.0000 0.74030  0.79010  0.15120  Biso   1.000  H
  H20      1.0000 0.78550  0.87180  0.20100  Biso   1.000  H
  H21      1.0000 0.64700  0.87590  0.20200  Biso   1.000  H
  H22      1.0000 0.90950  0.52080  0.93220  Biso   1.000  H
  H23      1.0000 0.96730  0.43250  0.86920  Biso   1.000  H
  H24      1.0000 0.82840  0.45800  0.89140  Biso   1.000  H
  H25      1.0000 0.68150  0.62640  0.72200  Biso   1.000  H
  H26      1.0000 0.40240  0.87520  0.21270  Biso   1.000  H
  H27      1.0000 0.78890  0.93900  0.41730  Biso   1.000  H
  H28      1.0000 0.92110  0.90830  0.47920  Biso   1.000  H
  H29      1.0000 0.80050  0.00420  0.49820  Biso   1.000  H
  H30      1.0000 0.09210  0.60960  0.76380  Biso   1.000  H
  H31      1.0000 0.06900  0.74610  0.65040  Biso   1.000  H
  H32      1.0000 0.86110  0.84470  0.80710  Biso   1.000  H
  H33      1.0000 0.89240  0.93850  0.92450  Biso   1.000  H
  H34      1.0000 0.09040  0.93090  0.97030  Biso   1.000  H
  H35      1.0000 0.33640  0.85710  0.83980  Biso   1.000  H
  H36      1.0000 0.36180  0.71740  0.95040  Biso   1.000  H
  H37      1.0000 0.45130  0.63180  0.26120  Biso   1.000  H
  H38      1.0000 0.42230  0.60150  0.15920  Biso   1.000  H
  H39      1.0000 0.31410  0.64960  0.22240  Biso   1.000  H
  H40      1.0000 0.25970  0.20990  0.84880  Biso   1.000  H
  H41      1.0000 0.21450  0.12820  0.79900  Biso   1.000  H
  H42      1.0000 0.35300  0.12410  0.79800  Biso   1.000  H
  C1       1.0000 0.10770  0.50280  0.12710  Biso   1.000  C
  C2       1.0000 0.15080  0.37950  0.24070  Biso   1.000  C
  C3       1.0000 0.09220  0.29110  0.31030  Biso   1.000  C
  C4       1.0000 0.17730  0.19670  0.40940  Biso   1.000  C
  C5       1.0000 0.16560  0.07520  0.51310  Biso   1.000  C
  C6       1.0000 0.96280  0.29570  0.27810  Biso   1.000  C
  C7       1.0000 0.95530  0.22800  0.20630  Biso   1.000  C
  C8       1.0000 0.05900  0.16120  0.17080  Biso   1.000  C
  C9       1.0000 0.04030  0.10410  0.10260  Biso   1.000  C
  C10      1.0000 0.92220  0.10990  0.07420  Biso   1.000  C
  C11      1.0000 0.82380  0.17540  0.11150  Biso   1.000  C
  C12      1.0000 0.69090  0.18700  0.08660  Biso   1.000  C
  C13      1.0000 0.60930  0.34130  0.80410  Biso   1.000  C
  C14      1.0000 0.63360  0.19640  0.89010  Biso   1.000  C
  C15      1.0000 0.66980  0.12560  0.00900  Biso   1.000  C
  C16      1.0000 0.67760  0.99190  0.04220  Biso   1.000  C
  C17      1.0000 0.71600  0.87180  0.15950  Biso   1.000  C
  C18      1.0000 0.52070  0.01020  0.65850  Biso   1.000  C
  C19      1.0000 0.59000  0.29410  0.31600  Biso   1.000  C
  C20      1.0000 0.65710  0.65230  0.02360  Biso   1.000  C
  C21      1.0000 0.89230  0.49720  0.87290  Biso   1.000  C
  C22      1.0000 0.84920  0.62050  0.75930  Biso   1.000  C
  C23      1.0000 0.90780  0.70890  0.68970  Biso   1.000  C
  C24      1.0000 0.82270  0.80330  0.59060  Biso   1.000  C
  C25      1.0000 0.83440  0.92480  0.48690  Biso   1.000  C
  C26      1.0000 0.03720  0.70430  0.72190  Biso   1.000  C
  C27      1.0000 0.04470  0.77200  0.79370  Biso   1.000  C
  C28      1.0000 0.94100  0.83880  0.82920  Biso   1.000  C
  C29      1.0000 0.95970  0.89590  0.89740  Biso   1.000  C
  C30      1.0000 0.07780  0.89010  0.92580  Biso   1.000  C
  C31      1.0000 0.17620  0.82460  0.88850  Biso   1.000  C
  C32      1.0000 0.30910  0.81300  0.91340  Biso   1.000  C
  C33      1.0000 0.39070  0.65870  0.19590  Biso   1.000  C
  C34      1.0000 0.36640  0.80360  0.10990  Biso   1.000  C
  C35      1.0000 0.33020  0.87440  0.99100  Biso   1.000  C
  C36      1.0000 0.32240  0.00810  0.95780  Biso   1.000  C
  C37      1.0000 0.28400  0.12820  0.84050  Biso   1.000  C
  C38      1.0000 0.47930  0.98980  0.34150  Biso   1.000  C
  C39      1.0000 0.41000  0.70590  0.68400  Biso   1.000  C
  C40      1.0000 0.34290  0.34770  0.97640  Biso   1.000  C
  N1       1.0000 0.28430  0.21930  0.40590  Biso   1.000  N
  N2       1.0000 0.26420  0.33490  0.30130  Biso   1.000  N
  N3       1.0000 0.84020  0.23500  0.17540  Biso   1.000  N
  N4       1.0000 0.62080  0.10520  0.85820  Biso   1.000  N
  N5       1.0000 0.64850  0.97870  0.94970  Biso   1.000  N
  N6       1.0000 0.56280  0.94050  0.75450  Biso   1.000  N
  N7       1.0000 0.53590  0.24490  0.38610  Biso   1.000  N
  N8       1.0000 0.67190  0.53970  0.09260  Biso   1.000  N
  N9       1.0000 0.71570  0.78070  0.59410  Biso   1.000  N
  N10      1.0000 0.73580  0.66510  0.69870  Biso   1.000  N
  N11      1.0000 0.15980  0.76500  0.82460  Biso   1.000  N
  N12      1.0000 0.37920  0.89480  0.14180  Biso   1.000  N
  N13      1.0000 0.35150  0.02130  0.05030  Biso   1.000  N
  N14      1.0000 0.43720  0.05950  0.24550  Biso   1.000  N
  N15      1.0000 0.46410  0.75510  0.61390  Biso   1.000  N
  N16      1.0000 0.32810  0.46030  0.90740  Biso   1.000  N
