data_image0
_cell_length_a       18.1997
_cell_length_b       18.1997
_cell_length_c       20.0204
_cell_angle_alpha    90
_cell_angle_beta     90
_cell_angle_gamma    120

_symmetry_space_group_name_H-M    "P 1"
_symmetry_int_tables_number       1

loop_
  _symmetry_equiv_pos_as_xyz
  'x, y, z'

loop_
  _atom_site_label
  _atom_site_occupancy
  _atom_site_fract_x
  _atom_site_fract_y
  _atom_site_fract_z
  _atom_site_thermal_displace_type
  _atom_site_B_iso_or_equiv
  _atom_site_type_symbol
  O1       1.0000 0.07260  0.11190  0.19530  Biso   1.000  O
  O2       1.0000 0.31380  0.32050  0.07260  Biso   1.000  O
  O3       1.0000 0.41900  0.43060  0.11940  Biso   1.000  O
  O4       1.0000 0.54840  0.44900  0.00607  Biso   1.000  O
  O5       1.0000 0.45710  0.31400  0.00700  Biso   1.000  O
  O6       1.0000 0.93480  0.89610  0.07930  Biso   1.000  O
  N1       1.0000 0.85400  0.74970  0.06970  Biso   1.000  N
  C1       1.0000 0.31040  0.32860  0.18910  Biso   1.000  C
  C2       1.0000 0.80630  0.66880  0.10190  Biso   1.000  C
  H1       1.0000 0.79780  0.67710  0.14800  Biso   1.000  H
  H2       1.0000 0.83700  0.63860  0.09910  Biso   1.000  H
  H3       1.0000 0.75230  0.63650  0.08030  Biso   1.000  H
  C3       1.0000 0.35200  0.36360  0.12450  Biso   1.000  C
  C4       1.0000 0.87430  0.75120  0.99950  Biso   1.000  C
  H4       1.0000 0.84380  0.69460  0.98180  Biso   1.000  H
  H5       1.0000 0.93410  0.77290  0.99460  Biso   1.000  H
  H6       1.0000 0.85830  0.78680  0.97570  Biso   1.000  H
  C5       1.0000 0.23200  0.25800  0.19130  Biso   1.000  C
  H7       1.0000 0.20540  0.23370  0.15110  Biso   1.000  H
  C6       1.0000 0.58150  0.26780  0.01070  Biso   1.000  C
  C7       1.0000 0.89090  0.82430  0.10580  Biso   1.000  C
  H8       1.0000 0.88290  0.82140  0.15180  Biso   1.000  H
  C8       1.0000 0.60360  0.35420  0.01160  Biso   1.000  C
  C9       1.0000 0.53110  0.37400  0.00800  Biso   1.000  C
  O7       1.0000 0.88810  0.96070  0.19530  Biso   1.000  O
  O8       1.0000 0.67950  0.99330  0.07260  Biso   1.000  O
  O9       1.0000 0.56940  0.98840  0.11940  Biso   1.000  O
  O10      1.0000 0.55100  0.09940  0.00607  Biso   1.000  O
  O11      1.0000 0.68600  0.14310  0.00700  Biso   1.000  O
  O12      1.0000 0.10390  0.03870  0.07930  Biso   1.000  O
  N2       1.0000 0.25030  0.10430  0.06970  Biso   1.000  N
  C10      1.0000 0.67140  0.98180  0.18910  Biso   1.000  C
  C11      1.0000 0.33120  0.13750  0.10190  Biso   1.000  C
  H9       1.0000 0.32290  0.12070  0.14800  Biso   1.000  H
  H10      1.0000 0.36140  0.19840  0.09910  Biso   1.000  H
  H11      1.0000 0.36350  0.11580  0.08030  Biso   1.000  H
  C12      1.0000 0.63640  0.98840  0.12450  Biso   1.000  C
  C13      1.0000 0.24880  0.12310  0.99950  Biso   1.000  C
  H12      1.0000 0.30540  0.14920  0.98180  Biso   1.000  H
  H13      1.0000 0.22710  0.16120  0.99460  Biso   1.000  H
  H14      1.0000 0.21320  0.07150  0.97570  Biso   1.000  H
  C14      1.0000 0.74200  0.97400  0.19130  Biso   1.000  C
  H15      1.0000 0.76630  0.97170  0.15110  Biso   1.000  H
  C15      1.0000 0.73220  0.31370  0.01070  Biso   1.000  C
  C16      1.0000 0.17570  0.06660  0.10580  Biso   1.000  C
  H16      1.0000 0.17860  0.06150  0.15180  Biso   1.000  H
  C17      1.0000 0.64580  0.24940  0.01160  Biso   1.000  C
  C18      1.0000 0.62600  0.15710  0.00800  Biso   1.000  C
  O13      1.0000 0.03930  0.92740  0.19530  Biso   1.000  O
  O14      1.0000 0.00670  0.68620  0.07260  Biso   1.000  O
  O15      1.0000 0.01160  0.58100  0.11940  Biso   1.000  O
  O16      1.0000 0.90060  0.45160  0.00607  Biso   1.000  O
  O17      1.0000 0.85690  0.54290  0.00700  Biso   1.000  O
  O18      1.0000 0.96130  0.06520  0.07930  Biso   1.000  O
  N3       1.0000 0.89570  0.14600  0.06970  Biso   1.000  N
  C19      1.0000 0.01820  0.68960  0.18910  Biso   1.000  C
  C20      1.0000 0.86250  0.19370  0.10190  Biso   1.000  C
  H17      1.0000 0.87930  0.20220  0.14800  Biso   1.000  H
  H18      1.0000 0.80160  0.16300  0.09910  Biso   1.000  H
  H19      1.0000 0.88420  0.24770  0.08030  Biso   1.000  H
  C21      1.0000 0.01160  0.64800  0.12450  Biso   1.000  C
  C22      1.0000 0.87690  0.12570  0.99950  Biso   1.000  C
  H20      1.0000 0.85080  0.15620  0.98180  Biso   1.000  H
  H21      1.0000 0.83880  0.06590  0.99460  Biso   1.000  H
  H22      1.0000 0.92850  0.14170  0.97570  Biso   1.000  H
  C23      1.0000 0.02600  0.76800  0.19130  Biso   1.000  C
  H23      1.0000 0.02830  0.79460  0.15110  Biso   1.000  H
  C24      1.0000 0.68630  0.41850  0.01070  Biso   1.000  C
  C25      1.0000 0.93340  0.10910  0.10580  Biso   1.000  C
  H24      1.0000 0.93850  0.11710  0.15180  Biso   1.000  H
  C26      1.0000 0.75060  0.39640  0.01160  Biso   1.000  C
  C27      1.0000 0.84290  0.46890  0.00800  Biso   1.000  C
  O19      1.0000 0.07260  0.11190  0.30470  Biso   1.000  O
  O20      1.0000 0.31380  0.32050  0.42740  Biso   1.000  O
  O21      1.0000 0.41900  0.43060  0.38060  Biso   1.000  O
  O22      1.0000 0.54840  0.44900  0.49393  Biso   1.000  O
  O23      1.0000 0.45710  0.31400  0.49300  Biso   1.000  O
  O24      1.0000 0.93480  0.89610  0.42070  Biso   1.000  O
  N4       1.0000 0.85400  0.74970  0.43030  Biso   1.000  N
  C28      1.0000 0.31040  0.32860  0.31090  Biso   1.000  C
  C29      1.0000 0.80630  0.66880  0.39810  Biso   1.000  C
  H25      1.0000 0.79780  0.67710  0.35200  Biso   1.000  H
  H26      1.0000 0.83700  0.63860  0.40090  Biso   1.000  H
  H27      1.0000 0.75230  0.63650  0.41970  Biso   1.000  H
  C30      1.0000 0.35200  0.36360  0.37550  Biso   1.000  C
  C31      1.0000 0.87430  0.75120  0.50050  Biso   1.000  C
  H28      1.0000 0.84380  0.69460  0.51820  Biso   1.000  H
  H29      1.0000 0.93410  0.77290  0.50540  Biso   1.000  H
  H30      1.0000 0.85830  0.78680  0.52430  Biso   1.000  H
  C32      1.0000 0.23200  0.25800  0.30870  Biso   1.000  C
  H31      1.0000 0.20540  0.23370  0.34890  Biso   1.000  H
  C33      1.0000 0.58150  0.26780  0.48930  Biso   1.000  C
  C34      1.0000 0.89090  0.82430  0.39420  Biso   1.000  C
  H32      1.0000 0.88290  0.82140  0.34820  Biso   1.000  H
  C35      1.0000 0.60360  0.35420  0.48840  Biso   1.000  C
  C36      1.0000 0.53110  0.37400  0.49200  Biso   1.000  C
  O25      1.0000 0.88810  0.96070  0.30470  Biso   1.000  O
  O26      1.0000 0.67950  0.99330  0.42740  Biso   1.000  O
  O27      1.0000 0.56940  0.98840  0.38060  Biso   1.000  O
  O28      1.0000 0.55100  0.09940  0.49393  Biso   1.000  O
  O29      1.0000 0.68600  0.14310  0.49300  Biso   1.000  O
  O30      1.0000 0.10390  0.03870  0.42070  Biso   1.000  O
  N5       1.0000 0.25030  0.10430  0.43030  Biso   1.000  N
  C37      1.0000 0.67140  0.98180  0.31090  Biso   1.000  C
  C38      1.0000 0.33120  0.13750  0.39810  Biso   1.000  C
  H33      1.0000 0.32290  0.12070  0.35200  Biso   1.000  H
  H34      1.0000 0.36140  0.19840  0.40090  Biso   1.000  H
  H35      1.0000 0.36350  0.11580  0.41970  Biso   1.000  H
  C39      1.0000 0.63640  0.98840  0.37550  Biso   1.000  C
  C40      1.0000 0.24880  0.12310  0.50050  Biso   1.000  C
  H36      1.0000 0.30540  0.14920  0.51820  Biso   1.000  H
  H37      1.0000 0.22710  0.16120  0.50540  Biso   1.000  H
  H38      1.0000 0.21320  0.07150  0.52430  Biso   1.000  H
  C41      1.0000 0.74200  0.97400  0.30870  Biso   1.000  C
  H39      1.0000 0.76630  0.97170  0.34890  Biso   1.000  H
  C42      1.0000 0.73220  0.31370  0.48930  Biso   1.000  C
  C43      1.0000 0.17570  0.06660  0.39420  Biso   1.000  C
  H40      1.0000 0.17860  0.06150  0.34820  Biso   1.000  H
  C44      1.0000 0.64580  0.24940  0.48840  Biso   1.000  C
  C45      1.0000 0.62600  0.15710  0.49200  Biso   1.000  C
  O31      1.0000 0.03930  0.92740  0.30470  Biso   1.000  O
  O32      1.0000 0.00670  0.68620  0.42740  Biso   1.000  O
  O33      1.0000 0.01160  0.58100  0.38060  Biso   1.000  O
  O34      1.0000 0.90060  0.45160  0.49393  Biso   1.000  O
  O35      1.0000 0.85690  0.54290  0.49300  Biso   1.000  O
  O36      1.0000 0.96130  0.06520  0.42070  Biso   1.000  O
  N6       1.0000 0.89570  0.14600  0.43030  Biso   1.000  N
  C46      1.0000 0.01820  0.68960  0.31090  Biso   1.000  C
  C47      1.0000 0.86250  0.19370  0.39810  Biso   1.000  C
  H41      1.0000 0.87930  0.20220  0.35200  Biso   1.000  H
  H42      1.0000 0.80160  0.16300  0.40090  Biso   1.000  H
  H43      1.0000 0.88420  0.24770  0.41970  Biso   1.000  H
  C48      1.0000 0.01160  0.64800  0.37550  Biso   1.000  C
  C49      1.0000 0.87690  0.12570  0.50050  Biso   1.000  C
  H44      1.0000 0.85080  0.15620  0.51820  Biso   1.000  H
  H45      1.0000 0.83880  0.06590  0.50540  Biso   1.000  H
  H46      1.0000 0.92850  0.14170  0.52430  Biso   1.000  H
  C50      1.0000 0.02600  0.76800  0.30870  Biso   1.000  C
  H47      1.0000 0.02830  0.79460  0.34890  Biso   1.000  H
  C51      1.0000 0.68630  0.41850  0.48930  Biso   1.000  C
  C52      1.0000 0.93340  0.10910  0.39420  Biso   1.000  C
  H48      1.0000 0.93850  0.11710  0.34820  Biso   1.000  H
  C53      1.0000 0.75060  0.39640  0.48840  Biso   1.000  C
  C54      1.0000 0.84290  0.46890  0.49200  Biso   1.000  C
  O37      1.0000 0.11190  0.07260  0.80470  Biso   1.000  O
  O38      1.0000 0.32050  0.31380  0.92740  Biso   1.000  O
  O39      1.0000 0.43060  0.41900  0.88060  Biso   1.000  O
  O40      1.0000 0.44900  0.54840  0.99393  Biso   1.000  O
  O41      1.0000 0.31400  0.45710  0.99300  Biso   1.000  O
  O42      1.0000 0.89610  0.93480  0.92070  Biso   1.000  O
  N7       1.0000 0.74970  0.85400  0.93030  Biso   1.000  N
  C55      1.0000 0.32860  0.31040  0.81090  Biso   1.000  C
  C56      1.0000 0.66880  0.80630  0.89810  Biso   1.000  C
  H49      1.0000 0.67710  0.79780  0.85200  Biso   1.000  H
  H50      1.0000 0.63860  0.83700  0.90090  Biso   1.000  H
  H51      1.0000 0.63650  0.75230  0.91970  Biso   1.000  H
  C57      1.0000 0.36360  0.35200  0.87550  Biso   1.000  C
  C58      1.0000 0.75120  0.87430  0.00050  Biso   1.000  C
  H52      1.0000 0.69460  0.84380  0.01820  Biso   1.000  H
  H53      1.0000 0.77290  0.93410  0.00540  Biso   1.000  H
  H54      1.0000 0.78680  0.85830  0.02430  Biso   1.000  H
  C59      1.0000 0.25800  0.23200  0.80870  Biso   1.000  C
  H55      1.0000 0.23370  0.20540  0.84890  Biso   1.000  H
  C60      1.0000 0.26780  0.58150  0.98930  Biso   1.000  C
  C61      1.0000 0.82430  0.89090  0.89420  Biso   1.000  C
  H56      1.0000 0.82140  0.88290  0.84820  Biso   1.000  H
  C62      1.0000 0.35420  0.60360  0.98840  Biso   1.000  C
  C63      1.0000 0.37400  0.53110  0.99200  Biso   1.000  C
  O43      1.0000 0.96070  0.88810  0.80470  Biso   1.000  O
  O44      1.0000 0.99330  0.67950  0.92740  Biso   1.000  O
  O45      1.0000 0.98840  0.56940  0.88060  Biso   1.000  O
  O46      1.0000 0.09940  0.55100  0.99393  Biso   1.000  O
  O47      1.0000 0.14310  0.68600  0.99300  Biso   1.000  O
  O48      1.0000 0.03870  0.10390  0.92070  Biso   1.000  O
  N8       1.0000 0.10430  0.25030  0.93030  Biso   1.000  N
  C64      1.0000 0.98180  0.67140  0.81090  Biso   1.000  C
  C65      1.0000 0.13750  0.33120  0.89810  Biso   1.000  C
  H57      1.0000 0.12070  0.32290  0.85200  Biso   1.000  H
  H58      1.0000 0.19840  0.36140  0.90090  Biso   1.000  H
  H59      1.0000 0.11580  0.36350  0.91970  Biso   1.000  H
  C66      1.0000 0.98840  0.63640  0.87550  Biso   1.000  C
  C67      1.0000 0.12310  0.24880  0.00050  Biso   1.000  C
  H60      1.0000 0.14920  0.30540  0.01820  Biso   1.000  H
  H61      1.0000 0.16120  0.22710  0.00540  Biso   1.000  H
  H62      1.0000 0.07150  0.21320  0.02430  Biso   1.000  H
  C68      1.0000 0.97400  0.74200  0.80870  Biso   1.000  C
  H63      1.0000 0.97170  0.76630  0.84890  Biso   1.000  H
  C69      1.0000 0.31370  0.73220  0.98930  Biso   1.000  C
  C70      1.0000 0.06660  0.17570  0.89420  Biso   1.000  C
  H64      1.0000 0.06150  0.17860  0.84820  Biso   1.000  H
  C71      1.0000 0.24940  0.64580  0.98840  Biso   1.000  C
  C72      1.0000 0.15710  0.62600  0.99200  Biso   1.000  C
  O49      1.0000 0.92740  0.03930  0.80470  Biso   1.000  O
  O50      1.0000 0.68620  0.00670  0.92740  Biso   1.000  O
  O51      1.0000 0.58100  0.01160  0.88060  Biso   1.000  O
  O52      1.0000 0.45160  0.90060  0.99393  Biso   1.000  O
  O53      1.0000 0.54290  0.85690  0.99300  Biso   1.000  O
  O54      1.0000 0.06520  0.96130  0.92070  Biso   1.000  O
  N9       1.0000 0.14600  0.89570  0.93030  Biso   1.000  N
  C73      1.0000 0.68960  0.01820  0.81090  Biso   1.000  C
  C74      1.0000 0.19370  0.86250  0.89810  Biso   1.000  C
  H65      1.0000 0.20220  0.87930  0.85200  Biso   1.000  H
  H66      1.0000 0.16300  0.80160  0.90090  Biso   1.000  H
  H67      1.0000 0.24770  0.88420  0.91970  Biso   1.000  H
  C75      1.0000 0.64800  0.01160  0.87550  Biso   1.000  C
  C76      1.0000 0.12570  0.87690  0.00050  Biso   1.000  C
  H68      1.0000 0.15620  0.85080  0.01820  Biso   1.000  H
  H69      1.0000 0.06590  0.83880  0.00540  Biso   1.000  H
  H70      1.0000 0.14170  0.92850  0.02430  Biso   1.000  H
  C77      1.0000 0.76800  0.02600  0.80870  Biso   1.000  C
  H71      1.0000 0.79460  0.02830  0.84890  Biso   1.000  H
  C78      1.0000 0.41850  0.68630  0.98930  Biso   1.000  C
  C79      1.0000 0.10910  0.93340  0.89420  Biso   1.000  C
  H72      1.0000 0.11710  0.93850  0.84820  Biso   1.000  H
  C80      1.0000 0.39640  0.75060  0.98840  Biso   1.000  C
  C81      1.0000 0.46890  0.84290  0.99200  Biso   1.000  C
  O55      1.0000 0.11190  0.07260  0.69530  Biso   1.000  O
  O56      1.0000 0.32050  0.31380  0.57260  Biso   1.000  O
  O57      1.0000 0.43060  0.41900  0.61940  Biso   1.000  O
  O58      1.0000 0.44900  0.54840  0.50607  Biso   1.000  O
  O59      1.0000 0.31400  0.45710  0.50700  Biso   1.000  O
  O60      1.0000 0.89610  0.93480  0.57930  Biso   1.000  O
  N10      1.0000 0.74970  0.85400  0.56970  Biso   1.000  N
  C82      1.0000 0.32860  0.31040  0.68910  Biso   1.000  C
  C83      1.0000 0.66880  0.80630  0.60190  Biso   1.000  C
  H73      1.0000 0.67710  0.79780  0.64800  Biso   1.000  H
  H74      1.0000 0.63860  0.83700  0.59910  Biso   1.000  H
  H75      1.0000 0.63650  0.75230  0.58030  Biso   1.000  H
  C84      1.0000 0.36360  0.35200  0.62450  Biso   1.000  C
  C85      1.0000 0.75120  0.87430  0.49950  Biso   1.000  C
  H76      1.0000 0.69460  0.84380  0.48180  Biso   1.000  H
  H77      1.0000 0.77290  0.93410  0.49460  Biso   1.000  H
  H78      1.0000 0.78680  0.85830  0.47570  Biso   1.000  H
  C86      1.0000 0.25800  0.23200  0.69130  Biso   1.000  C
  H79      1.0000 0.23370  0.20540  0.65110  Biso   1.000  H
  C87      1.0000 0.26780  0.58150  0.51070  Biso   1.000  C
  C88      1.0000 0.82430  0.89090  0.60580  Biso   1.000  C
  H80      1.0000 0.82140  0.88290  0.65180  Biso   1.000  H
  C89      1.0000 0.35420  0.60360  0.51160  Biso   1.000  C
  C90      1.0000 0.37400  0.53110  0.50800  Biso   1.000  C
  O61      1.0000 0.96070  0.88810  0.69530  Biso   1.000  O
  O62      1.0000 0.99330  0.67950  0.57260  Biso   1.000  O
  O63      1.0000 0.98840  0.56940  0.61940  Biso   1.000  O
  O64      1.0000 0.09940  0.55100  0.50607  Biso   1.000  O
  O65      1.0000 0.14310  0.68600  0.50700  Biso   1.000  O
  O66      1.0000 0.03870  0.10390  0.57930  Biso   1.000  O
  N11      1.0000 0.10430  0.25030  0.56970  Biso   1.000  N
  C91      1.0000 0.98180  0.67140  0.68910  Biso   1.000  C
  C92      1.0000 0.13750  0.33120  0.60190  Biso   1.000  C
  H81      1.0000 0.12070  0.32290  0.64800  Biso   1.000  H
  H82      1.0000 0.19840  0.36140  0.59910  Biso   1.000  H
  H83      1.0000 0.11580  0.36350  0.58030  Biso   1.000  H
  C93      1.0000 0.98840  0.63640  0.62450  Biso   1.000  C
  C94      1.0000 0.12310  0.24880  0.49950  Biso   1.000  C
  H84      1.0000 0.14920  0.30540  0.48180  Biso   1.000  H
  H85      1.0000 0.16120  0.22710  0.49460  Biso   1.000  H
  H86      1.0000 0.07150  0.21320  0.47570  Biso   1.000  H
  C95      1.0000 0.97400  0.74200  0.69130  Biso   1.000  C
  H87      1.0000 0.97170  0.76630  0.65110  Biso   1.000  H
  C96      1.0000 0.31370  0.73220  0.51070  Biso   1.000  C
  C97      1.0000 0.06660  0.17570  0.60580  Biso   1.000  C
  H88      1.0000 0.06150  0.17860  0.65180  Biso   1.000  H
  C98      1.0000 0.24940  0.64580  0.51160  Biso   1.000  C
  C99      1.0000 0.15710  0.62600  0.50800  Biso   1.000  C
  O67      1.0000 0.92740  0.03930  0.69530  Biso   1.000  O
  O68      1.0000 0.68620  0.00670  0.57260  Biso   1.000  O
  O69      1.0000 0.58100  0.01160  0.61940  Biso   1.000  O
  O70      1.0000 0.45160  0.90060  0.50607  Biso   1.000  O
  O71      1.0000 0.54290  0.85690  0.50700  Biso   1.000  O
  O72      1.0000 0.06520  0.96130  0.57930  Biso   1.000  O
  N12      1.0000 0.14600  0.89570  0.56970  Biso   1.000  N
  C100     1.0000 0.68960  0.01820  0.68910  Biso   1.000  C
  C101     1.0000 0.19370  0.86250  0.60190  Biso   1.000  C
  H89      1.0000 0.20220  0.87930  0.64800  Biso   1.000  H
  H90      1.0000 0.16300  0.80160  0.59910  Biso   1.000  H
  H91      1.0000 0.24770  0.88420  0.58030  Biso   1.000  H
  C102     1.0000 0.64800  0.01160  0.62450  Biso   1.000  C
  C103     1.0000 0.12570  0.87690  0.49950  Biso   1.000  C
  H92      1.0000 0.15620  0.85080  0.48180  Biso   1.000  H
  H93      1.0000 0.06590  0.83880  0.49460  Biso   1.000  H
  H94      1.0000 0.14170  0.92850  0.47570  Biso   1.000  H
  C104     1.0000 0.76800  0.02600  0.69130  Biso   1.000  C
  H95      1.0000 0.79460  0.02830  0.65110  Biso   1.000  H
  C105     1.0000 0.41850  0.68630  0.51070  Biso   1.000  C
  C106     1.0000 0.10910  0.93340  0.60580  Biso   1.000  C
  H96      1.0000 0.11710  0.93850  0.65180  Biso   1.000  H
  C107     1.0000 0.39640  0.75060  0.51160  Biso   1.000  C
  C108     1.0000 0.46890  0.84290  0.50800  Biso   1.000  C
  In1      1.0000 0.40891  0.40891  0.00000  Biso   1.000  In
  In2      1.0000 0.59109  0.00000  0.00000  Biso   1.000  In
  In3      1.0000 0.00000  0.59109  0.00000  Biso   1.000  In
  In4      1.0000 0.40891  0.40891  0.50000  Biso   1.000  In
  In5      1.0000 0.59109  0.00000  0.50000  Biso   1.000  In
  In6      1.0000 0.00000  0.59109  0.50000  Biso   1.000  In
  Co1      1.0000 0.00000  0.00000  0.14704  Biso   1.000  Co
  Co2      1.0000 0.00000  0.00000  0.35296  Biso   1.000  Co
  Co3      1.0000 0.00000  0.00000  0.85296  Biso   1.000  Co
  Co4      1.0000 0.00000  0.00000  0.64704  Biso   1.000  Co
  C109     1.0000 0.10310  0.14060  0.25000  Biso   1.000  C
  C110     1.0000 0.18980  0.22040  0.25000  Biso   1.000  C
  C111     1.0000 0.35040  0.36350  0.25000  Biso   1.000  C
  H97      1.0000 0.40450  0.41080  0.25000  Biso   1.000  H
  C112     1.0000 0.85940  0.96250  0.25000  Biso   1.000  C
  C113     1.0000 0.77960  0.96940  0.25000  Biso   1.000  C
  C114     1.0000 0.63650  0.98690  0.25000  Biso   1.000  C
  H98      1.0000 0.58920  0.99370  0.25000  Biso   1.000  H
  C115     1.0000 0.03750  0.89690  0.25000  Biso   1.000  C
  C116     1.0000 0.03060  0.81020  0.25000  Biso   1.000  C
  C117     1.0000 0.01310  0.64960  0.25000  Biso   1.000  C
  H99      1.0000 0.00630  0.59550  0.25000  Biso   1.000  H
  C118     1.0000 0.14060  0.10310  0.75000  Biso   1.000  C
  C119     1.0000 0.22040  0.18980  0.75000  Biso   1.000  C
  C120     1.0000 0.36350  0.35040  0.75000  Biso   1.000  C
  H100     1.0000 0.41080  0.40450  0.75000  Biso   1.000  H
  C121     1.0000 0.96250  0.85940  0.75000  Biso   1.000  C
  C122     1.0000 0.96940  0.77960  0.75000  Biso   1.000  C
  C123     1.0000 0.98690  0.63650  0.75000  Biso   1.000  C
  H101     1.0000 0.99370  0.58920  0.75000  Biso   1.000  H
  C124     1.0000 0.89690  0.03750  0.75000  Biso   1.000  C
  C125     1.0000 0.81020  0.03060  0.75000  Biso   1.000  C
  C126     1.0000 0.64960  0.01310  0.75000  Biso   1.000  C
  H102     1.0000 0.59550  0.00630  0.75000  Biso   1.000  H
