data_image0
_cell_length_a       15.9288
_cell_length_b       15.9288
_cell_length_c       21.3663
_cell_angle_alpha    90
_cell_angle_beta     90
_cell_angle_gamma    120

_symmetry_space_group_name_H-M    P 1
_symmetry_int_tables_number       1

loop_
  _symmetry_equiv_pos_as_xyz
  'x, y, z'

loop_
  _atom_site_label
  _atom_site_occupancy
  _atom_site_fract_x
  _atom_site_fract_y
  _atom_site_fract_z
  _atom_site_thermal_displace_type
  _atom_site_B_iso_or_equiv
  _atom_site_type_symbol
  Co1      1.0000 0.15344  0.70685  0.99184  Biso   1.000  Co
  Co2      1.0000 0.03071  0.51376  0.88588  Biso   1.000  Co
  Co3      1.0000 0.55341  0.84656  0.65851  Biso   1.000  Co
  Co4      1.0000 0.48305  0.96929  0.55255  Biso   1.000  Co
  Co5      1.0000 0.29315  0.44659  0.32517  Biso   1.000  Co
  Co6      1.0000 0.48624  0.51695  0.21921  Biso   1.000  Co
  Co7      1.0000 0.84656  0.29315  0.49184  Biso   1.000  Co
  Co8      1.0000 0.96929  0.48624  0.38588  Biso   1.000  Co
  Co9      1.0000 0.44659  0.15344  0.15851  Biso   1.000  Co
  Co10     1.0000 0.51695  0.03071  0.05255  Biso   1.000  Co
  Co11     1.0000 0.70685  0.55341  0.82517  Biso   1.000  Co
  Co12     1.0000 0.51376  0.48305  0.71921  Biso   1.000  Co
  H1       1.0000 0.19480  0.66520  0.52470  Biso   1.000  H
  H2       1.0000 0.01320  0.45950  0.64390  Biso   1.000  H
  H3       1.0000 0.26890  0.66770  0.70450  Biso   1.000  H
  H4       1.0000 0.06790  0.45260  0.75060  Biso   1.000  H
  H5       1.0000 0.16810  0.53710  0.77350  Biso   1.000  H
  H6       1.0000 0.10380  0.69870  0.75700  Biso   1.000  H
  H7       1.0000 0.18540  0.68840  0.79080  Biso   1.000  H
  H8       1.0000 0.93560  0.47130  0.74230  Biso   1.000  H
  H9       1.0000 0.97260  0.58020  0.72540  Biso   1.000  H
  H10      1.0000 0.94720  0.65350  0.98890  Biso   1.000  H
  H11      1.0000 0.84570  0.71560  0.99570  Biso   1.000  H
  H12      1.0000 0.07640  0.97440  0.03350  Biso   1.000  H
  H13      1.0000 0.17090  0.90750  0.02430  Biso   1.000  H
  H14      1.0000 0.91720  0.96280  0.03040  Biso   1.000  H
  H15      1.0000 0.76350  0.78730  0.00200  Biso   1.000  H
  H16      1.0000 0.60260  0.77240  0.01140  Biso   1.000  H
  H17      1.0000 0.50720  0.83890  0.02520  Biso   1.000  H
  H18      1.0000 0.73290  0.09850  0.02520  Biso   1.000  H
  H19      1.0000 0.83420  0.03950  0.01320  Biso   1.000  H
  H20      1.0000 0.28040  0.79060  0.07620  Biso   1.000  H
  H21      1.0000 0.21440  0.71200  0.10970  Biso   1.000  H
  H22      1.0000 0.47040  0.80520  0.19137  Biso   1.000  H
  H23      1.0000 0.44630  0.98680  0.31057  Biso   1.000  H
  H24      1.0000 0.39880  0.73110  0.37117  Biso   1.000  H
  H25      1.0000 0.38470  0.93210  0.41727  Biso   1.000  H
  H26      1.0000 0.36900  0.83190  0.44017  Biso   1.000  H
  H27      1.0000 0.59490  0.89620  0.42367  Biso   1.000  H
  H28      1.0000 0.50300  0.81460  0.45747  Biso   1.000  H
  H29      1.0000 0.53570  0.06440  0.40897  Biso   1.000  H
  H30      1.0000 0.60760  0.02740  0.39207  Biso   1.000  H
  H31      1.0000 0.70630  0.05280  0.65557  Biso   1.000  H
  H32      1.0000 0.86990  0.15430  0.66237  Biso   1.000  H
  H33      1.0000 0.89800  0.92360  0.70017  Biso   1.000  H
  H34      1.0000 0.73660  0.82910  0.69097  Biso   1.000  H
  H35      1.0000 0.04560  0.08280  0.69707  Biso   1.000  H
  H36      1.0000 0.02380  0.23650  0.66867  Biso   1.000  H
  H37      1.0000 0.16980  0.39740  0.67807  Biso   1.000  H
  H38      1.0000 0.33170  0.49280  0.69187  Biso   1.000  H
  H39      1.0000 0.36560  0.26710  0.69187  Biso   1.000  H
  H40      1.0000 0.20530  0.16580  0.67987  Biso   1.000  H
  H41      1.0000 0.51020  0.71960  0.74287  Biso   1.000  H
  H42      1.0000 0.49760  0.78560  0.77637  Biso   1.000  H
  H43      1.0000 0.33480  0.52960  0.85803  Biso   1.000  H
  H44      1.0000 0.54050  0.55370  0.97723  Biso   1.000  H
  H45      1.0000 0.33230  0.60120  0.03783  Biso   1.000  H
  H46      1.0000 0.54740  0.61530  0.08393  Biso   1.000  H
  H47      1.0000 0.46290  0.63100  0.10683  Biso   1.000  H
  H48      1.0000 0.30130  0.40510  0.09033  Biso   1.000  H
  H49      1.0000 0.31160  0.49700  0.12413  Biso   1.000  H
  H50      1.0000 0.52870  0.46430  0.07563  Biso   1.000  H
  H51      1.0000 0.41980  0.39240  0.05873  Biso   1.000  H
  H52      1.0000 0.34650  0.29370  0.32223  Biso   1.000  H
  H53      1.0000 0.28440  0.13010  0.32903  Biso   1.000  H
  H54      1.0000 0.02560  0.10200  0.36683  Biso   1.000  H
  H55      1.0000 0.09250  0.26340  0.35763  Biso   1.000  H
  H56      1.0000 0.03720  0.95440  0.36373  Biso   1.000  H
  H57      1.0000 0.21270  0.97620  0.33533  Biso   1.000  H
  H58      1.0000 0.22760  0.83020  0.34473  Biso   1.000  H
  H59      1.0000 0.16110  0.66830  0.35853  Biso   1.000  H
  H60      1.0000 0.90150  0.63440  0.35853  Biso   1.000  H
  H61      1.0000 0.96050  0.79470  0.34653  Biso   1.000  H
  H62      1.0000 0.20940  0.48980  0.40953  Biso   1.000  H
  H63      1.0000 0.28800  0.50240  0.44303  Biso   1.000  H
  H64      1.0000 0.80520  0.33480  0.02470  Biso   1.000  H
  H65      1.0000 0.98680  0.54050  0.14390  Biso   1.000  H
  H66      1.0000 0.73110  0.33230  0.20450  Biso   1.000  H
  H67      1.0000 0.93210  0.54740  0.25060  Biso   1.000  H
  H68      1.0000 0.83190  0.46290  0.27350  Biso   1.000  H
  H69      1.0000 0.89620  0.30130  0.25700  Biso   1.000  H
  H70      1.0000 0.81460  0.31160  0.29080  Biso   1.000  H
  H71      1.0000 0.06440  0.52870  0.24230  Biso   1.000  H
  H72      1.0000 0.02740  0.41980  0.22540  Biso   1.000  H
  H73      1.0000 0.05280  0.34650  0.48890  Biso   1.000  H
  H74      1.0000 0.15430  0.28440  0.49570  Biso   1.000  H
  H75      1.0000 0.92360  0.02560  0.53350  Biso   1.000  H
  H76      1.0000 0.82910  0.09250  0.52430  Biso   1.000  H
  H77      1.0000 0.08280  0.03720  0.53040  Biso   1.000  H
  H78      1.0000 0.23650  0.21270  0.50200  Biso   1.000  H
  H79      1.0000 0.39740  0.22760  0.51140  Biso   1.000  H
  H80      1.0000 0.49280  0.16110  0.52520  Biso   1.000  H
  H81      1.0000 0.26710  0.90150  0.52520  Biso   1.000  H
  H82      1.0000 0.16580  0.96050  0.51320  Biso   1.000  H
  H83      1.0000 0.71960  0.20940  0.57620  Biso   1.000  H
  H84      1.0000 0.78560  0.28800  0.60970  Biso   1.000  H
  H85      1.0000 0.52960  0.19480  0.69137  Biso   1.000  H
  H86      1.0000 0.55370  0.01320  0.81057  Biso   1.000  H
  H87      1.0000 0.60120  0.26890  0.87117  Biso   1.000  H
  H88      1.0000 0.61530  0.06790  0.91727  Biso   1.000  H
  H89      1.0000 0.63100  0.16810  0.94017  Biso   1.000  H
  H90      1.0000 0.40510  0.10380  0.92367  Biso   1.000  H
  H91      1.0000 0.49700  0.18540  0.95747  Biso   1.000  H
  H92      1.0000 0.46430  0.93560  0.90897  Biso   1.000  H
  H93      1.0000 0.39240  0.97260  0.89207  Biso   1.000  H
  H94      1.0000 0.29370  0.94720  0.15557  Biso   1.000  H
  H95      1.0000 0.13010  0.84570  0.16237  Biso   1.000  H
  H96      1.0000 0.10200  0.07640  0.20017  Biso   1.000  H
  H97      1.0000 0.26340  0.17090  0.19097  Biso   1.000  H
  H98      1.0000 0.95440  0.91720  0.19707  Biso   1.000  H
  H99      1.0000 0.97620  0.76350  0.16867  Biso   1.000  H
  H100     1.0000 0.83020  0.60260  0.17807  Biso   1.000  H
  H101     1.0000 0.66830  0.50720  0.19187  Biso   1.000  H
  H102     1.0000 0.63440  0.73290  0.19187  Biso   1.000  H
  H103     1.0000 0.79470  0.83420  0.17987  Biso   1.000  H
  H104     1.0000 0.48980  0.28040  0.24287  Biso   1.000  H
  H105     1.0000 0.50240  0.21440  0.27637  Biso   1.000  H
  H106     1.0000 0.66520  0.47040  0.35803  Biso   1.000  H
  H107     1.0000 0.45950  0.44630  0.47723  Biso   1.000  H
  H108     1.0000 0.66770  0.39880  0.53783  Biso   1.000  H
  H109     1.0000 0.45260  0.38470  0.58393  Biso   1.000  H
  H110     1.0000 0.53710  0.36900  0.60683  Biso   1.000  H
  H111     1.0000 0.69870  0.59490  0.59033  Biso   1.000  H
  H112     1.0000 0.68840  0.50300  0.62413  Biso   1.000  H
  H113     1.0000 0.47130  0.53570  0.57563  Biso   1.000  H
  H114     1.0000 0.58020  0.60760  0.55873  Biso   1.000  H
  H115     1.0000 0.65350  0.70630  0.82223  Biso   1.000  H
  H116     1.0000 0.71560  0.86990  0.82903  Biso   1.000  H
  H117     1.0000 0.97440  0.89800  0.86683  Biso   1.000  H
  H118     1.0000 0.90750  0.73660  0.85763  Biso   1.000  H
  H119     1.0000 0.96280  0.04560  0.86373  Biso   1.000  H
  H120     1.0000 0.78730  0.02380  0.83533  Biso   1.000  H
  H121     1.0000 0.77240  0.16980  0.84473  Biso   1.000  H
  H122     1.0000 0.83890  0.33170  0.85853  Biso   1.000  H
  H123     1.0000 0.09850  0.36560  0.85853  Biso   1.000  H
  H124     1.0000 0.03950  0.20530  0.84653  Biso   1.000  H
  H125     1.0000 0.79060  0.51020  0.90953  Biso   1.000  H
  H126     1.0000 0.71200  0.49760  0.94303  Biso   1.000  H
  C1       1.0000 0.24710  0.67980  0.61230  Biso   1.000  C
  C2       1.0000 0.18080  0.63750  0.56430  Biso   1.000  C
  C3       1.0000 0.09270  0.55310  0.57560  Biso   1.000  C
  C4       1.0000 0.07180  0.51570  0.63630  Biso   1.000  C
  C5       1.0000 0.13470  0.55910  0.68470  Biso   1.000  C
  C6       1.0000 0.22380  0.63970  0.67230  Biso   1.000  C
  C7       1.0000 0.10890  0.52250  0.75160  Biso   1.000  C
  C8       1.0000 0.11750  0.67020  0.79290  Biso   1.000  C
  C9       1.0000 0.10070  0.71250  0.85230  Biso   1.000  C
  C10      1.0000 0.96320  0.53610  0.75950  Biso   1.000  C
  C11      1.0000 0.89270  0.53860  0.80720  Biso   1.000  C
  C12      1.0000 0.34750  0.76840  0.60380  Biso   1.000  C
  C13      1.0000 0.02020  0.49920  0.52370  Biso   1.000  C
  C14      1.0000 0.97330  0.71910  0.99770  Biso   1.000  C
  C15      1.0000 0.91190  0.75560  0.00220  Biso   1.000  C
  C16      1.0000 0.94970  0.85430  0.01660  Biso   1.000  C
  C17      1.0000 0.04810  0.90870  0.02430  Biso   1.000  C
  C18      1.0000 0.10440  0.86820  0.01870  Biso   1.000  C
  C19      1.0000 0.88720  0.89730  0.02050  Biso   1.000  C
  C20      1.0000 0.79370  0.85290  0.01150  Biso   1.000  C
  C21      1.0000 0.73150  0.89680  0.01490  Biso   1.000  C
  C22      1.0000 0.63110  0.83930  0.01590  Biso   1.000  C
  C23      1.0000 0.57400  0.87980  0.02330  Biso   1.000  C
  C24      1.0000 0.70670  0.03170  0.02350  Biso   1.000  C
  C25      1.0000 0.76790  0.99700  0.01670  Biso   1.000  C
  C26      1.0000 0.43270  0.75290  0.27897  Biso   1.000  C
  C27      1.0000 0.45670  0.81920  0.23097  Biso   1.000  C
  C28      1.0000 0.46040  0.90730  0.24227  Biso   1.000  C
  C29      1.0000 0.44390  0.92820  0.30297  Biso   1.000  C
  C30      1.0000 0.42440  0.86530  0.35137  Biso   1.000  C
  C31      1.0000 0.41590  0.77620  0.33897  Biso   1.000  C
  C32      1.0000 0.41360  0.89110  0.41827  Biso   1.000  C
  C33      1.0000 0.55270  0.88250  0.45957  Biso   1.000  C
  C34      1.0000 0.61180  0.89930  0.51897  Biso   1.000  C
  C35      1.0000 0.57290  0.03680  0.42617  Biso   1.000  C
  C36      1.0000 0.64590  0.10730  0.47387  Biso   1.000  C
  C37      1.0000 0.42090  0.65250  0.27047  Biso   1.000  C
  C38      1.0000 0.47900  0.97980  0.19037  Biso   1.000  C
  C39      1.0000 0.74580  0.02670  0.66437  Biso   1.000  C
  C40      1.0000 0.84370  0.08810  0.66887  Biso   1.000  C
  C41      1.0000 0.90460  0.05030  0.68327  Biso   1.000  C
  C42      1.0000 0.86060  0.95190  0.69097  Biso   1.000  C
  C43      1.0000 0.76380  0.89560  0.68537  Biso   1.000  C
  C44      1.0000 0.01010  0.11280  0.68717  Biso   1.000  C
  C45      1.0000 0.05920  0.20630  0.67817  Biso   1.000  C
  C46      1.0000 0.16530  0.26850  0.68157  Biso   1.000  C
  C47      1.0000 0.20820  0.36890  0.68257  Biso   1.000  C
  C48      1.0000 0.30580  0.42600  0.68997  Biso   1.000  C
  C49      1.0000 0.32500  0.29330  0.69017  Biso   1.000  C
  C50      1.0000 0.22910  0.23210  0.68337  Biso   1.000  C
  C51      1.0000 0.32020  0.56730  0.94563  Biso   1.000  C
  C52      1.0000 0.36250  0.54330  0.89763  Biso   1.000  C
  C53      1.0000 0.44690  0.53960  0.90893  Biso   1.000  C
  C54      1.0000 0.48430  0.55610  0.96963  Biso   1.000  C
  C55      1.0000 0.44090  0.57560  0.01803  Biso   1.000  C
  C56      1.0000 0.36030  0.58410  0.00563  Biso   1.000  C
  C57      1.0000 0.47750  0.58640  0.08493  Biso   1.000  C
  C58      1.0000 0.32980  0.44730  0.12623  Biso   1.000  C
  C59      1.0000 0.28750  0.38820  0.18563  Biso   1.000  C
  C60      1.0000 0.46390  0.42710  0.09283  Biso   1.000  C
  C61      1.0000 0.46140  0.35410  0.14053  Biso   1.000  C
  C62      1.0000 0.23160  0.57910  0.93713  Biso   1.000  C
  C63      1.0000 0.50080  0.52100  0.85703  Biso   1.000  C
  C64      1.0000 0.28090  0.25420  0.33103  Biso   1.000  C
  C65      1.0000 0.24440  0.15630  0.33553  Biso   1.000  C
  C66      1.0000 0.14570  0.09540  0.34993  Biso   1.000  C
  C67      1.0000 0.09130  0.13940  0.35763  Biso   1.000  C
  C68      1.0000 0.13180  0.23620  0.35203  Biso   1.000  C
  C69      1.0000 0.10270  0.98990  0.35383  Biso   1.000  C
  C70      1.0000 0.14710  0.94080  0.34483  Biso   1.000  C
  C71      1.0000 0.10320  0.83470  0.34823  Biso   1.000  C
  C72      1.0000 0.16070  0.79180  0.34923  Biso   1.000  C
  C73      1.0000 0.12020  0.69420  0.35663  Biso   1.000  C
  C74      1.0000 0.96830  0.67500  0.35683  Biso   1.000  C
  C75      1.0000 0.00300  0.77090  0.35003  Biso   1.000  C
  C76      1.0000 0.75290  0.32020  0.11230  Biso   1.000  C
  C77      1.0000 0.81920  0.36250  0.06430  Biso   1.000  C
  C78      1.0000 0.90730  0.44690  0.07560  Biso   1.000  C
  C79      1.0000 0.92820  0.48430  0.13630  Biso   1.000  C
  C80      1.0000 0.86530  0.44090  0.18470  Biso   1.000  C
  C81      1.0000 0.77620  0.36030  0.17230  Biso   1.000  C
  C82      1.0000 0.89110  0.47750  0.25160  Biso   1.000  C
  C83      1.0000 0.88250  0.32980  0.29290  Biso   1.000  C
  C84      1.0000 0.89930  0.28750  0.35230  Biso   1.000  C
  C85      1.0000 0.03680  0.46390  0.25950  Biso   1.000  C
  C86      1.0000 0.10730  0.46140  0.30720  Biso   1.000  C
  C87      1.0000 0.65250  0.23160  0.10380  Biso   1.000  C
  C88      1.0000 0.97980  0.50080  0.02370  Biso   1.000  C
  C89      1.0000 0.02670  0.28090  0.49770  Biso   1.000  C
  C90      1.0000 0.08810  0.24440  0.50220  Biso   1.000  C
  C91      1.0000 0.05030  0.14570  0.51660  Biso   1.000  C
  C92      1.0000 0.95190  0.09130  0.52430  Biso   1.000  C
  C93      1.0000 0.89560  0.13180  0.51870  Biso   1.000  C
  C94      1.0000 0.11280  0.10270  0.52050  Biso   1.000  C
  C95      1.0000 0.20630  0.14710  0.51150  Biso   1.000  C
  C96      1.0000 0.26850  0.10320  0.51490  Biso   1.000  C
  C97      1.0000 0.36890  0.16070  0.51590  Biso   1.000  C
  C98      1.0000 0.42600  0.12020  0.52330  Biso   1.000  C
  C99      1.0000 0.29330  0.96830  0.52350  Biso   1.000  C
  C100     1.0000 0.23210  0.00300  0.51670  Biso   1.000  C
  C101     1.0000 0.56730  0.24710  0.77897  Biso   1.000  C
  C102     1.0000 0.54330  0.18080  0.73097  Biso   1.000  C
  C103     1.0000 0.53960  0.09270  0.74227  Biso   1.000  C
  C104     1.0000 0.55610  0.07180  0.80297  Biso   1.000  C
  C105     1.0000 0.57560  0.13470  0.85137  Biso   1.000  C
  C106     1.0000 0.58410  0.22380  0.83897  Biso   1.000  C
  C107     1.0000 0.58640  0.10890  0.91827  Biso   1.000  C
  C108     1.0000 0.44730  0.11750  0.95957  Biso   1.000  C
  C109     1.0000 0.38820  0.10070  0.01897  Biso   1.000  C
  C110     1.0000 0.42710  0.96320  0.92617  Biso   1.000  C
  C111     1.0000 0.35410  0.89270  0.97387  Biso   1.000  C
  C112     1.0000 0.57910  0.34750  0.77047  Biso   1.000  C
  C113     1.0000 0.52100  0.02020  0.69037  Biso   1.000  C
  C114     1.0000 0.25420  0.97330  0.16437  Biso   1.000  C
  C115     1.0000 0.15630  0.91190  0.16887  Biso   1.000  C
  C116     1.0000 0.09540  0.94970  0.18327  Biso   1.000  C
  C117     1.0000 0.13940  0.04810  0.19097  Biso   1.000  C
  C118     1.0000 0.23620  0.10440  0.18537  Biso   1.000  C
  C119     1.0000 0.98990  0.88720  0.18717  Biso   1.000  C
  C120     1.0000 0.94080  0.79370  0.17817  Biso   1.000  C
  C121     1.0000 0.83470  0.73150  0.18157  Biso   1.000  C
  C122     1.0000 0.79180  0.63110  0.18257  Biso   1.000  C
  C123     1.0000 0.69420  0.57400  0.18997  Biso   1.000  C
  C124     1.0000 0.67500  0.70670  0.19017  Biso   1.000  C
  C125     1.0000 0.77090  0.76790  0.18337  Biso   1.000  C
  C126     1.0000 0.67980  0.43270  0.44563  Biso   1.000  C
  C127     1.0000 0.63750  0.45670  0.39763  Biso   1.000  C
  C128     1.0000 0.55310  0.46040  0.40893  Biso   1.000  C
  C129     1.0000 0.51570  0.44390  0.46963  Biso   1.000  C
  C130     1.0000 0.55910  0.42440  0.51803  Biso   1.000  C
  C131     1.0000 0.63970  0.41590  0.50563  Biso   1.000  C
  C132     1.0000 0.52250  0.41360  0.58493  Biso   1.000  C
  C133     1.0000 0.67020  0.55270  0.62623  Biso   1.000  C
  C134     1.0000 0.71250  0.61180  0.68563  Biso   1.000  C
  C135     1.0000 0.53610  0.57290  0.59283  Biso   1.000  C
  C136     1.0000 0.53860  0.64590  0.64053  Biso   1.000  C
  C137     1.0000 0.76840  0.42090  0.43713  Biso   1.000  C
  C138     1.0000 0.49920  0.47900  0.35703  Biso   1.000  C
  C139     1.0000 0.71910  0.74580  0.83103  Biso   1.000  C
  C140     1.0000 0.75560  0.84370  0.83553  Biso   1.000  C
  C141     1.0000 0.85430  0.90460  0.84993  Biso   1.000  C
  C142     1.0000 0.90870  0.86060  0.85763  Biso   1.000  C
  C143     1.0000 0.86820  0.76380  0.85203  Biso   1.000  C
  C144     1.0000 0.89730  0.01010  0.85383  Biso   1.000  C
  C145     1.0000 0.85290  0.05920  0.84483  Biso   1.000  C
  C146     1.0000 0.89680  0.16530  0.84823  Biso   1.000  C
  C147     1.0000 0.83930  0.20820  0.84923  Biso   1.000  C
  C148     1.0000 0.87980  0.30580  0.85663  Biso   1.000  C
  C149     1.0000 0.03170  0.32500  0.85683  Biso   1.000  C
  C150     1.0000 0.99700  0.22910  0.85003  Biso   1.000  C
  N1       1.0000 0.05820  0.56410  0.78843  Biso   1.000  N
  N2       1.0000 0.06950  0.77380  0.00550  Biso   1.000  N
  N3       1.0000 0.60890  0.97470  0.02793  Biso   1.000  N
  N4       1.0000 0.50590  0.94180  0.45510  Biso   1.000  N
  N5       1.0000 0.70430  0.93050  0.67217  Biso   1.000  N
  N6       1.0000 0.36580  0.39110  0.69460  Biso   1.000  N
  N7       1.0000 0.43590  0.49410  0.12176  Biso   1.000  N
  N8       1.0000 0.22620  0.29570  0.33883  Biso   1.000  N
  N9       1.0000 0.02530  0.63420  0.36126  Biso   1.000  N
  N10      1.0000 0.94180  0.43590  0.28843  Biso   1.000  N
  N11      1.0000 0.93050  0.22620  0.50550  Biso   1.000  N
  N12      1.0000 0.39110  0.02530  0.52793  Biso   1.000  N
  N13      1.0000 0.49410  0.05820  0.95510  Biso   1.000  N
  N14      1.0000 0.29570  0.06950  0.17217  Biso   1.000  N
  N15      1.0000 0.63420  0.60890  0.19460  Biso   1.000  N
  N16      1.0000 0.56410  0.50590  0.62176  Biso   1.000  N
  N17      1.0000 0.77380  0.70430  0.83883  Biso   1.000  N
  N18      1.0000 0.97470  0.36580  0.86126  Biso   1.000  N
  O1       1.0000 0.08770  0.66160  0.90256  Biso   1.000  O
  O2       1.0000 0.10470  0.79010  0.85070  Biso   1.000  O
  O3       1.0000 0.89880  0.51560  0.86259  Biso   1.000  O
  O4       1.0000 0.83450  0.56160  0.78706  Biso   1.000  O
  O5       1.0000 0.41010  0.77080  0.64070  Biso   1.000  O
  O6       1.0000 0.36040  0.83050  0.56329  Biso   1.000  O
  O7       1.0000 0.03040  0.54200  0.47275  Biso   1.000  O
  O8       1.0000 0.95540  0.41570  0.53669  Biso   1.000  O
  O9       1.0000 0.22010  0.75220  0.08151  Biso   1.000  O
  O10      1.0000 0.57390  0.91230  0.56923  Biso   1.000  O
  O11      1.0000 0.68540  0.89530  0.51737  Biso   1.000  O
  O12      1.0000 0.61680  0.10120  0.52926  Biso   1.000  O
  O13      1.0000 0.72710  0.16550  0.45373  Biso   1.000  O
  O14      1.0000 0.36070  0.58990  0.30737  Biso   1.000  O
  O15      1.0000 0.47010  0.63960  0.22996  Biso   1.000  O
  O16      1.0000 0.51160  0.96960  0.13942  Biso   1.000  O
  O17      1.0000 0.46030  0.04460  0.20336  Biso   1.000  O
  O18      1.0000 0.53210  0.77990  0.74818  Biso   1.000  O
  O19      1.0000 0.33840  0.42610  0.23589  Biso   1.000  O
  O20      1.0000 0.20990  0.31460  0.18403  Biso   1.000  O
  O21      1.0000 0.48440  0.38320  0.19592  Biso   1.000  O
  O22      1.0000 0.43840  0.27290  0.12039  Biso   1.000  O
  O23      1.0000 0.22920  0.63930  0.97403  Biso   1.000  O
  O24      1.0000 0.16950  0.52990  0.89662  Biso   1.000  O
  O25      1.0000 0.45800  0.48840  0.80608  Biso   1.000  O
  O26      1.0000 0.58430  0.53970  0.87002  Biso   1.000  O
  O27      1.0000 0.24780  0.46790  0.41484  Biso   1.000  O
  O28      1.0000 0.91230  0.33840  0.40256  Biso   1.000  O
  O29      1.0000 0.89530  0.20990  0.35070  Biso   1.000  O
  O30      1.0000 0.10120  0.48440  0.36259  Biso   1.000  O
  O31      1.0000 0.16550  0.43840  0.28706  Biso   1.000  O
  O32      1.0000 0.58990  0.22920  0.14070  Biso   1.000  O
  O33      1.0000 0.63960  0.16950  0.06329  Biso   1.000  O
  O34      1.0000 0.96960  0.45800  0.97275  Biso   1.000  O
  O35      1.0000 0.04460  0.58430  0.03669  Biso   1.000  O
  O36      1.0000 0.77990  0.24780  0.58151  Biso   1.000  O
  O37      1.0000 0.42610  0.08770  0.06923  Biso   1.000  O
  O38      1.0000 0.31460  0.10470  0.01737  Biso   1.000  O
  O39      1.0000 0.38320  0.89880  0.02926  Biso   1.000  O
  O40      1.0000 0.27290  0.83450  0.95373  Biso   1.000  O
  O41      1.0000 0.63930  0.41010  0.80737  Biso   1.000  O
  O42      1.0000 0.52990  0.36040  0.72996  Biso   1.000  O
  O43      1.0000 0.48840  0.03040  0.63942  Biso   1.000  O
  O44      1.0000 0.53970  0.95540  0.70336  Biso   1.000  O
  O45      1.0000 0.46790  0.22010  0.24818  Biso   1.000  O
  O46      1.0000 0.66160  0.57390  0.73589  Biso   1.000  O
  O47      1.0000 0.79010  0.68540  0.68403  Biso   1.000  O
  O48      1.0000 0.51560  0.61680  0.69592  Biso   1.000  O
  O49      1.0000 0.56160  0.72710  0.62039  Biso   1.000  O
  O50      1.0000 0.77080  0.36070  0.47403  Biso   1.000  O
  O51      1.0000 0.83050  0.47010  0.39662  Biso   1.000  O
  O52      1.0000 0.54200  0.51160  0.30608  Biso   1.000  O
  O53      1.0000 0.41570  0.46030  0.37002  Biso   1.000  O
  O54      1.0000 0.75220  0.53210  0.91484  Biso   1.000  O
