data_image0
_cell_length_a       15.9363
_cell_length_b       15.9363
_cell_length_c       21.338
_cell_angle_alpha    90
_cell_angle_beta     90
_cell_angle_gamma    120

_symmetry_space_group_name_H-M    P 1
_symmetry_int_tables_number       1

loop_
  _symmetry_equiv_pos_as_xyz
  'x, y, z'

loop_
  _atom_site_label
  _atom_site_occupancy
  _atom_site_fract_x
  _atom_site_fract_y
  _atom_site_fract_z
  _atom_site_thermal_displace_type
  _atom_site_B_iso_or_equiv
  _atom_site_type_symbol
  Co1      1.0000 0.55335  0.84637  0.91185  Biso   1.000  Co
  Co2      1.0000 0.48288  0.96899  0.80607  Biso   1.000  Co
  Co3      1.0000 0.29302  0.44665  0.57852  Biso   1.000  Co
  Co4      1.0000 0.48611  0.51712  0.47274  Biso   1.000  Co
  Co5      1.0000 0.15363  0.70698  0.24518  Biso   1.000  Co
  Co6      1.0000 0.03101  0.51389  0.13940  Biso   1.000  Co
  Co7      1.0000 0.44665  0.15363  0.41185  Biso   1.000  Co
  Co8      1.0000 0.51712  0.03101  0.30607  Biso   1.000  Co
  Co9      1.0000 0.70698  0.55335  0.07852  Biso   1.000  Co
  Co10     1.0000 0.51389  0.48288  0.97274  Biso   1.000  Co
  Co11     1.0000 0.84637  0.29302  0.74518  Biso   1.000  Co
  Co12     1.0000 0.96899  0.48611  0.63940  Biso   1.000  Co
  H1       1.0000 0.47240  0.80620  0.44500  Biso   1.000  H
  H2       1.0000 0.44620  0.98700  0.56380  Biso   1.000  H
  H3       1.0000 0.40000  0.73120  0.62440  Biso   1.000  H
  H4       1.0000 0.38480  0.93270  0.67100  Biso   1.000  H
  H5       1.0000 0.36870  0.83240  0.69400  Biso   1.000  H
  H6       1.0000 0.59390  0.89450  0.67650  Biso   1.000  H
  H7       1.0000 0.50210  0.81370  0.71090  Biso   1.000  H
  H8       1.0000 0.53630  0.06470  0.66120  Biso   1.000  H
  H9       1.0000 0.60840  0.02770  0.64490  Biso   1.000  H
  H10      1.0000 0.70590  0.05220  0.90910  Biso   1.000  H
  H11      1.0000 0.87160  0.15430  0.91580  Biso   1.000  H
  H12      1.0000 0.89800  0.92140  0.95360  Biso   1.000  H
  H13      1.0000 0.73650  0.82820  0.94380  Biso   1.000  H
  H14      1.0000 0.04450  0.08240  0.95250  Biso   1.000  H
  H15      1.0000 0.02450  0.23430  0.92020  Biso   1.000  H
  H16      1.0000 0.17050  0.39560  0.93130  Biso   1.000  H
  H17      1.0000 0.33160  0.49270  0.94590  Biso   1.000  H
  H18      1.0000 0.36510  0.26720  0.94540  Biso   1.000  H
  H19      1.0000 0.20630  0.16580  0.93330  Biso   1.000  H
  H20      1.0000 0.48670  0.77880  0.02240  Biso   1.000  H
  H21      1.0000 0.52040  0.72130  0.00420  Biso   1.000  H
  H22      1.0000 0.33380  0.52760  0.11167  Biso   1.000  H
  H23      1.0000 0.54080  0.55380  0.23047  Biso   1.000  H
  H24      1.0000 0.33120  0.60000  0.29107  Biso   1.000  H
  H25      1.0000 0.54790  0.61520  0.33767  Biso   1.000  H
  H26      1.0000 0.46370  0.63130  0.36067  Biso   1.000  H
  H27      1.0000 0.30060  0.40610  0.34317  Biso   1.000  H
  H28      1.0000 0.31160  0.49790  0.37757  Biso   1.000  H
  H29      1.0000 0.52840  0.46370  0.32787  Biso   1.000  H
  H30      1.0000 0.41930  0.39160  0.31157  Biso   1.000  H
  H31      1.0000 0.34630  0.29410  0.57577  Biso   1.000  H
  H32      1.0000 0.28270  0.12840  0.58247  Biso   1.000  H
  H33      1.0000 0.02340  0.10200  0.62027  Biso   1.000  H
  H34      1.0000 0.09170  0.26350  0.61047  Biso   1.000  H
  H35      1.0000 0.03790  0.95550  0.61917  Biso   1.000  H
  H36      1.0000 0.20980  0.97550  0.58687  Biso   1.000  H
  H37      1.0000 0.22510  0.82950  0.59797  Biso   1.000  H
  H38      1.0000 0.16110  0.66840  0.61257  Biso   1.000  H
  H39      1.0000 0.90210  0.63490  0.61207  Biso   1.000  H
  H40      1.0000 0.95950  0.79370  0.59997  Biso   1.000  H
  H41      1.0000 0.29210  0.51330  0.68907  Biso   1.000  H
  H42      1.0000 0.20090  0.47960  0.67087  Biso   1.000  H
  H43      1.0000 0.19380  0.66620  0.77833  Biso   1.000  H
  H44      1.0000 0.01300  0.45920  0.89713  Biso   1.000  H
  H45      1.0000 0.26880  0.66880  0.95773  Biso   1.000  H
  H46      1.0000 0.06730  0.45210  0.00433  Biso   1.000  H
  H47      1.0000 0.16760  0.53630  0.02733  Biso   1.000  H
  H48      1.0000 0.10550  0.69940  0.00983  Biso   1.000  H
  H49      1.0000 0.18630  0.68840  0.04423  Biso   1.000  H
  H50      1.0000 0.93530  0.47160  0.99453  Biso   1.000  H
  H51      1.0000 0.97230  0.58070  0.97823  Biso   1.000  H
  H52      1.0000 0.94780  0.65370  0.24243  Biso   1.000  H
  H53      1.0000 0.84570  0.71730  0.24913  Biso   1.000  H
  H54      1.0000 0.07860  0.97660  0.28693  Biso   1.000  H
  H55      1.0000 0.17180  0.90830  0.27713  Biso   1.000  H
  H56      1.0000 0.91760  0.96210  0.28583  Biso   1.000  H
  H57      1.0000 0.76570  0.79020  0.25353  Biso   1.000  H
  H58      1.0000 0.60440  0.77490  0.26463  Biso   1.000  H
  H59      1.0000 0.50730  0.83890  0.27923  Biso   1.000  H
  H60      1.0000 0.73280  0.09790  0.27873  Biso   1.000  H
  H61      1.0000 0.83420  0.04050  0.26663  Biso   1.000  H
  H62      1.0000 0.22120  0.70790  0.35573  Biso   1.000  H
  H63      1.0000 0.27870  0.79910  0.33753  Biso   1.000  H
  H64      1.0000 0.52760  0.19380  0.94500  Biso   1.000  H
  H65      1.0000 0.55380  0.01300  0.06380  Biso   1.000  H
  H66      1.0000 0.60000  0.26880  0.12440  Biso   1.000  H
  H67      1.0000 0.61520  0.06730  0.17100  Biso   1.000  H
  H68      1.0000 0.63130  0.16760  0.19400  Biso   1.000  H
  H69      1.0000 0.40610  0.10550  0.17650  Biso   1.000  H
  H70      1.0000 0.49790  0.18630  0.21090  Biso   1.000  H
  H71      1.0000 0.46370  0.93530  0.16120  Biso   1.000  H
  H72      1.0000 0.39160  0.97230  0.14490  Biso   1.000  H
  H73      1.0000 0.29410  0.94780  0.40910  Biso   1.000  H
  H74      1.0000 0.12840  0.84570  0.41580  Biso   1.000  H
  H75      1.0000 0.10200  0.07860  0.45360  Biso   1.000  H
  H76      1.0000 0.26350  0.17180  0.44380  Biso   1.000  H
  H77      1.0000 0.95550  0.91760  0.45250  Biso   1.000  H
  H78      1.0000 0.97550  0.76570  0.42020  Biso   1.000  H
  H79      1.0000 0.82950  0.60440  0.43130  Biso   1.000  H
  H80      1.0000 0.66840  0.50730  0.44590  Biso   1.000  H
  H81      1.0000 0.63490  0.73280  0.44540  Biso   1.000  H
  H82      1.0000 0.79370  0.83420  0.43330  Biso   1.000  H
  H83      1.0000 0.51330  0.22120  0.52240  Biso   1.000  H
  H84      1.0000 0.47960  0.27870  0.50420  Biso   1.000  H
  H85      1.0000 0.66620  0.47240  0.61167  Biso   1.000  H
  H86      1.0000 0.45920  0.44620  0.73047  Biso   1.000  H
  H87      1.0000 0.66880  0.40000  0.79107  Biso   1.000  H
  H88      1.0000 0.45210  0.38480  0.83767  Biso   1.000  H
  H89      1.0000 0.53630  0.36870  0.86067  Biso   1.000  H
  H90      1.0000 0.69940  0.59390  0.84317  Biso   1.000  H
  H91      1.0000 0.68840  0.50210  0.87757  Biso   1.000  H
  H92      1.0000 0.47160  0.53630  0.82787  Biso   1.000  H
  H93      1.0000 0.58070  0.60840  0.81157  Biso   1.000  H
  H94      1.0000 0.65370  0.70590  0.07577  Biso   1.000  H
  H95      1.0000 0.71730  0.87160  0.08247  Biso   1.000  H
  H96      1.0000 0.97660  0.89800  0.12027  Biso   1.000  H
  H97      1.0000 0.90830  0.73650  0.11047  Biso   1.000  H
  H98      1.0000 0.96210  0.04450  0.11917  Biso   1.000  H
  H99      1.0000 0.79020  0.02450  0.08687  Biso   1.000  H
  H100     1.0000 0.77490  0.17050  0.09797  Biso   1.000  H
  H101     1.0000 0.83890  0.33160  0.11257  Biso   1.000  H
  H102     1.0000 0.09790  0.36510  0.11207  Biso   1.000  H
  H103     1.0000 0.04050  0.20630  0.09997  Biso   1.000  H
  H104     1.0000 0.70790  0.48670  0.18907  Biso   1.000  H
  H105     1.0000 0.79910  0.52040  0.17087  Biso   1.000  H
  H106     1.0000 0.80620  0.33380  0.27833  Biso   1.000  H
  H107     1.0000 0.98700  0.54080  0.39713  Biso   1.000  H
  H108     1.0000 0.73120  0.33120  0.45773  Biso   1.000  H
  H109     1.0000 0.93270  0.54790  0.50433  Biso   1.000  H
  H110     1.0000 0.83240  0.46370  0.52733  Biso   1.000  H
  H111     1.0000 0.89450  0.30060  0.50983  Biso   1.000  H
  H112     1.0000 0.81370  0.31160  0.54423  Biso   1.000  H
  H113     1.0000 0.06470  0.52840  0.49453  Biso   1.000  H
  H114     1.0000 0.02770  0.41930  0.47823  Biso   1.000  H
  H115     1.0000 0.05220  0.34630  0.74243  Biso   1.000  H
  H116     1.0000 0.15430  0.28270  0.74913  Biso   1.000  H
  H117     1.0000 0.92140  0.02340  0.78693  Biso   1.000  H
  H118     1.0000 0.82820  0.09170  0.77713  Biso   1.000  H
  H119     1.0000 0.08240  0.03790  0.78583  Biso   1.000  H
  H120     1.0000 0.23430  0.20980  0.75353  Biso   1.000  H
  H121     1.0000 0.39560  0.22510  0.76463  Biso   1.000  H
  H122     1.0000 0.49270  0.16110  0.77923  Biso   1.000  H
  H123     1.0000 0.26720  0.90210  0.77873  Biso   1.000  H
  H124     1.0000 0.16580  0.95950  0.76663  Biso   1.000  H
  H125     1.0000 0.77880  0.29210  0.85573  Biso   1.000  H
  H126     1.0000 0.72130  0.20090  0.83753  Biso   1.000  H
  C1       1.0000 0.43160  0.75230  0.53220  Biso   1.000  C
  C2       1.0000 0.45710  0.81950  0.48450  Biso   1.000  C
  C3       1.0000 0.46000  0.90680  0.49540  Biso   1.000  C
  C4       1.0000 0.44350  0.92820  0.55630  Biso   1.000  C
  C5       1.0000 0.42360  0.86510  0.60490  Biso   1.000  C
  C6       1.0000 0.41590  0.77590  0.59210  Biso   1.000  C
  C7       1.0000 0.41330  0.89130  0.67190  Biso   1.000  C
  C8       1.0000 0.55200  0.88150  0.71250  Biso   1.000  C
  C9       1.0000 0.61170  0.89920  0.77230  Biso   1.000  C
  C10      1.0000 0.57310  0.03690  0.67880  Biso   1.000  C
  C11      1.0000 0.64500  0.10670  0.72720  Biso   1.000  C
  C12      1.0000 0.42050  0.65280  0.52440  Biso   1.000  C
  C13      1.0000 0.47860  0.97980  0.44410  Biso   1.000  C
  C14      1.0000 0.74530  0.02600  0.91770  Biso   1.000  C
  C15      1.0000 0.84480  0.08800  0.92220  Biso   1.000  C
  C16      1.0000 0.90440  0.04880  0.93670  Biso   1.000  C
  C17      1.0000 0.86080  0.94980  0.94440  Biso   1.000  C
  C18      1.0000 0.76410  0.89470  0.93850  Biso   1.000  C
  C19      1.0000 0.00950  0.11230  0.94110  Biso   1.000  C
  C20      1.0000 0.05950  0.20420  0.93130  Biso   1.000  C
  C21      1.0000 0.16510  0.26750  0.93540  Biso   1.000  C
  C22      1.0000 0.20900  0.36740  0.93620  Biso   1.000  C
  C23      1.0000 0.30600  0.42610  0.94380  Biso   1.000  C
  C24      1.0000 0.32440  0.29330  0.94380  Biso   1.000  C
  C25      1.0000 0.22950  0.23200  0.93700  Biso   1.000  C
  C26      1.0000 0.32070  0.56840  0.19887  Biso   1.000  C
  C27      1.0000 0.36240  0.54290  0.15117  Biso   1.000  C
  C28      1.0000 0.44680  0.54000  0.16207  Biso   1.000  C
  C29      1.0000 0.48470  0.55650  0.22297  Biso   1.000  C
  C30      1.0000 0.44150  0.57640  0.27157  Biso   1.000  C
  C31      1.0000 0.36000  0.58410  0.25877  Biso   1.000  C
  C32      1.0000 0.47800  0.58670  0.33857  Biso   1.000  C
  C33      1.0000 0.32950  0.44800  0.37917  Biso   1.000  C
  C34      1.0000 0.28750  0.38830  0.43897  Biso   1.000  C
  C35      1.0000 0.46380  0.42690  0.34547  Biso   1.000  C
  C36      1.0000 0.46170  0.35500  0.39387  Biso   1.000  C
  C37      1.0000 0.23230  0.57950  0.19107  Biso   1.000  C
  C38      1.0000 0.50120  0.52140  0.11077  Biso   1.000  C
  C39      1.0000 0.28070  0.25470  0.58437  Biso   1.000  C
  C40      1.0000 0.24320  0.15520  0.58887  Biso   1.000  C
  C41      1.0000 0.14440  0.09560  0.60337  Biso   1.000  C
  C42      1.0000 0.08900  0.13920  0.61107  Biso   1.000  C
  C43      1.0000 0.13060  0.23590  0.60517  Biso   1.000  C
  C44      1.0000 0.10280  0.99050  0.60777  Biso   1.000  C
  C45      1.0000 0.14470  0.94050  0.59797  Biso   1.000  C
  C46      1.0000 0.10240  0.83490  0.60207  Biso   1.000  C
  C47      1.0000 0.15840  0.79100  0.60287  Biso   1.000  C
  C48      1.0000 0.12010  0.69400  0.61047  Biso   1.000  C
  C49      1.0000 0.96890  0.67560  0.61047  Biso   1.000  C
  C50      1.0000 0.00250  0.77050  0.60367  Biso   1.000  C
  C51      1.0000 0.24770  0.67930  0.86553  Biso   1.000  C
  C52      1.0000 0.18050  0.63760  0.81783  Biso   1.000  C
  C53      1.0000 0.09320  0.55320  0.82873  Biso   1.000  C
  C54      1.0000 0.07180  0.51530  0.88963  Biso   1.000  C
  C55      1.0000 0.13490  0.55850  0.93823  Biso   1.000  C
  C56      1.0000 0.22410  0.64000  0.92543  Biso   1.000  C
  C57      1.0000 0.10870  0.52200  0.00523  Biso   1.000  C
  C58      1.0000 0.11850  0.67050  0.04583  Biso   1.000  C
  C59      1.0000 0.10080  0.71250  0.10563  Biso   1.000  C
  C60      1.0000 0.96310  0.53620  0.01213  Biso   1.000  C
  C61      1.0000 0.89330  0.53830  0.06053  Biso   1.000  C
  C62      1.0000 0.34720  0.76770  0.85773  Biso   1.000  C
  C63      1.0000 0.02020  0.49880  0.77743  Biso   1.000  C
  C64      1.0000 0.97400  0.71930  0.25103  Biso   1.000  C
  C65      1.0000 0.91200  0.75680  0.25553  Biso   1.000  C
  C66      1.0000 0.95120  0.85560  0.27003  Biso   1.000  C
  C67      1.0000 0.05020  0.91100  0.27773  Biso   1.000  C
  C68      1.0000 0.10530  0.86940  0.27183  Biso   1.000  C
  C69      1.0000 0.88770  0.89720  0.27443  Biso   1.000  C
  C70      1.0000 0.79580  0.85530  0.26463  Biso   1.000  C
  C71      1.0000 0.73250  0.89760  0.26873  Biso   1.000  C
  C72      1.0000 0.63260  0.84160  0.26953  Biso   1.000  C
  C73      1.0000 0.57390  0.87990  0.27713  Biso   1.000  C
  C74      1.0000 0.70670  0.03110  0.27713  Biso   1.000  C
  C75      1.0000 0.76800  0.99750  0.27033  Biso   1.000  C
  C76      1.0000 0.56840  0.24770  0.03220  Biso   1.000  C
  C77      1.0000 0.54290  0.18050  0.98450  Biso   1.000  C
  C78      1.0000 0.54000  0.09320  0.99540  Biso   1.000  C
  C79      1.0000 0.55650  0.07180  0.05630  Biso   1.000  C
  C80      1.0000 0.57640  0.13490  0.10490  Biso   1.000  C
  C81      1.0000 0.58410  0.22410  0.09210  Biso   1.000  C
  C82      1.0000 0.58670  0.10870  0.17190  Biso   1.000  C
  C83      1.0000 0.44800  0.11850  0.21250  Biso   1.000  C
  C84      1.0000 0.38830  0.10080  0.27230  Biso   1.000  C
  C85      1.0000 0.42690  0.96310  0.17880  Biso   1.000  C
  C86      1.0000 0.35500  0.89330  0.22720  Biso   1.000  C
  C87      1.0000 0.57950  0.34720  0.02440  Biso   1.000  C
  C88      1.0000 0.52140  0.02020  0.94410  Biso   1.000  C
  C89      1.0000 0.25470  0.97400  0.41770  Biso   1.000  C
  C90      1.0000 0.15520  0.91200  0.42220  Biso   1.000  C
  C91      1.0000 0.09560  0.95120  0.43670  Biso   1.000  C
  C92      1.0000 0.13920  0.05020  0.44440  Biso   1.000  C
  C93      1.0000 0.23590  0.10530  0.43850  Biso   1.000  C
  C94      1.0000 0.99050  0.88770  0.44110  Biso   1.000  C
  C95      1.0000 0.94050  0.79580  0.43130  Biso   1.000  C
  C96      1.0000 0.83490  0.73250  0.43540  Biso   1.000  C
  C97      1.0000 0.79100  0.63260  0.43620  Biso   1.000  C
  C98      1.0000 0.69400  0.57390  0.44380  Biso   1.000  C
  C99      1.0000 0.67560  0.70670  0.44380  Biso   1.000  C
  C100     1.0000 0.77050  0.76800  0.43700  Biso   1.000  C
  C101     1.0000 0.67930  0.43160  0.69887  Biso   1.000  C
  C102     1.0000 0.63760  0.45710  0.65117  Biso   1.000  C
  C103     1.0000 0.55320  0.46000  0.66207  Biso   1.000  C
  C104     1.0000 0.51530  0.44350  0.72297  Biso   1.000  C
  C105     1.0000 0.55850  0.42360  0.77157  Biso   1.000  C
  C106     1.0000 0.64000  0.41590  0.75877  Biso   1.000  C
  C107     1.0000 0.52200  0.41330  0.83857  Biso   1.000  C
  C108     1.0000 0.67050  0.55200  0.87917  Biso   1.000  C
  C109     1.0000 0.71250  0.61170  0.93897  Biso   1.000  C
  C110     1.0000 0.53620  0.57310  0.84547  Biso   1.000  C
  C111     1.0000 0.53830  0.64500  0.89387  Biso   1.000  C
  C112     1.0000 0.76770  0.42050  0.69107  Biso   1.000  C
  C113     1.0000 0.49880  0.47860  0.61077  Biso   1.000  C
  C114     1.0000 0.71930  0.74530  0.08437  Biso   1.000  C
  C115     1.0000 0.75680  0.84480  0.08887  Biso   1.000  C
  C116     1.0000 0.85560  0.90440  0.10337  Biso   1.000  C
  C117     1.0000 0.91100  0.86080  0.11107  Biso   1.000  C
  C118     1.0000 0.86940  0.76410  0.10517  Biso   1.000  C
  C119     1.0000 0.89720  0.00950  0.10777  Biso   1.000  C
  C120     1.0000 0.85530  0.05950  0.09797  Biso   1.000  C
  C121     1.0000 0.89760  0.16510  0.10207  Biso   1.000  C
  C122     1.0000 0.84160  0.20900  0.10287  Biso   1.000  C
  C123     1.0000 0.87990  0.30600  0.11047  Biso   1.000  C
  C124     1.0000 0.03110  0.32440  0.11047  Biso   1.000  C
  C125     1.0000 0.99750  0.22950  0.10367  Biso   1.000  C
  C126     1.0000 0.75230  0.32070  0.36553  Biso   1.000  C
  C127     1.0000 0.81950  0.36240  0.31783  Biso   1.000  C
  C128     1.0000 0.90680  0.44680  0.32873  Biso   1.000  C
  C129     1.0000 0.92820  0.48470  0.38963  Biso   1.000  C
  C130     1.0000 0.86510  0.44150  0.43823  Biso   1.000  C
  C131     1.0000 0.77590  0.36000  0.42543  Biso   1.000  C
  C132     1.0000 0.89130  0.47800  0.50523  Biso   1.000  C
  C133     1.0000 0.88150  0.32950  0.54583  Biso   1.000  C
  C134     1.0000 0.89920  0.28750  0.60563  Biso   1.000  C
  C135     1.0000 0.03690  0.46380  0.51213  Biso   1.000  C
  C136     1.0000 0.10670  0.46170  0.56053  Biso   1.000  C
  C137     1.0000 0.65280  0.23230  0.35773  Biso   1.000  C
  C138     1.0000 0.97980  0.50120  0.27743  Biso   1.000  C
  C139     1.0000 0.02600  0.28070  0.75103  Biso   1.000  C
  C140     1.0000 0.08800  0.24320  0.75553  Biso   1.000  C
  C141     1.0000 0.04880  0.14440  0.77003  Biso   1.000  C
  C142     1.0000 0.94980  0.08900  0.77773  Biso   1.000  C
  C143     1.0000 0.89470  0.13060  0.77183  Biso   1.000  C
  C144     1.0000 0.11230  0.10280  0.77443  Biso   1.000  C
  C145     1.0000 0.20420  0.14470  0.76463  Biso   1.000  C
  C146     1.0000 0.26750  0.10240  0.76873  Biso   1.000  C
  C147     1.0000 0.36740  0.15840  0.76953  Biso   1.000  C
  C148     1.0000 0.42610  0.12010  0.77713  Biso   1.000  C
  C149     1.0000 0.29330  0.96890  0.77713  Biso   1.000  C
  C150     1.0000 0.23200  0.00250  0.77033  Biso   1.000  C
  N1       1.0000 0.50560  0.94150  0.70770  Biso   1.000  N
  N2       1.0000 0.70390  0.93000  0.92530  Biso   1.000  N
  N3       1.0000 0.36490  0.38960  0.94850  Biso   1.000  N
  N4       1.0000 0.43590  0.49440  0.37437  Biso   1.000  N
  N5       1.0000 0.22610  0.29610  0.59197  Biso   1.000  N
  N6       1.0000 0.02470  0.63510  0.61517  Biso   1.000  N
  N7       1.0000 0.05850  0.56410  0.04103  Biso   1.000  N
  N8       1.0000 0.07000  0.77390  0.25863  Biso   1.000  N
  N9       1.0000 0.61040  0.97530  0.28183  Biso   1.000  N
  N10      1.0000 0.49440  0.05850  0.20770  Biso   1.000  N
  N11      1.0000 0.29610  0.07000  0.42530  Biso   1.000  N
  N12      1.0000 0.63510  0.61040  0.44850  Biso   1.000  N
  N13      1.0000 0.56410  0.50560  0.87437  Biso   1.000  N
  N14      1.0000 0.77390  0.70390  0.09197  Biso   1.000  N
  N15      1.0000 0.97530  0.36490  0.11517  Biso   1.000  N
  N16      1.0000 0.94150  0.43590  0.54103  Biso   1.000  N
  N17      1.0000 0.93000  0.22610  0.75863  Biso   1.000  N
  N18      1.0000 0.38960  0.02470  0.78183  Biso   1.000  N
  O1       1.0000 0.57400  0.91260  0.82284  Biso   1.000  O
  O2       1.0000 0.68580  0.89480  0.77060  Biso   1.000  O
  O3       1.0000 0.61660  0.10190  0.78260  Biso   1.000  O
  O4       1.0000 0.72640  0.16630  0.70700  Biso   1.000  O
  O5       1.0000 0.36090  0.58980  0.56110  Biso   1.000  O
  O6       1.0000 0.46970  0.63990  0.48320  Biso   1.000  O
  O7       1.0000 0.51130  0.96990  0.39320  Biso   1.000  O
  O8       1.0000 0.45960  0.04470  0.45670  Biso   1.000  O
  O9       1.0000 0.53250  0.77950  0.00150  Biso   1.000  O
  O10      1.0000 0.33860  0.42600  0.48951  Biso   1.000  O
  O11      1.0000 0.20900  0.31420  0.43727  Biso   1.000  O
  O12      1.0000 0.48530  0.38340  0.44927  Biso   1.000  O
  O13      1.0000 0.43990  0.27360  0.37367  Biso   1.000  O
  O14      1.0000 0.22890  0.63910  0.22777  Biso   1.000  O
  O15      1.0000 0.17020  0.53030  0.14987  Biso   1.000  O
  O16      1.0000 0.45860  0.48870  0.05987  Biso   1.000  O
  O17      1.0000 0.58510  0.54040  0.12337  Biso   1.000  O
  O18      1.0000 0.24700  0.46750  0.66817  Biso   1.000  O
  O19      1.0000 0.08740  0.66140  0.15617  Biso   1.000  O
  O20      1.0000 0.10520  0.79100  0.10393  Biso   1.000  O
  O21      1.0000 0.89810  0.51470  0.11593  Biso   1.000  O
  O22      1.0000 0.83370  0.56010  0.04033  Biso   1.000  O
  O23      1.0000 0.41020  0.77110  0.89443  Biso   1.000  O
  O24      1.0000 0.36010  0.82980  0.81653  Biso   1.000  O
  O25      1.0000 0.03010  0.54140  0.72653  Biso   1.000  O
  O26      1.0000 0.95530  0.41490  0.79003  Biso   1.000  O
  O27      1.0000 0.22050  0.75300  0.33483  Biso   1.000  O
  O28      1.0000 0.42600  0.08740  0.32284  Biso   1.000  O
  O29      1.0000 0.31420  0.10520  0.27060  Biso   1.000  O
  O30      1.0000 0.38340  0.89810  0.28260  Biso   1.000  O
  O31      1.0000 0.27360  0.83370  0.20700  Biso   1.000  O
  O32      1.0000 0.63910  0.41020  0.06110  Biso   1.000  O
  O33      1.0000 0.53030  0.36010  0.98320  Biso   1.000  O
  O34      1.0000 0.48870  0.03010  0.89320  Biso   1.000  O
  O35      1.0000 0.54040  0.95530  0.95670  Biso   1.000  O
  O36      1.0000 0.46750  0.22050  0.50150  Biso   1.000  O
  O37      1.0000 0.66140  0.57400  0.98951  Biso   1.000  O
  O38      1.0000 0.79100  0.68580  0.93727  Biso   1.000  O
  O39      1.0000 0.51470  0.61660  0.94927  Biso   1.000  O
  O40      1.0000 0.56010  0.72640  0.87367  Biso   1.000  O
  O41      1.0000 0.77110  0.36090  0.72777  Biso   1.000  O
  O42      1.0000 0.82980  0.46970  0.64987  Biso   1.000  O
  O43      1.0000 0.54140  0.51130  0.55987  Biso   1.000  O
  O44      1.0000 0.41490  0.45960  0.62337  Biso   1.000  O
  O45      1.0000 0.75300  0.53250  0.16817  Biso   1.000  O
  O46      1.0000 0.91260  0.33860  0.65617  Biso   1.000  O
  O47      1.0000 0.89480  0.20900  0.60393  Biso   1.000  O
  O48      1.0000 0.10190  0.48530  0.61593  Biso   1.000  O
  O49      1.0000 0.16630  0.43990  0.54033  Biso   1.000  O
  O50      1.0000 0.58980  0.22890  0.39443  Biso   1.000  O
  O51      1.0000 0.63990  0.17020  0.31653  Biso   1.000  O
  O52      1.0000 0.96990  0.45860  0.22653  Biso   1.000  O
  O53      1.0000 0.04470  0.58510  0.29003  Biso   1.000  O
  O54      1.0000 0.77950  0.24700  0.83483  Biso   1.000  O
