data_image0
_cell_length_a       8.1309
_cell_length_b       10.5108
_cell_length_c       11.4194
_cell_angle_alpha    62.599
_cell_angle_beta     84.4085
_cell_angle_gamma    77.777

_symmetry_space_group_name_H-M    P 1
_symmetry_int_tables_number       1

loop_
  _symmetry_equiv_pos_as_xyz
  'x, y, z'

loop_
  _atom_site_label
  _atom_site_occupancy
  _atom_site_fract_x
  _atom_site_fract_y
  _atom_site_fract_z
  _atom_site_thermal_displace_type
  _atom_site_B_iso_or_equiv
  _atom_site_type_symbol
  Co1      1.0000 0.48993  0.68825  0.50758  Biso   1.000  Co
  Co2      1.0000 0.98993  0.19583  0.49242  Biso   1.000  Co
  H1       1.0000 0.58780  0.56990  0.79900  Biso   1.000  H
  H2       1.0000 0.40550  0.37810  0.63500  Biso   1.000  H
  H3       1.0000 0.58350  0.37330  0.00140  Biso   1.000  H
  H4       1.0000 0.39860  0.17880  0.83000  Biso   1.000  H
  H5       1.0000 0.53810  0.21190  0.18560  Biso   1.000  H
  H6       1.0000 0.42300  0.98670  0.01120  Biso   1.000  H
  H7       1.0000 0.53670  0.00960  0.38380  Biso   1.000  H
  H8       1.0000 0.41900  0.79290  0.21600  Biso   1.000  H
  H9       1.0000 0.70240  0.39430  0.54160  Biso   1.000  H
  H10      1.0000 0.86250  0.69600  0.45220  Biso   1.000  H
  H11      1.0000 0.08780  0.36890  0.20100  Biso   1.000  H
  H12      1.0000 0.90550  0.01310  0.36500  Biso   1.000  H
  H13      1.0000 0.08350  0.37470  0.99860  Biso   1.000  H
  H14      1.0000 0.89860  0.00880  0.17000  Biso   1.000  H
  H15      1.0000 0.03810  0.39750  0.81440  Biso   1.000  H
  H16      1.0000 0.92300  0.99790  0.98880  Biso   1.000  H
  H17      1.0000 0.03670  0.39340  0.61620  Biso   1.000  H
  H18      1.0000 0.91900  0.00890  0.78400  Biso   1.000  H
  H19      1.0000 0.20240  0.93590  0.45840  Biso   1.000  H
  H20      1.0000 0.36250  0.14820  0.54780  Biso   1.000  H
  C1       1.0000 0.54810  0.49039  0.80502  Biso   1.000  C
  C2       1.0000 0.44190  0.37768  0.70984  Biso   1.000  C
  C3       1.0000 0.54600  0.37167  0.92786  Biso   1.000  C
  C4       1.0000 0.43710  0.25762  0.82676  Biso   1.000  C
  C5       1.0000 0.48900  0.25145  0.94150  Biso   1.000  C
  C6       1.0000 0.48320  0.12310  0.07220  Biso   1.000  C
  C7       1.0000 0.51560  0.12721  0.18878  Biso   1.000  C
  C8       1.0000 0.44670  0.99463  0.08534  Biso   1.000  C
  C9       1.0000 0.51370  0.00503  0.30774  Biso   1.000  C
  C10      1.0000 0.44570  0.87771  0.20958  Biso   1.000  C
  C11      1.0000 0.72530  0.45657  0.45486  Biso   1.000  C
  C12      1.0000 0.84780  0.71114  0.52692  Biso   1.000  C
  C13      1.0000 0.04810  0.29541  0.19498  Biso   1.000  C
  C14      1.0000 0.94190  0.08752  0.29016  Biso   1.000  C
  C15      1.0000 0.04600  0.29953  0.07214  Biso   1.000  C
  C16      1.0000 0.93710  0.08438  0.17324  Biso   1.000  C
  C17      1.0000 0.98900  0.19295  0.05850  Biso   1.000  C
  C18      1.0000 0.98320  0.19530  0.92780  Biso   1.000  C
  C19      1.0000 0.01560  0.31599  0.81122  Biso   1.000  C
  C20      1.0000 0.94670  0.07997  0.91466  Biso   1.000  C
  C21      1.0000 0.01370  0.31277  0.69226  Biso   1.000  C
  C22      1.0000 0.94570  0.08729  0.79042  Biso   1.000  C
  C23      1.0000 0.22530  0.91143  0.54514  Biso   1.000  C
  C24      1.0000 0.34780  0.23806  0.47308  Biso   1.000  C
  N1       1.0000 0.49650  0.49661  0.69578  Biso   1.000  N
  N2       1.0000 0.48080  0.87971  0.32038  Biso   1.000  N
  N3       1.0000 0.99650  0.19239  0.30422  Biso   1.000  N
  N4       1.0000 0.98080  0.20009  0.67962  Biso   1.000  N
  O1       1.0000 0.63880  0.58271  0.40498  Biso   1.000  O
  O2       1.0000 0.84050  0.40799  0.39662  Biso   1.000  O
  O3       1.0000 0.69970  0.72901  0.56778  Biso   1.000  O
  O4       1.0000 0.97500  0.71169  0.57662  Biso   1.000  O
  O5       1.0000 0.26680  0.64911  0.46298  Biso   1.000  O
  O6       1.0000 0.13880  0.98769  0.59502  Biso   1.000  O
  O7       1.0000 0.34050  0.80461  0.60338  Biso   1.000  O
  O8       1.0000 0.19970  0.29679  0.43222  Biso   1.000  O
  O9       1.0000 0.47500  0.28831  0.42338  Biso   1.000  O
  O10      1.0000 0.76680  0.11209  0.53702  Biso   1.000  O
