data_image0
_cell_length_a       8.1405
_cell_length_b       10.5245
_cell_length_c       11.4295
_cell_angle_alpha    62.5864
_cell_angle_beta     84.3939
_cell_angle_gamma    77.75

_symmetry_space_group_name_H-M    P 1
_symmetry_int_tables_number       1

loop_
  _symmetry_equiv_pos_as_xyz
  'x, y, z'

loop_
  _atom_site_label
  _atom_site_occupancy
  _atom_site_fract_x
  _atom_site_fract_y
  _atom_site_fract_z
  _atom_site_thermal_displace_type
  _atom_site_B_iso_or_equiv
  _atom_site_type_symbol
  Co1      1.0000 0.62792  0.20032  0.50748  Biso   1.000  Co
  Co2      1.0000 0.12792  0.70780  0.49252  Biso   1.000  Co
  H1       1.0000 0.54170  0.88980  0.63300  Biso   1.000  H
  H2       1.0000 0.72660  0.08410  0.79860  Biso   1.000  H
  H3       1.0000 0.55910  0.30430  0.21420  Biso   1.000  H
  H4       1.0000 0.53840  0.68830  0.82940  Biso   1.000  H
  H5       1.0000 0.67810  0.72580  0.18540  Biso   1.000  H
  H6       1.0000 0.56320  0.49650  0.01000  Biso   1.000  H
  H7       1.0000 0.67480  0.52120  0.38480  Biso   1.000  H
  H8       1.0000 0.72220  0.88710  0.00220  Biso   1.000  H
  H9       1.0000 0.85600  0.90400  0.54000  Biso   1.000  H
  H10      1.0000 0.98900  0.20700  0.44800  Biso   1.000  H
  H11      1.0000 0.40100  0.15200  0.38800  Biso   1.000  H
  H12      1.0000 0.35100  0.17100  0.48800  Biso   1.000  H
  H13      1.0000 0.04170  0.52280  0.36700  Biso   1.000  H
  H14      1.0000 0.22660  0.88270  0.20140  Biso   1.000  H
  H15      1.0000 0.05910  0.51850  0.78580  Biso   1.000  H
  H16      1.0000 0.03840  0.51770  0.17060  Biso   1.000  H
  H17      1.0000 0.17810  0.91120  0.81460  Biso   1.000  H
  H18      1.0000 0.06320  0.50650  0.99000  Biso   1.000  H
  H19      1.0000 0.17480  0.90600  0.61520  Biso   1.000  H
  H20      1.0000 0.22220  0.88930  0.99780  Biso   1.000  H
  H21      1.0000 0.35600  0.44400  0.46000  Biso   1.000  H
  H22      1.0000 0.48900  0.65500  0.55200  Biso   1.000  H
  H23      1.0000 0.90100  0.54000  0.61200  Biso   1.000  H
  H24      1.0000 0.85100  0.65900  0.51200  Biso   1.000  H
  C1       1.0000 0.57980  0.88950  0.70920  Biso   1.000  C
  C2       1.0000 0.68630  0.00290  0.80480  Biso   1.000  C
  C3       1.0000 0.62760  0.76330  0.94140  Biso   1.000  C
  C4       1.0000 0.62100  0.63570  0.07220  Biso   1.000  C
  C5       1.0000 0.58520  0.39090  0.20820  Biso   1.000  C
  C6       1.0000 0.57630  0.76930  0.82620  Biso   1.000  C
  C7       1.0000 0.65420  0.63990  0.18820  Biso   1.000  C
  C8       1.0000 0.58610  0.50540  0.08560  Biso   1.000  C
  C9       1.0000 0.65150  0.51680  0.30700  Biso   1.000  C
  C10      1.0000 0.68440  0.88500  0.92720  Biso   1.000  C
  C11      1.0000 0.86510  0.96770  0.45520  Biso   1.000  C
  C12      1.0000 0.98730  0.22450  0.52640  Biso   1.000  C
  C13      1.0000 0.07980  0.59870  0.29080  Biso   1.000  C
  C14      1.0000 0.18630  0.80770  0.19520  Biso   1.000  C
  C15      1.0000 0.12760  0.70470  0.05860  Biso   1.000  C
  C16      1.0000 0.12100  0.70790  0.92780  Biso   1.000  C
  C17      1.0000 0.08520  0.59910  0.79180  Biso   1.000  C
  C18      1.0000 0.07630  0.59550  0.17380  Biso   1.000  C
  C19      1.0000 0.15420  0.82810  0.81180  Biso   1.000  C
  C20      1.0000 0.08610  0.59100  0.91440  Biso   1.000  C
  C21      1.0000 0.15150  0.82380  0.69300  Biso   1.000  C
  C22      1.0000 0.18440  0.81220  0.07280  Biso   1.000  C
  C23      1.0000 0.36510  0.42290  0.54480  Biso   1.000  C
  C24      1.0000 0.48730  0.75090  0.47360  Biso   1.000  C
  N1       1.0000 0.63430  0.00930  0.69380  Biso   1.000  N
  N2       1.0000 0.61790  0.39120  0.31980  Biso   1.000  N
  N3       1.0000 0.13430  0.70310  0.30620  Biso   1.000  N
  N4       1.0000 0.11790  0.71100  0.68020  Biso   1.000  N
  O1       1.0000 0.77740  0.09360  0.40520  Biso   1.000  O
  O2       1.0000 0.83750  0.24160  0.56680  Biso   1.000  O
  O3       1.0000 0.40830  0.16140  0.46260  Biso   1.000  O
  O4       1.0000 0.97890  0.91883  0.39714  Biso   1.000  O
  O5       1.0000 0.11290  0.22280  0.57680  Biso   1.000  O
  O6       1.0000 0.27740  0.49880  0.59480  Biso   1.000  O
  O7       1.0000 0.33750  0.80840  0.43320  Biso   1.000  O
  O8       1.0000 0.90830  0.62400  0.53740  Biso   1.000  O
  O9       1.0000 0.47890  0.31597  0.60286  Biso   1.000  O
  O10      1.0000 0.61290  0.79960  0.42320  Biso   1.000  O
