data_image0
_cell_length_a       8.1405
_cell_length_b       10.5032
_cell_length_c       11.3336
_cell_angle_alpha    62.3956
_cell_angle_beta     84.1732
_cell_angle_gamma    77.344

_symmetry_space_group_name_H-M    P 1
_symmetry_int_tables_number       1

loop_
  _symmetry_equiv_pos_as_xyz
  'x, y, z'

loop_
  _atom_site_label
  _atom_site_occupancy
  _atom_site_fract_x
  _atom_site_fract_y
  _atom_site_fract_z
  _atom_site_thermal_displace_type
  _atom_site_B_iso_or_equiv
  _atom_site_type_symbol
  Ni1      1.0000 0.81820  0.94826  0.50648  Biso   1.000  Ni
  Ni2      1.0000 0.31820  0.45474  0.49352  Biso   1.000  Ni
  H1       1.0000 0.73600  0.74600  0.37600  Biso   1.000  H
  H2       1.0000 0.09800  0.75700  0.44000  Biso   1.000  H
  H3       1.0000 0.76200  0.73900  0.19000  Biso   1.000  H
  H4       1.0000 0.72700  0.79800  0.96600  Biso   1.000  H
  H5       1.0000 0.91500  0.15100  0.21600  Biso   1.000  H
  H6       1.0000 0.73900  0.81000  0.78000  Biso   1.000  H
  H7       1.0000 0.47300  0.98600  0.44800  Biso   1.000  H
  H8       1.0000 0.86800  0.17000  0.99800  Biso   1.000  H
  H9       1.0000 0.86200  0.12800  0.62200  Biso   1.000  H
  H10      1.0000 0.02300  0.00500  0.52200  Biso   1.000  H
  H11      1.0000 0.06300  0.10300  0.39400  Biso   1.000  H
  H12      1.0000 0.90500  0.10300  0.81800  Biso   1.000  H
  H13      1.0000 0.23600  0.12200  0.62400  Biso   1.000  H
  H14      1.0000 0.59800  0.19700  0.56000  Biso   1.000  H
  H15      1.0000 0.26200  0.92900  0.81000  Biso   1.000  H
  H16      1.0000 0.22700  0.76400  0.03400  Biso   1.000  H
  H17      1.0000 0.41500  0.36700  0.78400  Biso   1.000  H
  H18      1.0000 0.23900  0.59000  0.22000  Biso   1.000  H
  H19      1.0000 0.97300  0.43400  0.55200  Biso   1.000  H
  H20      1.0000 0.36800  0.16800  0.00200  Biso   1.000  H
  H21      1.0000 0.36200  0.75000  0.37800  Biso   1.000  H
  H22      1.0000 0.52300  0.52700  0.47800  Biso   1.000  H
  H23      1.0000 0.56300  0.49700  0.60600  Biso   1.000  H
  H24      1.0000 0.40500  0.92100  0.18200  Biso   1.000  H
  C1       1.0000 0.81620  0.95110  0.94060  Biso   1.000  C
  C2       1.0000 0.82110  0.94690  0.07360  Biso   1.000  C
  C3       1.0000 0.78970  0.83540  0.30940  Biso   1.000  C
  C4       1.0000 0.78620  0.82590  0.19000  Biso   1.000  C
  C5       1.0000 0.86120  0.06480  0.08480  Biso   1.000  C
  C6       1.0000 0.76400  0.84550  0.92500  Biso   1.000  C
  C7       1.0000 0.86150  0.05670  0.20940  Biso   1.000  C
  C8       1.0000 0.46100  0.90890  0.52520  Biso   1.000  C
  C9       1.0000 0.07980  0.68990  0.54180  Biso   1.000  C
  C10      1.0000 0.86400  0.05980  0.82380  Biso   1.000  C
  C11      1.0000 0.75900  0.84750  0.80400  Biso   1.000  C
  C12      1.0000 0.86230  0.06010  0.70500  Biso   1.000  C
  C13      1.0000 0.31620  0.89170  0.05940  Biso   1.000  C
  C14      1.0000 0.32110  0.02050  0.92640  Biso   1.000  C
  C15      1.0000 0.28970  0.14480  0.69060  Biso   1.000  C
  C16      1.0000 0.28620  0.01590  0.81000  Biso   1.000  C
  C17      1.0000 0.36120  0.14960  0.91520  Biso   1.000  C
  C18      1.0000 0.26400  0.77050  0.07500  Biso   1.000  C
  C19      1.0000 0.36150  0.26610  0.79060  Biso   1.000  C
  C20      1.0000 0.96100  0.43410  0.47480  Biso   1.000  C
  C21      1.0000 0.57980  0.23170  0.45820  Biso   1.000  C
  C22      1.0000 0.36400  0.88360  0.17620  Biso   1.000  C
  C23      1.0000 0.25900  0.65150  0.19600  Biso   1.000  C
  C24      1.0000 0.36230  0.76510  0.29500  Biso   1.000  C
  N1       1.0000 0.82460  0.94550  0.32380  Biso   1.000  N
  N2       1.0000 0.81190  0.95370  0.69220  Biso   1.000  N
  N3       1.0000 0.32460  0.26930  0.67620  Biso   1.000  N
  N4       1.0000 0.31190  0.64590  0.30780  Biso   1.000  N
  O1       1.0000 0.96360  0.73800  0.60060  Biso   1.000  O
  O2       1.0000 0.16750  0.56430  0.59360  Biso   1.000  O
  O3       1.0000 0.03740  0.03200  0.46120  Biso   1.000  O
  O4       1.0000 0.60740  0.84780  0.56980  Biso   1.000  O
  O5       1.0000 0.33430  0.85530  0.57480  Biso   1.000  O
  O6       1.0000 0.46360  0.33860  0.39940  Biso   1.000  O
  O7       1.0000 0.66750  0.15790  0.40640  Biso   1.000  O
  O8       1.0000 0.53740  0.49320  0.53880  Biso   1.000  O
  O9       1.0000 0.10740  0.41760  0.43020  Biso   1.000  O
  O10      1.0000 0.83430  0.43010  0.42520  Biso   1.000  O
