data_image0
_cell_length_a       8.1266
_cell_length_b       10.4815
_cell_length_c       11.3167
_cell_angle_alpha    62.4127
_cell_angle_beta     84.187
_cell_angle_gamma    77.367

_symmetry_space_group_name_H-M    P 1
_symmetry_int_tables_number       1

loop_
  _symmetry_equiv_pos_as_xyz
  'x, y, z'

loop_
  _atom_site_label
  _atom_site_occupancy
  _atom_site_fract_x
  _atom_site_fract_y
  _atom_site_fract_z
  _atom_site_thermal_displace_type
  _atom_site_B_iso_or_equiv
  _atom_site_type_symbol
  Ni1      1.0000 0.48977  0.68815  0.50778  Biso   1.000  Ni
  Ni2      1.0000 0.98977  0.19593  0.49222  Biso   1.000  Ni
  H1       1.0000 0.60000  0.57310  0.78980  Biso   1.000  H
  H2       1.0000 0.41500  0.38130  0.62740  Biso   1.000  H
  H3       1.0000 0.60600  0.37440  0.99920  Biso   1.000  H
  H4       1.0000 0.40080  0.17890  0.82740  Biso   1.000  H
  H5       1.0000 0.52800  0.22080  0.19040  Biso   1.000  H
  H6       1.0000 0.41800  0.98610  0.00980  Biso   1.000  H
  H7       1.0000 0.55500  0.99450  0.39500  Biso   1.000  H
  H8       1.0000 0.42500  0.77600  0.21800  Biso   1.000  H
  H9       1.0000 0.70900  0.38130  0.55940  Biso   1.000  H
  H10      1.0000 0.85200  0.69840  0.43920  Biso   1.000  H
  H11      1.0000 0.16200  0.67500  0.49800  Biso   1.000  H
  H12      1.0000 0.25500  0.63340  0.39320  Biso   1.000  H
  H13      1.0000 0.10000  0.36290  0.21020  Biso   1.000  H
  H14      1.0000 0.91500  0.00870  0.37260  Biso   1.000  H
  H15      1.0000 0.10600  0.37360  0.00080  Biso   1.000  H
  H16      1.0000 0.90080  0.00630  0.17260  Biso   1.000  H
  H17      1.0000 0.02800  0.41120  0.80960  Biso   1.000  H
  H18      1.0000 0.91800  0.99590  0.99020  Biso   1.000  H
  H19      1.0000 0.05500  0.38950  0.60500  Biso   1.000  H
  H20      1.0000 0.92500  0.99400  0.78200  Biso   1.000  H
  H21      1.0000 0.20900  0.94070  0.44060  Biso   1.000  H
  H22      1.0000 0.35200  0.13760  0.56080  Biso   1.000  H
  H23      1.0000 0.66200  0.17300  0.50200  Biso   1.000  H
  H24      1.0000 0.75500  0.02660  0.60680  Biso   1.000  H
  C1       1.0000 0.54740  0.49285  0.80330  Biso   1.000  C
  C2       1.0000 0.44330  0.38129  0.70542  Biso   1.000  C
  C3       1.0000 0.54390  0.37388  0.92824  Biso   1.000  C
  C4       1.0000 0.43820  0.25805  0.82450  Biso   1.000  C
  C5       1.0000 0.48950  0.25258  0.94084  Biso   1.000  C
  C6       1.0000 0.48370  0.12307  0.07306  Biso   1.000  C
  C7       1.0000 0.51730  0.12527  0.19066  Biso   1.000  C
  C8       1.0000 0.44560  0.99354  0.08652  Biso   1.000  C
  C9       1.0000 0.51720  0.00139  0.31062  Biso   1.000  C
  C10      1.0000 0.44550  0.87555  0.21050  Biso   1.000  C
  C11      1.0000 0.72760  0.45460  0.45760  Biso   1.000  C
  C12      1.0000 0.84750  0.71077  0.52726  Biso   1.000  C
  C13      1.0000 0.04740  0.29615  0.19670  Biso   1.000  C
  C14      1.0000 0.94330  0.08671  0.29458  Biso   1.000  C
  C15      1.0000 0.04390  0.30212  0.07176  Biso   1.000  C
  C16      1.0000 0.93820  0.08255  0.17550  Biso   1.000  C
  C17      1.0000 0.98950  0.19342  0.05916  Biso   1.000  C
  C18      1.0000 0.98370  0.19613  0.92694  Biso   1.000  C
  C19      1.0000 0.01730  0.31593  0.80934  Biso   1.000  C
  C20      1.0000 0.94560  0.08006  0.91348  Biso   1.000  C
  C21      1.0000 0.01720  0.31201  0.68938  Biso   1.000  C
  C22      1.0000 0.94550  0.08605  0.78950  Biso   1.000  C
  C23      1.0000 0.22760  0.91220  0.54240  Biso   1.000  C
  C24      1.0000 0.34750  0.23803  0.47274  Biso   1.000  C
  N1       1.0000 0.49570  0.49877  0.69206  Biso   1.000  N
  N2       1.0000 0.48190  0.87540  0.32300  Biso   1.000  N
  N3       1.0000 0.99570  0.19083  0.30794  Biso   1.000  N
  N4       1.0000 0.98190  0.19840  0.67700  Biso   1.000  N
  O1       1.0000 0.63810  0.58053  0.40718  Biso   1.000  O
  O2       1.0000 0.84320  0.40619  0.39864  Biso   1.000  O
  O3       1.0000 0.69820  0.72831  0.56742  Biso   1.000  O
  O4       1.0000 0.97320  0.71453  0.57494  Biso   1.000  O
  O5       1.0000 0.26950  0.65116  0.46328  Biso   1.000  O
  O6       1.0000 0.13810  0.98771  0.59282  Biso   1.000  O
  O7       1.0000 0.34320  0.80483  0.60136  Biso   1.000  O
  O8       1.0000 0.19820  0.29573  0.43258  Biso   1.000  O
  O9       1.0000 0.47320  0.28947  0.42506  Biso   1.000  O
  O10      1.0000 0.76950  0.11444  0.53672  Biso   1.000  O
