data_image0
_cell_length_a       8.531
_cell_length_b       12.57
_cell_length_c       13.252
_cell_angle_alpha    105.078
_cell_angle_beta     90.123
_cell_angle_gamma    107.139

_symmetry_space_group_name_H-M    P 1
_symmetry_int_tables_number       1

loop_
  _symmetry_equiv_pos_as_xyz
  'x, y, z'

loop_
  _atom_site_label
  _atom_site_occupancy
  _atom_site_fract_x
  _atom_site_fract_y
  _atom_site_fract_z
  _atom_site_thermal_displace_type
  _atom_site_B_iso_or_equiv
  _atom_site_type_symbol
  Cu1      1.0000 0.49221  0.59596  0.97948  Biso   1.000  Cu
  Cu2      1.0000 0.99070  0.59489  0.56727  Biso   1.000  Cu
  Cu3      1.0000 0.50779  0.40404  0.02052  Biso   1.000  Cu
  Cu4      1.0000 0.00930  0.40511  0.43273  Biso   1.000  Cu
  H1       1.0000 0.23200  0.02540  0.02620  Biso   1.000  H
  H2       1.0000 0.44920  0.36230  0.44890  Biso   1.000  H
  H3       1.0000 0.49600  0.26290  0.48550  Biso   1.000  H
  H4       1.0000 0.48370  0.47710  0.62900  Biso   1.000  H
  H5       1.0000 0.34410  0.35530  0.61430  Biso   1.000  H
  H6       1.0000 0.68170  0.39560  0.68950  Biso   1.000  H
  H7       1.0000 0.53520  0.27960  0.68240  Biso   1.000  H
  H8       1.0000 0.05220  0.63150  0.01870  Biso   1.000  H
  H9       1.0000 0.00780  0.73350  0.10230  Biso   1.000  H
  H10      1.0000 0.01440  0.52130  0.14410  Biso   1.000  H
  H11      1.0000 0.15610  0.64260  0.18750  Biso   1.000  H
  H12      1.0000 0.82100  0.60940  0.24050  Biso   1.000  H
  H13      1.0000 0.97220  0.72280  0.29070  Biso   1.000  H
  H14      1.0000 0.40010  0.81940  0.07990  Biso   1.000  H
  H15      1.0000 0.25850  0.93430  0.84820  Biso   1.000  H
  H16      1.0000 0.33360  0.79260  0.72850  Biso   1.000  H
  H17      1.0000 0.44120  0.67050  0.78680  Biso   1.000  H
  H18      1.0000 0.12720  0.01960  0.32500  Biso   1.000  H
  H19      1.0000 0.04810  0.16990  0.42310  Biso   1.000  H
  H20      1.0000 0.11150  0.33290  0.20620  Biso   1.000  H
  H21      1.0000 0.21120  0.18020  0.10250  Biso   1.000  H
  H22      1.0000 0.76800  0.97460  0.97380  Biso   1.000  H
  H23      1.0000 0.55080  0.63770  0.55110  Biso   1.000  H
  H24      1.0000 0.50400  0.73710  0.51450  Biso   1.000  H
  H25      1.0000 0.51630  0.52290  0.37100  Biso   1.000  H
  H26      1.0000 0.65590  0.64470  0.38570  Biso   1.000  H
  H27      1.0000 0.31830  0.60440  0.31050  Biso   1.000  H
  H28      1.0000 0.46480  0.72040  0.31760  Biso   1.000  H
  H29      1.0000 0.94780  0.36850  0.98130  Biso   1.000  H
  H30      1.0000 0.99220  0.26650  0.89770  Biso   1.000  H
  H31      1.0000 0.98560  0.47870  0.85590  Biso   1.000  H
  H32      1.0000 0.84390  0.35740  0.81250  Biso   1.000  H
  H33      1.0000 0.17900  0.39060  0.75950  Biso   1.000  H
  H34      1.0000 0.02780  0.27720  0.70930  Biso   1.000  H
  H35      1.0000 0.59990  0.18060  0.92010  Biso   1.000  H
  H36      1.0000 0.74150  0.06570  0.15180  Biso   1.000  H
  H37      1.0000 0.66640  0.20740  0.27150  Biso   1.000  H
  H38      1.0000 0.55880  0.32950  0.21320  Biso   1.000  H
  H39      1.0000 0.87280  0.98040  0.67500  Biso   1.000  H
  H40      1.0000 0.95190  0.83010  0.57690  Biso   1.000  H
  H41      1.0000 0.88850  0.66710  0.79380  Biso   1.000  H
  H42      1.0000 0.78880  0.81980  0.89750  Biso   1.000  H
  C1       1.0000 0.69290  0.40500  0.49470  Biso   1.000  C
  C2       1.0000 0.51640  0.34750  0.50160  Biso   1.000  C
  C3       1.0000 0.46340  0.39250  0.61260  Biso   1.000  C
  C4       1.0000 0.56270  0.36470  0.69710  Biso   1.000  C
  C5       1.0000 0.53140  0.41300  0.80900  Biso   1.000  C
  C6       1.0000 0.80740  0.59310  0.04110  Biso   1.000  C
  C7       1.0000 0.98510  0.64850  0.07820  Biso   1.000  C
  C8       1.0000 0.03650  0.60620  0.16770  Biso   1.000  C
  C9       1.0000 0.94010  0.63750  0.26340  Biso   1.000  C
  C10      1.0000 0.96950  0.58620  0.35210  Biso   1.000  C
  C11      1.0000 0.38660  0.81550  0.00780  Biso   1.000  C
  C12      1.0000 0.32010  0.89360  0.98010  Biso   1.000  C
  C13      1.0000 0.30230  0.88290  0.87180  Biso   1.000  C
  C14      1.0000 0.34680  0.80030  0.80150  Biso   1.000  C
  C15      1.0000 0.41050  0.72870  0.83670  Biso   1.000  C
  C16      1.0000 0.13000  0.08410  0.29940  Biso   1.000  C
  C17      1.0000 0.18300  0.09220  0.21200  Biso   1.000  C
  C18      1.0000 0.07840  0.17260  0.35470  Biso   1.000  C
  C19      1.0000 0.11500  0.26980  0.23210  Biso   1.000  C
  C20      1.0000 0.17650  0.17900  0.17040  Biso   1.000  C
  C21      1.0000 0.25100  0.98990  0.15610  Biso   1.000  C
  C22      1.0000 0.30710  0.59500  0.50530  Biso   1.000  C
  C23      1.0000 0.48360  0.65250  0.49840  Biso   1.000  C
  C24      1.0000 0.53660  0.60750  0.38740  Biso   1.000  C
  C25      1.0000 0.43730  0.63530  0.30290  Biso   1.000  C
  C26      1.0000 0.46860  0.58700  0.19100  Biso   1.000  C
  C27      1.0000 0.19260  0.40690  0.95890  Biso   1.000  C
  C28      1.0000 0.01490  0.35150  0.92180  Biso   1.000  C
  C29      1.0000 0.96350  0.39380  0.83230  Biso   1.000  C
  C30      1.0000 0.05990  0.36250  0.73660  Biso   1.000  C
  C31      1.0000 0.03050  0.41380  0.64790  Biso   1.000  C
  C32      1.0000 0.61340  0.18450  0.99220  Biso   1.000  C
  C33      1.0000 0.67990  0.10640  0.01990  Biso   1.000  C
  C34      1.0000 0.69770  0.11710  0.12820  Biso   1.000  C
  C35      1.0000 0.65320  0.19970  0.19850  Biso   1.000  C
  C36      1.0000 0.58950  0.27130  0.16330  Biso   1.000  C
  C37      1.0000 0.87000  0.91590  0.70060  Biso   1.000  C
  C38      1.0000 0.81700  0.90780  0.78800  Biso   1.000  C
  C39      1.0000 0.92160  0.82740  0.64530  Biso   1.000  C
  C40      1.0000 0.88500  0.73020  0.76790  Biso   1.000  C
  C41      1.0000 0.82350  0.82100  0.82960  Biso   1.000  C
  C42      1.0000 0.74900  0.01010  0.84390  Biso   1.000  C
  N1       1.0000 0.43200  0.73590  0.93780  Biso   1.000  N
  N2       1.0000 0.26320  0.97660  0.05240  Biso   1.000  N
  N3       1.0000 0.06450  0.26280  0.32450  Biso   1.000  N
  N4       1.0000 0.56800  0.26410  0.06220  Biso   1.000  N
  N5       1.0000 0.73680  0.02340  0.94760  Biso   1.000  N
  N6       1.0000 0.93550  0.73720  0.67550  Biso   1.000  N
  O1       1.0000 0.75320  0.50620  0.54500  Biso   1.000  O
  O2       1.0000 0.98230  0.48560  0.32820  Biso   1.000  O
  O3       1.0000 0.52160  0.51430  0.83500  Biso   1.000  O
  O4       1.0000 0.76930  0.34410  0.43770  Biso   1.000  O
  O5       1.0000 0.74170  0.49050  0.04150  Biso   1.000  O
  O6       1.0000 0.73290  0.65390  0.01090  Biso   1.000  O
  O7       1.0000 0.52600  0.34940  0.86920  Biso   1.000  O
  O8       1.0000 0.96950  0.64830  0.44310  Biso   1.000  O
  O9       1.0000 0.30430  0.92680  0.20930  Biso   1.000  O
  O10      1.0000 0.24680  0.49380  0.45500  Biso   1.000  O
  O11      1.0000 0.01770  0.51440  0.67180  Biso   1.000  O
  O12      1.0000 0.47840  0.48570  0.16500  Biso   1.000  O
  O13      1.0000 0.23070  0.65590  0.56230  Biso   1.000  O
  O14      1.0000 0.25830  0.50950  0.95850  Biso   1.000  O
  O15      1.0000 0.26710  0.34610  0.98910  Biso   1.000  O
  O16      1.0000 0.47400  0.65060  0.13080  Biso   1.000  O
  O17      1.0000 0.03050  0.35170  0.55690  Biso   1.000  O
  O18      1.0000 0.69570  0.07320  0.79070  Biso   1.000  O
