data_image0
_cell_length_a       10.7873
_cell_length_b       22.3486
_cell_length_c       26.9072
_cell_angle_alpha    90
_cell_angle_beta     90
_cell_angle_gamma    101.173

_symmetry_space_group_name_H-M    P 1
_symmetry_int_tables_number       1

loop_
  _symmetry_equiv_pos_as_xyz
  'x, y, z'

loop_
  _atom_site_label
  _atom_site_occupancy
  _atom_site_fract_x
  _atom_site_fract_y
  _atom_site_fract_z
  _atom_site_thermal_displace_type
  _atom_site_B_iso_or_equiv
  _atom_site_type_symbol
  Co1      1.0000 0.83277  0.84114  0.34446  Biso   1.000  Co
  Co2      1.0000 0.08772  0.95301  0.39016  Biso   1.000  Co
  Co3      1.0000 0.58951  0.94473  0.14788  Biso   1.000  Co
  Co4      1.0000 0.34588  0.82344  0.10161  Biso   1.000  Co
  Co5      1.0000 0.66723  0.65886  0.84446  Biso   1.000  Co
  Co6      1.0000 0.41228  0.54699  0.89016  Biso   1.000  Co
  Co7      1.0000 0.91049  0.55527  0.64788  Biso   1.000  Co
  Co8      1.0000 0.15412  0.67656  0.60161  Biso   1.000  Co
  Co9      1.0000 0.16723  0.15886  0.65554  Biso   1.000  Co
  Co10     1.0000 0.91228  0.04699  0.60984  Biso   1.000  Co
  Co11     1.0000 0.41049  0.05527  0.85212  Biso   1.000  Co
  Co12     1.0000 0.65412  0.17656  0.89839  Biso   1.000  Co
  Co13     1.0000 0.33277  0.34114  0.15554  Biso   1.000  Co
  Co14     1.0000 0.58772  0.45301  0.10984  Biso   1.000  Co
  Co15     1.0000 0.08951  0.44473  0.35212  Biso   1.000  Co
  Co16     1.0000 0.84588  0.32344  0.39839  Biso   1.000  Co
  H1       1.0000 0.04800  0.84590  0.38460  Biso   1.000  H
  H2       1.0000 0.05400  0.85310  0.33590  Biso   1.000  H
  H3       1.0000 0.37900  0.92930  0.09550  Biso   1.000  H
  H4       1.0000 0.35700  0.92750  0.14510  Biso   1.000  H
  H5       1.0000 0.80300  0.72730  0.33240  Biso   1.000  H
  H6       1.0000 0.81800  0.73080  0.38060  Biso   1.000  H
  H7       1.0000 0.78290  0.06810  0.45940  Biso   1.000  H
  H8       1.0000 0.86920  0.24860  0.48840  Biso   1.000  H
  H9       1.0000 0.36910  0.98030  0.42130  Biso   1.000  H
  H10      1.0000 0.72450  0.99230  0.34900  Biso   1.000  H
  H11      1.0000 0.78270  0.01230  0.40270  Biso   1.000  H
  H12      1.0000 0.59190  0.00000  0.30020  Biso   1.000  H
  H13      1.0000 0.21390  0.94660  0.28930  Biso   1.000  H
  H14      1.0000 0.61800  0.51000  0.00710  Biso   1.000  H
  H15      1.0000 0.71220  0.69430  0.01390  Biso   1.000  H
  H16      1.0000 0.66000  0.59000  0.13780  Biso   1.000  H
  H17      1.0000 0.73180  0.95550  0.24600  Biso   1.000  H
  H18      1.0000 0.76800  0.19320  0.35280  Biso   1.000  H
  H19      1.0000 0.19190  0.04350  0.98140  Biso   1.000  H
  H20      1.0000 0.01880  0.94420  0.07570  Biso   1.000  H
  H21      1.0000 0.16260  0.97490  0.06380  Biso   1.000  H
  H22      1.0000 0.12320  0.13060  0.10630  Biso   1.000  H
  H23      1.0000 0.40390  0.20590  0.01960  Biso   1.000  H
  H24      1.0000 0.06690  0.79480  0.06360  Biso   1.000  H
  H25      1.0000 0.20190  0.83510  0.19810  Biso   1.000  H
  H26      1.0000 0.68920  0.84310  0.25190  Biso   1.000  H
  H27      1.0000 0.55490  0.79960  0.38560  Biso   1.000  H
  H28      1.0000 0.17890  0.77180  0.32620  Biso   1.000  H
  H29      1.0000 0.14470  0.74780  0.38150  Biso   1.000  H
  H30      1.0000 0.31390  0.78130  0.26900  Biso   1.000  H
  H31      1.0000 0.13030  0.57790  0.31980  Biso   1.000  H
  H32      1.0000 0.22590  0.69020  0.43700  Biso   1.000  H
  H33      1.0000 0.10180  0.50870  0.45450  Biso   1.000  H
  H34      1.0000 0.86650  0.98310  0.11030  Biso   1.000  H
  H35      1.0000 0.11000  0.99120  0.22530  Biso   1.000  H
  H36      1.0000 0.82320  0.79510  0.17780  Biso   1.000  H
  H37      1.0000 0.69060  0.78490  0.12120  Biso   1.000  H
  H38      1.0000 0.65340  0.75750  0.06700  Biso   1.000  H
  H39      1.0000 0.45200  0.65410  0.88460  Biso   1.000  H
  H40      1.0000 0.44600  0.64690  0.83590  Biso   1.000  H
  H41      1.0000 0.12100  0.57070  0.59550  Biso   1.000  H
  H42      1.0000 0.14300  0.57250  0.64510  Biso   1.000  H
  H43      1.0000 0.69700  0.77270  0.83240  Biso   1.000  H
  H44      1.0000 0.68200  0.76920  0.88060  Biso   1.000  H
  H45      1.0000 0.71710  0.43190  0.95940  Biso   1.000  H
  H46      1.0000 0.63080  0.25140  0.98840  Biso   1.000  H
  H47      1.0000 0.13090  0.51970  0.92130  Biso   1.000  H
  H48      1.0000 0.77550  0.50770  0.84900  Biso   1.000  H
  H49      1.0000 0.71730  0.48770  0.90270  Biso   1.000  H
  H50      1.0000 0.90810  0.50000  0.80020  Biso   1.000  H
  H51      1.0000 0.28610  0.55340  0.78930  Biso   1.000  H
  H52      1.0000 0.88200  0.99000  0.50710  Biso   1.000  H
  H53      1.0000 0.78780  0.80570  0.51390  Biso   1.000  H
  H54      1.0000 0.84000  0.91000  0.63780  Biso   1.000  H
  H55      1.0000 0.76820  0.54450  0.74600  Biso   1.000  H
  H56      1.0000 0.73200  0.30680  0.85280  Biso   1.000  H
  H57      1.0000 0.30810  0.45650  0.48140  Biso   1.000  H
  H58      1.0000 0.48120  0.55580  0.57570  Biso   1.000  H
  H59      1.0000 0.33740  0.52510  0.56380  Biso   1.000  H
  H60      1.0000 0.37680  0.36940  0.60630  Biso   1.000  H
  H61      1.0000 0.09610  0.29410  0.51960  Biso   1.000  H
  H62      1.0000 0.43310  0.70520  0.56360  Biso   1.000  H
  H63      1.0000 0.29810  0.66490  0.69810  Biso   1.000  H
  H64      1.0000 0.81080  0.65690  0.75190  Biso   1.000  H
  H65      1.0000 0.94510  0.70040  0.88560  Biso   1.000  H
  H66      1.0000 0.32110  0.72820  0.82620  Biso   1.000  H
  H67      1.0000 0.35530  0.75220  0.88150  Biso   1.000  H
  H68      1.0000 0.18610  0.71870  0.76900  Biso   1.000  H
  H69      1.0000 0.36970  0.92210  0.81980  Biso   1.000  H
  H70      1.0000 0.27410  0.80980  0.93700  Biso   1.000  H
  H71      1.0000 0.39820  0.99130  0.95450  Biso   1.000  H
  H72      1.0000 0.63350  0.51690  0.61030  Biso   1.000  H
  H73      1.0000 0.39000  0.50880  0.72530  Biso   1.000  H
  H74      1.0000 0.67680  0.70490  0.67780  Biso   1.000  H
  H75      1.0000 0.80940  0.71510  0.62120  Biso   1.000  H
  H76      1.0000 0.84660  0.74250  0.56700  Biso   1.000  H
  H77      1.0000 0.95200  0.15410  0.61540  Biso   1.000  H
  H78      1.0000 0.94600  0.14690  0.66410  Biso   1.000  H
  H79      1.0000 0.62100  0.07070  0.90450  Biso   1.000  H
  H80      1.0000 0.64300  0.07250  0.85490  Biso   1.000  H
  H81      1.0000 0.19700  0.27270  0.66760  Biso   1.000  H
  H82      1.0000 0.18200  0.26920  0.61940  Biso   1.000  H
  H83      1.0000 0.21710  0.93190  0.54060  Biso   1.000  H
  H84      1.0000 0.13080  0.75140  0.51160  Biso   1.000  H
  H85      1.0000 0.63090  0.01970  0.57870  Biso   1.000  H
  H86      1.0000 0.27550  0.00770  0.65100  Biso   1.000  H
  H87      1.0000 0.21730  0.98770  0.59730  Biso   1.000  H
  H88      1.0000 0.40810  0.00000  0.69980  Biso   1.000  H
  H89      1.0000 0.78610  0.05340  0.71070  Biso   1.000  H
  H90      1.0000 0.38200  0.49000  0.99290  Biso   1.000  H
  H91      1.0000 0.28780  0.30570  0.98610  Biso   1.000  H
  H92      1.0000 0.34000  0.41000  0.86220  Biso   1.000  H
  H93      1.0000 0.26820  0.04450  0.75400  Biso   1.000  H
  H94      1.0000 0.23200  0.80680  0.64720  Biso   1.000  H
  H95      1.0000 0.80810  0.95650  0.01860  Biso   1.000  H
  H96      1.0000 0.98120  0.05580  0.92430  Biso   1.000  H
  H97      1.0000 0.83740  0.02510  0.93620  Biso   1.000  H
  H98      1.0000 0.87680  0.86940  0.89370  Biso   1.000  H
  H99      1.0000 0.59610  0.79410  0.98040  Biso   1.000  H
  H100     1.0000 0.93310  0.20520  0.93640  Biso   1.000  H
  H101     1.0000 0.79810  0.16490  0.80190  Biso   1.000  H
  H102     1.0000 0.31080  0.15690  0.74810  Biso   1.000  H
  H103     1.0000 0.44510  0.20040  0.61440  Biso   1.000  H
  H104     1.0000 0.82110  0.22820  0.67380  Biso   1.000  H
  H105     1.0000 0.85530  0.25220  0.61850  Biso   1.000  H
  H106     1.0000 0.68610  0.21870  0.73100  Biso   1.000  H
  H107     1.0000 0.86970  0.42210  0.68020  Biso   1.000  H
  H108     1.0000 0.77410  0.30980  0.56300  Biso   1.000  H
  H109     1.0000 0.89820  0.49130  0.54550  Biso   1.000  H
  H110     1.0000 0.13350  0.01690  0.88970  Biso   1.000  H
  H111     1.0000 0.89000  0.00880  0.77470  Biso   1.000  H
  H112     1.0000 0.17680  0.20490  0.82220  Biso   1.000  H
  H113     1.0000 0.30940  0.21510  0.87880  Biso   1.000  H
  H114     1.0000 0.34660  0.24250  0.93300  Biso   1.000  H
  H115     1.0000 0.54800  0.34590  0.11540  Biso   1.000  H
  H116     1.0000 0.55400  0.35310  0.16410  Biso   1.000  H
  H117     1.0000 0.87900  0.42930  0.40450  Biso   1.000  H
  H118     1.0000 0.85700  0.42750  0.35490  Biso   1.000  H
  H119     1.0000 0.30300  0.22730  0.16760  Biso   1.000  H
  H120     1.0000 0.31800  0.23080  0.11940  Biso   1.000  H
  H121     1.0000 0.28290  0.56810  0.04060  Biso   1.000  H
  H122     1.0000 0.36920  0.74860  0.01160  Biso   1.000  H
  H123     1.0000 0.86910  0.48030  0.07870  Biso   1.000  H
  H124     1.0000 0.22450  0.49230  0.15100  Biso   1.000  H
  H125     1.0000 0.28270  0.51230  0.09730  Biso   1.000  H
  H126     1.0000 0.09190  0.50000  0.19980  Biso   1.000  H
  H127     1.0000 0.71390  0.44660  0.21070  Biso   1.000  H
  H128     1.0000 0.11800  0.01000  0.49290  Biso   1.000  H
  H129     1.0000 0.21220  0.19430  0.48610  Biso   1.000  H
  H130     1.0000 0.16000  0.09000  0.36220  Biso   1.000  H
  H131     1.0000 0.23180  0.45550  0.25400  Biso   1.000  H
  H132     1.0000 0.26800  0.69320  0.14720  Biso   1.000  H
  H133     1.0000 0.69190  0.54350  0.51860  Biso   1.000  H
  H134     1.0000 0.51880  0.44420  0.42430  Biso   1.000  H
  H135     1.0000 0.66260  0.47490  0.43620  Biso   1.000  H
  H136     1.0000 0.62320  0.63060  0.39370  Biso   1.000  H
  H137     1.0000 0.90390  0.70590  0.48040  Biso   1.000  H
  H138     1.0000 0.56690  0.29480  0.43640  Biso   1.000  H
  H139     1.0000 0.70190  0.33510  0.30190  Biso   1.000  H
  H140     1.0000 0.18920  0.34310  0.24810  Biso   1.000  H
  H141     1.0000 0.05490  0.29960  0.11440  Biso   1.000  H
  H142     1.0000 0.67890  0.27180  0.17380  Biso   1.000  H
  H143     1.0000 0.64470  0.24780  0.11850  Biso   1.000  H
  H144     1.0000 0.81390  0.28130  0.23100  Biso   1.000  H
  H145     1.0000 0.63030  0.07790  0.18020  Biso   1.000  H
  H146     1.0000 0.72590  0.19020  0.06300  Biso   1.000  H
  H147     1.0000 0.60180  0.00870  0.04550  Biso   1.000  H
  H148     1.0000 0.36650  0.48310  0.38970  Biso   1.000  H
  H149     1.0000 0.61000  0.49120  0.27470  Biso   1.000  H
  H150     1.0000 0.32320  0.29510  0.32220  Biso   1.000  H
  H151     1.0000 0.19060  0.28490  0.37880  Biso   1.000  H
  H152     1.0000 0.15340  0.25750  0.43300  Biso   1.000  H
  C1       1.0000 0.93540  0.96303  0.29950  Biso   1.000  C
  C2       1.0000 0.86760  0.14325  0.53411  Biso   1.000  C
  C3       1.0000 0.83290  0.15674  0.48196  Biso   1.000  C
  C4       1.0000 0.79440  0.10934  0.44881  Biso   1.000  C
  C5       1.0000 0.77330  0.12339  0.40005  Biso   1.000  C
  C6       1.0000 0.84330  0.21624  0.46548  Biso   1.000  C
  C7       1.0000 0.37780  0.97833  0.38628  Biso   1.000  C
  C8       1.0000 0.49780  0.99090  0.36601  Biso   1.000  C
  C9       1.0000 0.71870  0.01892  0.37799  Biso   1.000  C
  C10      1.0000 0.51090  0.98924  0.31513  Biso   1.000  C
  C11      1.0000 0.40390  0.97158  0.28623  Biso   1.000  C
  C12      1.0000 0.41480  0.96466  0.23101  Biso   1.000  C
  C13      1.0000 0.28720  0.95893  0.30923  Biso   1.000  C
  C14      1.0000 0.63716  0.54629  0.02633  Biso   1.000  C
  C15      1.0000 0.66320  0.60196  0.00151  Biso   1.000  C
  C16      1.0000 0.65129  0.60235  0.94543  Biso   1.000  C
  C17      1.0000 0.69041  0.65556  0.02951  Biso   1.000  C
  C18      1.0000 0.68450  0.65023  0.08093  Biso   1.000  C
  C19      1.0000 0.66040  0.59289  0.10258  Biso   1.000  C
  C20      1.0000 0.92340  0.97320  0.24469  Biso   1.000  C
  C21      1.0000 0.80240  0.96463  0.22426  Biso   1.000  C
  C22      1.0000 0.48968  0.82379  0.19665  Biso   1.000  C
  C23      1.0000 0.78470  0.18395  0.38628  Biso   1.000  C
  C24      1.0000 0.38600  0.12431  0.94575  Biso   1.000  C
  C25      1.0000 0.31020  0.12549  0.99271  Biso   1.000  C
  C26      1.0000 0.21150  0.07722  0.00337  Biso   1.000  C
  C27      1.0000 0.14310  0.07903  0.04609  Biso   1.000  C
  C28      1.0000 0.08420  0.98155  0.08025  Biso   1.000  C
  C29      1.0000 0.17230  0.12922  0.07721  Biso   1.000  C
  C30      1.0000 0.33530  0.17330  0.02622  Biso   1.000  C
  C31      1.0000 0.17780  0.60323  0.51030  Biso   1.000  C
  C32      1.0000 0.16630  0.59977  0.45451  Biso   1.000  C
  C33      1.0000 0.05300  0.80048  0.09800  Biso   1.000  C
  C34      1.0000 0.13160  0.82376  0.17649  Biso   1.000  C
  C35      1.0000 0.50050  0.81361  0.25165  Biso   1.000  C
  C36      1.0000 0.61930  0.82827  0.27289  Biso   1.000  C
  C37      1.0000 0.54110  0.80347  0.35099  Biso   1.000  C
  C38      1.0000 0.41840  0.78893  0.33309  Biso   1.000  C
  C39      1.0000 0.20400  0.74705  0.35354  Biso   1.000  C
  C40      1.0000 0.39660  0.79263  0.28238  Biso   1.000  C
  C41      1.0000 0.13870  0.58340  0.35468  Biso   1.000  C
  C42      1.0000 0.17730  0.64178  0.37297  Biso   1.000  C
  C43      1.0000 0.19520  0.65077  0.42375  Biso   1.000  C
  C44      1.0000 0.12390  0.54300  0.43323  Biso   1.000  C
  C45      1.0000 0.88060  0.97948  0.14493  Biso   1.000  C
  C46      1.0000 0.00340  0.98567  0.16224  Biso   1.000  C
  C47      1.0000 0.02610  0.98446  0.21275  Biso   1.000  C
  C48      1.0000 0.99650  0.82582  0.25141  Biso   1.000  C
  C49      1.0000 0.01070  0.81640  0.19622  Biso   1.000  C
  C50      1.0000 0.90690  0.80054  0.16516  Biso   1.000  C
  C51      1.0000 0.92940  0.79285  0.11516  Biso   1.000  C
  C52      1.0000 0.71240  0.75735  0.09519  Biso   1.000  C
  C53      1.0000 0.56460  0.53697  0.79950  Biso   1.000  C
  C54      1.0000 0.63240  0.35675  0.03411  Biso   1.000  C
  C55      1.0000 0.66710  0.34326  0.98196  Biso   1.000  C
  C56      1.0000 0.70560  0.39066  0.94881  Biso   1.000  C
  C57      1.0000 0.72670  0.37661  0.90005  Biso   1.000  C
  C58      1.0000 0.65670  0.28376  0.96548  Biso   1.000  C
  C59      1.0000 0.12220  0.52167  0.88628  Biso   1.000  C
  C60      1.0000 0.00220  0.50910  0.86601  Biso   1.000  C
  C61      1.0000 0.78130  0.48108  0.87799  Biso   1.000  C
  C62      1.0000 0.98910  0.51076  0.81513  Biso   1.000  C
  C63      1.0000 0.09610  0.52842  0.78623  Biso   1.000  C
  C64      1.0000 0.08520  0.53534  0.73101  Biso   1.000  C
  C65      1.0000 0.21280  0.54107  0.80923  Biso   1.000  C
  C66      1.0000 0.86284  0.95371  0.52633  Biso   1.000  C
  C67      1.0000 0.83680  0.89804  0.50151  Biso   1.000  C
  C68      1.0000 0.84871  0.89765  0.44543  Biso   1.000  C
  C69      1.0000 0.80959  0.84444  0.52951  Biso   1.000  C
  C70      1.0000 0.81550  0.84977  0.58093  Biso   1.000  C
  C71      1.0000 0.83960  0.90711  0.60258  Biso   1.000  C
  C72      1.0000 0.57660  0.52680  0.74469  Biso   1.000  C
  C73      1.0000 0.69760  0.53537  0.72426  Biso   1.000  C
  C74      1.0000 0.01032  0.67621  0.69665  Biso   1.000  C
  C75      1.0000 0.71530  0.31605  0.88628  Biso   1.000  C
  C76      1.0000 0.11400  0.37569  0.44575  Biso   1.000  C
  C77      1.0000 0.18980  0.37451  0.49271  Biso   1.000  C
  C78      1.0000 0.28850  0.42278  0.50337  Biso   1.000  C
  C79      1.0000 0.35690  0.42097  0.54609  Biso   1.000  C
  C80      1.0000 0.41580  0.51845  0.58025  Biso   1.000  C
  C81      1.0000 0.32770  0.37078  0.57721  Biso   1.000  C
  C82      1.0000 0.16470  0.32670  0.52622  Biso   1.000  C
  C83      1.0000 0.32220  0.89677  0.01030  Biso   1.000  C
  C84      1.0000 0.33370  0.90023  0.95451  Biso   1.000  C
  C85      1.0000 0.44700  0.69952  0.59800  Biso   1.000  C
  C86      1.0000 0.36840  0.67624  0.67649  Biso   1.000  C
  C87      1.0000 0.99950  0.68639  0.75165  Biso   1.000  C
  C88      1.0000 0.88070  0.67173  0.77289  Biso   1.000  C
  C89      1.0000 0.95890  0.69653  0.85099  Biso   1.000  C
  C90      1.0000 0.08160  0.71107  0.83309  Biso   1.000  C
  C91      1.0000 0.29600  0.75295  0.85354  Biso   1.000  C
  C92      1.0000 0.10340  0.70737  0.78238  Biso   1.000  C
  C93      1.0000 0.36130  0.91660  0.85468  Biso   1.000  C
  C94      1.0000 0.32270  0.85822  0.87297  Biso   1.000  C
  C95      1.0000 0.30480  0.84923  0.92375  Biso   1.000  C
  C96      1.0000 0.37610  0.95700  0.93323  Biso   1.000  C
  C97      1.0000 0.61940  0.52052  0.64493  Biso   1.000  C
  C98      1.0000 0.49660  0.51433  0.66224  Biso   1.000  C
  C99      1.0000 0.47390  0.51554  0.71275  Biso   1.000  C
  C100     1.0000 0.50350  0.67418  0.75141  Biso   1.000  C
  C101     1.0000 0.48930  0.68360  0.69622  Biso   1.000  C
  C102     1.0000 0.59310  0.69946  0.66516  Biso   1.000  C
  C103     1.0000 0.57060  0.70715  0.61516  Biso   1.000  C
  C104     1.0000 0.78760  0.74265  0.59519  Biso   1.000  C
  C105     1.0000 0.06460  0.03697  0.70050  Biso   1.000  C
  C106     1.0000 0.13240  0.85675  0.46589  Biso   1.000  C
  C107     1.0000 0.16710  0.84326  0.51804  Biso   1.000  C
  C108     1.0000 0.20560  0.89066  0.55119  Biso   1.000  C
  C109     1.0000 0.22670  0.87661  0.59995  Biso   1.000  C
  C110     1.0000 0.15670  0.78376  0.53452  Biso   1.000  C
  C111     1.0000 0.62220  0.02167  0.61372  Biso   1.000  C
  C112     1.0000 0.50220  0.00910  0.63399  Biso   1.000  C
  C113     1.0000 0.28130  0.98108  0.62201  Biso   1.000  C
  C114     1.0000 0.48910  0.01076  0.68487  Biso   1.000  C
  C115     1.0000 0.59610  0.02842  0.71377  Biso   1.000  C
  C116     1.0000 0.58520  0.03534  0.76899  Biso   1.000  C
  C117     1.0000 0.71280  0.04107  0.69077  Biso   1.000  C
  C118     1.0000 0.36284  0.45371  0.97367  Biso   1.000  C
  C119     1.0000 0.33680  0.39804  0.99849  Biso   1.000  C
  C120     1.0000 0.34871  0.39765  0.05457  Biso   1.000  C
  C121     1.0000 0.30959  0.34444  0.97049  Biso   1.000  C
  C122     1.0000 0.31550  0.34977  0.91907  Biso   1.000  C
  C123     1.0000 0.33960  0.40711  0.89742  Biso   1.000  C
  C124     1.0000 0.07660  0.02680  0.75531  Biso   1.000  C
  C125     1.0000 0.19760  0.03537  0.77574  Biso   1.000  C
  C126     1.0000 0.51032  0.17621  0.80335  Biso   1.000  C
  C127     1.0000 0.21530  0.81605  0.61372  Biso   1.000  C
  C128     1.0000 0.61400  0.87569  0.05425  Biso   1.000  C
  C129     1.0000 0.68980  0.87451  0.00729  Biso   1.000  C
  C130     1.0000 0.78850  0.92278  0.99663  Biso   1.000  C
  C131     1.0000 0.85690  0.92097  0.95391  Biso   1.000  C
  C132     1.0000 0.91580  0.01845  0.91975  Biso   1.000  C
  C133     1.0000 0.82770  0.87078  0.92279  Biso   1.000  C
  C134     1.0000 0.66470  0.82670  0.97378  Biso   1.000  C
  C135     1.0000 0.82220  0.39677  0.48970  Biso   1.000  C
  C136     1.0000 0.83370  0.40023  0.54549  Biso   1.000  C
  C137     1.0000 0.94700  0.19952  0.90200  Biso   1.000  C
  C138     1.0000 0.86840  0.17624  0.82351  Biso   1.000  C
  C139     1.0000 0.49950  0.18639  0.74835  Biso   1.000  C
  C140     1.0000 0.38070  0.17173  0.72711  Biso   1.000  C
  C141     1.0000 0.45890  0.19653  0.64901  Biso   1.000  C
  C142     1.0000 0.58160  0.21107  0.66691  Biso   1.000  C
  C143     1.0000 0.79600  0.25295  0.64646  Biso   1.000  C
  C144     1.0000 0.60340  0.20737  0.71762  Biso   1.000  C
  C145     1.0000 0.86130  0.41660  0.64532  Biso   1.000  C
  C146     1.0000 0.82270  0.35822  0.62703  Biso   1.000  C
  C147     1.0000 0.80480  0.34923  0.57625  Biso   1.000  C
  C148     1.0000 0.87610  0.45700  0.56677  Biso   1.000  C
  C149     1.0000 0.11940  0.02052  0.85507  Biso   1.000  C
  C150     1.0000 0.99660  0.01433  0.83776  Biso   1.000  C
  C151     1.0000 0.97390  0.01554  0.78725  Biso   1.000  C
  C152     1.0000 0.00350  0.17418  0.74859  Biso   1.000  C
  C153     1.0000 0.98930  0.18360  0.80378  Biso   1.000  C
  C154     1.0000 0.09310  0.19946  0.83484  Biso   1.000  C
  C155     1.0000 0.07060  0.20715  0.88484  Biso   1.000  C
  C156     1.0000 0.28760  0.24265  0.90481  Biso   1.000  C
  C157     1.0000 0.43540  0.46303  0.20050  Biso   1.000  C
  C158     1.0000 0.36760  0.64325  0.96589  Biso   1.000  C
  C159     1.0000 0.33290  0.65674  0.01804  Biso   1.000  C
  C160     1.0000 0.29440  0.60934  0.05119  Biso   1.000  C
  C161     1.0000 0.27330  0.62339  0.09995  Biso   1.000  C
  C162     1.0000 0.34330  0.71624  0.03452  Biso   1.000  C
  C163     1.0000 0.87780  0.47833  0.11372  Biso   1.000  C
  C164     1.0000 0.99780  0.49090  0.13399  Biso   1.000  C
  C165     1.0000 0.21870  0.51892  0.12201  Biso   1.000  C
  C166     1.0000 0.01090  0.48924  0.18487  Biso   1.000  C
  C167     1.0000 0.90390  0.47158  0.21377  Biso   1.000  C
  C168     1.0000 0.91480  0.46466  0.26899  Biso   1.000  C
  C169     1.0000 0.78720  0.45893  0.19077  Biso   1.000  C
  C170     1.0000 0.13716  0.04629  0.47367  Biso   1.000  C
  C171     1.0000 0.16320  0.10196  0.49849  Biso   1.000  C
  C172     1.0000 0.15129  0.10235  0.55457  Biso   1.000  C
  C173     1.0000 0.19041  0.15556  0.47049  Biso   1.000  C
  C174     1.0000 0.18450  0.15023  0.41907  Biso   1.000  C
  C175     1.0000 0.16040  0.09289  0.39742  Biso   1.000  C
  C176     1.0000 0.42340  0.47320  0.25531  Biso   1.000  C
  C177     1.0000 0.30240  0.46463  0.27574  Biso   1.000  C
  C178     1.0000 0.98968  0.32379  0.30335  Biso   1.000  C
  C179     1.0000 0.28470  0.68395  0.11372  Biso   1.000  C
  C180     1.0000 0.88600  0.62431  0.55425  Biso   1.000  C
  C181     1.0000 0.81020  0.62549  0.50729  Biso   1.000  C
  C182     1.0000 0.71150  0.57722  0.49663  Biso   1.000  C
  C183     1.0000 0.64310  0.57903  0.45391  Biso   1.000  C
  C184     1.0000 0.58420  0.48155  0.41975  Biso   1.000  C
  C185     1.0000 0.67230  0.62922  0.42279  Biso   1.000  C
  C186     1.0000 0.83530  0.67330  0.47378  Biso   1.000  C
  C187     1.0000 0.67780  0.10323  0.98970  Biso   1.000  C
  C188     1.0000 0.66630  0.09977  0.04549  Biso   1.000  C
  C189     1.0000 0.55300  0.30048  0.40200  Biso   1.000  C
  C190     1.0000 0.63160  0.32376  0.32351  Biso   1.000  C
  C191     1.0000 0.00050  0.31361  0.24835  Biso   1.000  C
  C192     1.0000 0.11930  0.32827  0.22711  Biso   1.000  C
  C193     1.0000 0.04110  0.30347  0.14901  Biso   1.000  C
  C194     1.0000 0.91840  0.28893  0.16691  Biso   1.000  C
  C195     1.0000 0.70400  0.24705  0.14646  Biso   1.000  C
  C196     1.0000 0.89660  0.29263  0.21762  Biso   1.000  C
  C197     1.0000 0.63870  0.08340  0.14532  Biso   1.000  C
  C198     1.0000 0.67730  0.14178  0.12703  Biso   1.000  C
  C199     1.0000 0.69520  0.15077  0.07625  Biso   1.000  C
  C200     1.0000 0.62390  0.04300  0.06677  Biso   1.000  C
  C201     1.0000 0.38060  0.47948  0.35507  Biso   1.000  C
  C202     1.0000 0.50340  0.48567  0.33776  Biso   1.000  C
  C203     1.0000 0.52610  0.48446  0.28725  Biso   1.000  C
  C204     1.0000 0.49650  0.32582  0.24859  Biso   1.000  C
  C205     1.0000 0.51070  0.31640  0.30378  Biso   1.000  C
  C206     1.0000 0.40690  0.30054  0.33484  Biso   1.000  C
  C207     1.0000 0.42940  0.29285  0.38484  Biso   1.000  C
  C208     1.0000 0.21240  0.25735  0.40481  Biso   1.000  C
  N1       1.0000 0.27321  0.96344  0.35840  Biso   1.000  N
  N2       1.0000 0.63774  0.54137  0.07586  Biso   1.000  N
  N3       1.0000 0.78100  0.96859  0.17575  Biso   1.000  N
  N4       1.0000 0.81832  0.22996  0.41852  Biso   1.000  N
  N5       1.0000 0.26730  0.17561  0.06752  Biso   1.000  N
  N6       1.0000 0.15339  0.81551  0.12806  Biso   1.000  N
  N7       1.0000 0.64087  0.82267  0.32159  Biso   1.000  N
  N8       1.0000 0.11273  0.53427  0.38403  Biso   1.000  N
  N9       1.0000 0.22679  0.53656  0.85840  Biso   1.000  N
  N10      1.0000 0.86226  0.95863  0.57586  Biso   1.000  N
  N11      1.0000 0.71900  0.53141  0.67575  Biso   1.000  N
  N12      1.0000 0.68168  0.27004  0.91852  Biso   1.000  N
  N13      1.0000 0.23270  0.32439  0.56752  Biso   1.000  N
  N14      1.0000 0.34661  0.68449  0.62806  Biso   1.000  N
  N15      1.0000 0.85913  0.67733  0.82159  Biso   1.000  N
  N16      1.0000 0.38727  0.96573  0.88403  Biso   1.000  N
  N17      1.0000 0.72679  0.03656  0.64160  Biso   1.000  N
  N18      1.0000 0.36226  0.45863  0.92414  Biso   1.000  N
  N19      1.0000 0.21900  0.03141  0.82425  Biso   1.000  N
  N20      1.0000 0.18168  0.77004  0.58148  Biso   1.000  N
  N21      1.0000 0.73270  0.82439  0.93248  Biso   1.000  N
  N22      1.0000 0.84661  0.18449  0.87194  Biso   1.000  N
  N23      1.0000 0.35913  0.17733  0.67841  Biso   1.000  N
  N24      1.0000 0.88727  0.46573  0.61597  Biso   1.000  N
  N25      1.0000 0.77321  0.46344  0.14160  Biso   1.000  N
  N26      1.0000 0.13774  0.04137  0.42414  Biso   1.000  N
  N27      1.0000 0.28100  0.46859  0.32425  Biso   1.000  N
  N28      1.0000 0.31832  0.72996  0.08148  Biso   1.000  N
  N29      1.0000 0.76730  0.67561  0.43248  Biso   1.000  N
  N30      1.0000 0.65339  0.31551  0.37194  Biso   1.000  N
  N31      1.0000 0.14087  0.32267  0.17841  Biso   1.000  N
  N32      1.0000 0.61273  0.03427  0.11597  Biso   1.000  N
  O1       1.0000 0.84108  0.92875  0.31912  Biso   1.000  O
  O2       1.0000 0.03450  0.98775  0.32178  Biso   1.000  O
  O3       1.0000 0.02610  0.86453  0.36144  Biso   1.000  O
  O4       1.0000 0.84556  0.08807  0.54726  Biso   1.000  O
  O5       1.0000 0.91954  0.18805  0.55987  Biso   1.000  O
  O6       1.0000 0.59674  0.00331  0.39923  Biso   1.000  O
  O7       1.0000 0.74370  0.08068  0.36271  Biso   1.000  O
  O8       1.0000 0.69800  0.69780  0.11440  Biso   1.000  O
  O9       1.0000 0.58336  0.55504  0.92752  Biso   1.000  O
  O10      1.0000 0.70578  0.64835  0.92148  Biso   1.000  O
  O11      1.0000 0.52616  0.97248  0.21393  Biso   1.000  O
  O12      1.0000 0.31557  0.95096  0.20637  Biso   1.000  O
  O13      1.0000 0.58389  0.85694  0.17658  Biso   1.000  O
  O14      1.0000 0.38965  0.79947  0.17470  Biso   1.000  O
  O15      1.0000 0.39613  0.91655  0.12253  Biso   1.000  O
  O16      1.0000 0.48107  0.16572  0.93899  Biso   1.000  O
  O17      1.0000 0.34280  0.08125  0.91671  Biso   1.000  O
  O18      1.0000 0.04342  0.03138  0.05773  Biso   1.000  O
  O19      1.0000 0.21620  0.65512  0.52988  Biso   1.000  O
  O20      1.0000 0.14565  0.55394  0.53352  Biso   1.000  O
  O21      1.0000 0.32767  0.77272  0.36902  Biso   1.000  O
  O22      1.0000 0.19566  0.68674  0.33730  Biso   1.000  O
  O23      1.0000 0.10737  0.99185  0.13151  Biso   1.000  O
  O24      1.0000 0.83495  0.75013  0.35462  Biso   1.000  O
  O25      1.0000 0.88700  0.82224  0.26840  Biso   1.000  O
  O26      1.0000 0.09741  0.83743  0.27615  Biso   1.000  O
  O27      1.0000 0.83725  0.77912  0.07890  Biso   1.000  O
  O28      1.0000 0.65892  0.57125  0.81912  Biso   1.000  O
  O29      1.0000 0.46550  0.51225  0.82178  Biso   1.000  O
  O30      1.0000 0.47390  0.63547  0.86144  Biso   1.000  O
  O31      1.0000 0.65444  0.41193  0.04726  Biso   1.000  O
  O32      1.0000 0.58046  0.31195  0.05987  Biso   1.000  O
  O33      1.0000 0.90326  0.49669  0.89923  Biso   1.000  O
  O34      1.0000 0.75630  0.41932  0.86271  Biso   1.000  O
  O35      1.0000 0.80200  0.80220  0.61440  Biso   1.000  O
  O36      1.0000 0.91664  0.94496  0.42752  Biso   1.000  O
  O37      1.0000 0.79422  0.85165  0.42148  Biso   1.000  O
  O38      1.0000 0.97384  0.52752  0.71393  Biso   1.000  O
  O39      1.0000 0.18443  0.54904  0.70637  Biso   1.000  O
  O40      1.0000 0.91611  0.64306  0.67658  Biso   1.000  O
  O41      1.0000 0.11035  0.70053  0.67470  Biso   1.000  O
  O42      1.0000 0.10387  0.58345  0.62253  Biso   1.000  O
  O43      1.0000 0.01893  0.33428  0.43899  Biso   1.000  O
  O44      1.0000 0.15720  0.41875  0.41671  Biso   1.000  O
  O45      1.0000 0.45658  0.46862  0.55773  Biso   1.000  O
  O46      1.0000 0.28380  0.84488  0.02988  Biso   1.000  O
  O47      1.0000 0.35435  0.94606  0.03352  Biso   1.000  O
  O48      1.0000 0.17233  0.72728  0.86902  Biso   1.000  O
  O49      1.0000 0.30434  0.81326  0.83730  Biso   1.000  O
  O50      1.0000 0.39263  0.50815  0.63151  Biso   1.000  O
  O51      1.0000 0.66505  0.74987  0.85462  Biso   1.000  O
  O52      1.0000 0.61300  0.67776  0.76840  Biso   1.000  O
  O53      1.0000 0.40259  0.66257  0.77615  Biso   1.000  O
  O54      1.0000 0.66275  0.72088  0.57890  Biso   1.000  O
  O55      1.0000 0.15892  0.07125  0.68088  Biso   1.000  O
  O56      1.0000 0.96550  0.01225  0.67822  Biso   1.000  O
  O57      1.0000 0.97390  0.13547  0.63856  Biso   1.000  O
  O58      1.0000 0.15444  0.91193  0.45274  Biso   1.000  O
  O59      1.0000 0.08046  0.81195  0.44013  Biso   1.000  O
  O60      1.0000 0.40326  0.99669  0.60077  Biso   1.000  O
  O61      1.0000 0.25630  0.91932  0.63729  Biso   1.000  O
  O62      1.0000 0.30200  0.30220  0.88560  Biso   1.000  O
  O63      1.0000 0.41664  0.44496  0.07248  Biso   1.000  O
  O64      1.0000 0.29422  0.35165  0.07852  Biso   1.000  O
  O65      1.0000 0.47384  0.02752  0.78607  Biso   1.000  O
  O66      1.0000 0.68443  0.04904  0.79363  Biso   1.000  O
  O67      1.0000 0.41611  0.14306  0.82342  Biso   1.000  O
  O68      1.0000 0.61035  0.20053  0.82530  Biso   1.000  O
  O69      1.0000 0.60387  0.08345  0.87747  Biso   1.000  O
  O70      1.0000 0.51893  0.83428  0.06101  Biso   1.000  O
  O71      1.0000 0.65720  0.91875  0.08329  Biso   1.000  O
  O72      1.0000 0.95658  0.96862  0.94227  Biso   1.000  O
  O73      1.0000 0.78380  0.34488  0.47012  Biso   1.000  O
  O74      1.0000 0.85435  0.44606  0.46648  Biso   1.000  O
  O75      1.0000 0.67233  0.22728  0.63098  Biso   1.000  O
  O76      1.0000 0.80434  0.31326  0.66270  Biso   1.000  O
  O77      1.0000 0.89263  0.00815  0.86849  Biso   1.000  O
  O78      1.0000 0.16505  0.24987  0.64538  Biso   1.000  O
  O79      1.0000 0.11300  0.17776  0.73160  Biso   1.000  O
  O80      1.0000 0.90259  0.16257  0.72385  Biso   1.000  O
  O81      1.0000 0.16275  0.22088  0.92110  Biso   1.000  O
  O82      1.0000 0.34108  0.42875  0.18088  Biso   1.000  O
  O83      1.0000 0.53450  0.48775  0.17822  Biso   1.000  O
  O84      1.0000 0.52610  0.36453  0.13856  Biso   1.000  O
  O85      1.0000 0.34556  0.58807  0.95274  Biso   1.000  O
  O86      1.0000 0.41954  0.68805  0.94013  Biso   1.000  O
  O87      1.0000 0.09674  0.50331  0.10077  Biso   1.000  O
  O88      1.0000 0.24370  0.58068  0.13729  Biso   1.000  O
  O89      1.0000 0.19800  0.19780  0.38560  Biso   1.000  O
  O90      1.0000 0.08336  0.05504  0.57248  Biso   1.000  O
  O91      1.0000 0.20578  0.14835  0.57852  Biso   1.000  O
  O92      1.0000 0.02616  0.47248  0.28607  Biso   1.000  O
  O93      1.0000 0.81557  0.45096  0.29363  Biso   1.000  O
  O94      1.0000 0.08389  0.35694  0.32342  Biso   1.000  O
  O95      1.0000 0.88965  0.29947  0.32530  Biso   1.000  O
  O96      1.0000 0.89613  0.41655  0.37747  Biso   1.000  O
  O97      1.0000 0.98107  0.66572  0.56101  Biso   1.000  O
  O98      1.0000 0.84280  0.58125  0.58329  Biso   1.000  O
  O99      1.0000 0.54342  0.53138  0.44227  Biso   1.000  O
  O100     1.0000 0.71620  0.15512  0.97012  Biso   1.000  O
  O101     1.0000 0.64565  0.05394  0.96648  Biso   1.000  O
  O102     1.0000 0.82767  0.27272  0.13098  Biso   1.000  O
  O103     1.0000 0.69566  0.18674  0.16270  Biso   1.000  O
  O104     1.0000 0.60737  0.49185  0.36849  Biso   1.000  O
  O105     1.0000 0.33495  0.25013  0.14538  Biso   1.000  O
  O106     1.0000 0.38700  0.32224  0.23160  Biso   1.000  O
  O107     1.0000 0.59741  0.33743  0.22385  Biso   1.000  O
  O108     1.0000 0.33725  0.27912  0.42110  Biso   1.000  O
