data_image0
_cell_length_a       13.2146
_cell_length_b       14.4265
_cell_length_c       14.4265
_cell_angle_alpha    100.82
_cell_angle_beta     92.2806
_cell_angle_gamma    92.2806

_symmetry_space_group_name_H-M    P 1
_symmetry_int_tables_number       1

loop_
  _symmetry_equiv_pos_as_xyz
  'x, y, z'

loop_
  _atom_site_label
  _atom_site_occupancy
  _atom_site_fract_x
  _atom_site_fract_y
  _atom_site_fract_z
  _atom_site_thermal_displace_type
  _atom_site_B_iso_or_equiv
  _atom_site_type_symbol
  Ni1      1.0000 0.25499  0.58944  0.02488  Biso   1.000  Ni
  Ni2      1.0000 0.24501  0.97512  0.41056  Biso   1.000  Ni
  Ni3      1.0000 0.74501  0.41056  0.97512  Biso   1.000  Ni
  Ni4      1.0000 0.75499  0.02488  0.58944  Biso   1.000  Ni
  Ni5      1.0000 0.50000  0.50000  0.00000  Biso   1.000  Ni
  Ni6      1.0000 0.00000  0.00000  0.50000  Biso   1.000  Ni
  H1       1.0000 0.08020  0.52750  0.14410  Biso   1.000  H
  H2       1.0000 0.07850  0.54610  0.87890  Biso   1.000  H
  H3       1.0000 0.38940  0.17570  0.24170  Biso   1.000  H
  H4       1.0000 0.24610  0.80950  0.06650  Biso   1.000  H
  H5       1.0000 0.43540  0.29850  0.16670  Biso   1.000  H
  H6       1.0000 0.16020  0.40270  0.20150  Biso   1.000  H
  H7       1.0000 0.11260  0.27820  0.27400  Biso   1.000  H
  H8       1.0000 0.42300  0.31470  0.74450  Biso   1.000  H
  H9       1.0000 0.13870  0.37760  0.80560  Biso   1.000  H
  H10      1.0000 0.24050  0.63610  0.24150  Biso   1.000  H
  H11      1.0000 0.41980  0.85590  0.47250  Biso   1.000  H
  H12      1.0000 0.42150  0.12110  0.45390  Biso   1.000  H
  H13      1.0000 0.11060  0.75830  0.82430  Biso   1.000  H
  H14      1.0000 0.25390  0.93350  0.19050  Biso   1.000  H
  H15      1.0000 0.06460  0.83330  0.70150  Biso   1.000  H
  H16      1.0000 0.33980  0.79850  0.59730  Biso   1.000  H
  H17      1.0000 0.38740  0.72600  0.72180  Biso   1.000  H
  H18      1.0000 0.07700  0.25550  0.68530  Biso   1.000  H
  H19      1.0000 0.36130  0.19440  0.62240  Biso   1.000  H
  H20      1.0000 0.25950  0.75850  0.36390  Biso   1.000  H
  H21      1.0000 0.91980  0.47250  0.85590  Biso   1.000  H
  H22      1.0000 0.92150  0.45390  0.12110  Biso   1.000  H
  H23      1.0000 0.61060  0.82430  0.75830  Biso   1.000  H
  H24      1.0000 0.75390  0.19050  0.93350  Biso   1.000  H
  H25      1.0000 0.56460  0.70150  0.83330  Biso   1.000  H
  H26      1.0000 0.83980  0.59730  0.79850  Biso   1.000  H
  H27      1.0000 0.88740  0.72180  0.72600  Biso   1.000  H
  H28      1.0000 0.57700  0.68530  0.25550  Biso   1.000  H
  H29      1.0000 0.86130  0.62240  0.19440  Biso   1.000  H
  H30      1.0000 0.75950  0.36390  0.75850  Biso   1.000  H
  H31      1.0000 0.58020  0.14410  0.52750  Biso   1.000  H
  H32      1.0000 0.57850  0.87890  0.54610  Biso   1.000  H
  H33      1.0000 0.88940  0.24170  0.17570  Biso   1.000  H
  H34      1.0000 0.74610  0.06650  0.80950  Biso   1.000  H
  H35      1.0000 0.93540  0.16670  0.29850  Biso   1.000  H
  H36      1.0000 0.66020  0.20150  0.40270  Biso   1.000  H
  H37      1.0000 0.61260  0.27400  0.27820  Biso   1.000  H
  H38      1.0000 0.92300  0.74450  0.31470  Biso   1.000  H
  H39      1.0000 0.63870  0.80560  0.37760  Biso   1.000  H
  H40      1.0000 0.74050  0.24150  0.63610  Biso   1.000  H
  C1       1.0000 0.04860  0.51700  0.08400  Biso   1.000  C
  C2       1.0000 0.04760  0.52780  0.92980  Biso   1.000  C
  C3       1.0000 0.34260  0.21990  0.23230  Biso   1.000  C
  C4       1.0000 0.32560  0.43350  0.86910  Biso   1.000  C
  C5       1.0000 0.33070  0.43650  0.11910  Biso   1.000  C
  C6       1.0000 0.28610  0.35630  0.78830  Biso   1.000  C
  C7       1.0000 0.30220  0.36060  0.17340  Biso   1.000  C
  C8       1.0000 0.20970  0.13160  0.30820  Biso   1.000  C
  C9       1.0000 0.24740  0.79690  0.12750  Biso   1.000  C
  C10      1.0000 0.37000  0.29390  0.18750  Biso   1.000  C
  C11      1.0000 0.24480  0.21280  0.26260  Biso   1.000  C
  C12      1.0000 0.20550  0.35640  0.20780  Biso   1.000  C
  C13      1.0000 0.17750  0.28190  0.25170  Biso   1.000  C
  C14      1.0000 0.35350  0.30270  0.73310  Biso   1.000  C
  C15      1.0000 0.18370  0.33980  0.76960  Biso   1.000  C
  C16      1.0000 0.24560  0.69690  0.22870  Biso   1.000  C
  C17      1.0000 0.45140  0.91600  0.48300  Biso   1.000  C
  C18      1.0000 0.45240  0.07020  0.47220  Biso   1.000  C
  C19      1.0000 0.15740  0.76770  0.78010  Biso   1.000  C
  C20      1.0000 0.17440  0.13090  0.56650  Biso   1.000  C
  C21      1.0000 0.16930  0.88090  0.56350  Biso   1.000  C
  C22      1.0000 0.21390  0.21170  0.64370  Biso   1.000  C
  C23      1.0000 0.19780  0.82660  0.63940  Biso   1.000  C
  C24      1.0000 0.29030  0.69180  0.86840  Biso   1.000  C
  C25      1.0000 0.25260  0.87250  0.20310  Biso   1.000  C
  C26      1.0000 0.13000  0.81250  0.70610  Biso   1.000  C
  C27      1.0000 0.25520  0.73740  0.78720  Biso   1.000  C
  C28      1.0000 0.29450  0.79220  0.64360  Biso   1.000  C
  C29      1.0000 0.32250  0.74830  0.71810  Biso   1.000  C
  C30      1.0000 0.14650  0.26690  0.69730  Biso   1.000  C
  C31      1.0000 0.31630  0.23040  0.66020  Biso   1.000  C
  C32      1.0000 0.25440  0.77130  0.30310  Biso   1.000  C
  C33      1.0000 0.95140  0.48300  0.91600  Biso   1.000  C
  C34      1.0000 0.95240  0.47220  0.07020  Biso   1.000  C
  C35      1.0000 0.65740  0.78010  0.76770  Biso   1.000  C
  C36      1.0000 0.67440  0.56650  0.13090  Biso   1.000  C
  C37      1.0000 0.66930  0.56350  0.88090  Biso   1.000  C
  C38      1.0000 0.71390  0.64370  0.21170  Biso   1.000  C
  C39      1.0000 0.69780  0.63940  0.82660  Biso   1.000  C
  C40      1.0000 0.79030  0.86840  0.69180  Biso   1.000  C
  C41      1.0000 0.75260  0.20310  0.87250  Biso   1.000  C
  C42      1.0000 0.63000  0.70610  0.81250  Biso   1.000  C
  C43      1.0000 0.75520  0.78720  0.73740  Biso   1.000  C
  C44      1.0000 0.79450  0.64360  0.79220  Biso   1.000  C
  C45      1.0000 0.82250  0.71810  0.74830  Biso   1.000  C
  C46      1.0000 0.64650  0.69730  0.26690  Biso   1.000  C
  C47      1.0000 0.81630  0.66020  0.23040  Biso   1.000  C
  C48      1.0000 0.75440  0.30310  0.77130  Biso   1.000  C
  C49      1.0000 0.54860  0.08400  0.51700  Biso   1.000  C
  C50      1.0000 0.54760  0.92980  0.52780  Biso   1.000  C
  C51      1.0000 0.84260  0.23230  0.21990  Biso   1.000  C
  C52      1.0000 0.82560  0.86910  0.43350  Biso   1.000  C
  C53      1.0000 0.83070  0.11910  0.43650  Biso   1.000  C
  C54      1.0000 0.78610  0.78830  0.35630  Biso   1.000  C
  C55      1.0000 0.80220  0.17340  0.36060  Biso   1.000  C
  C56      1.0000 0.70970  0.30820  0.13160  Biso   1.000  C
  C57      1.0000 0.74740  0.12750  0.79690  Biso   1.000  C
  C58      1.0000 0.87000  0.18750  0.29390  Biso   1.000  C
  C59      1.0000 0.74480  0.26260  0.21280  Biso   1.000  C
  C60      1.0000 0.70550  0.20780  0.35640  Biso   1.000  C
  C61      1.0000 0.67750  0.25170  0.28190  Biso   1.000  C
  C62      1.0000 0.85350  0.73310  0.30270  Biso   1.000  C
  C63      1.0000 0.68370  0.76960  0.33980  Biso   1.000  C
  C64      1.0000 0.74560  0.22870  0.69690  Biso   1.000  C
  N1       1.0000 0.24400  0.70700  0.13820  Biso   1.000  N
  N2       1.0000 0.09650  0.54500  0.01480  Biso   1.000  N
  N3       1.0000 0.25600  0.86180  0.29300  Biso   1.000  N
  N4       1.0000 0.40350  0.98520  0.45500  Biso   1.000  N
  N5       1.0000 0.75600  0.29300  0.86180  Biso   1.000  N
  N6       1.0000 0.90350  0.45500  0.98520  Biso   1.000  N
  N7       1.0000 0.74400  0.13820  0.70700  Biso   1.000  N
  N8       1.0000 0.59650  0.01480  0.54500  Biso   1.000  N
  O1       1.0000 0.26130  0.47900  0.91480  Biso   1.000  O
  O2       1.0000 0.27170  0.50350  0.12110  Biso   1.000  O
  O3       1.0000 0.27430  0.07330  0.32410  Biso   1.000  O
  O4       1.0000 0.41980  0.44300  0.88120  Biso   1.000  O
  O5       1.0000 0.41180  0.62040  0.02320  Biso   1.000  O
  O6       1.0000 0.41170  0.42640  0.07620  Biso   1.000  O
  O7       1.0000 0.11810  0.12930  0.32650  Biso   1.000  O
  O8       1.0000 0.23870  0.08520  0.52100  Biso   1.000  O
  O9       1.0000 0.22830  0.87890  0.49650  Biso   1.000  O
  O10      1.0000 0.22570  0.67590  0.92670  Biso   1.000  O
  O11      1.0000 0.08020  0.11880  0.55700  Biso   1.000  O
  O12      1.0000 0.08820  0.97680  0.37960  Biso   1.000  O
  O13      1.0000 0.08830  0.92380  0.57360  Biso   1.000  O
  O14      1.0000 0.38190  0.67350  0.87070  Biso   1.000  O
  O15      1.0000 0.73870  0.52100  0.08520  Biso   1.000  O
  O16      1.0000 0.72830  0.49650  0.87890  Biso   1.000  O
  O17      1.0000 0.72570  0.92670  0.67590  Biso   1.000  O
  O18      1.0000 0.58020  0.55700  0.11880  Biso   1.000  O
  O19      1.0000 0.58820  0.37960  0.97680  Biso   1.000  O
  O20      1.0000 0.58830  0.57360  0.92380  Biso   1.000  O
  O21      1.0000 0.88190  0.87070  0.67350  Biso   1.000  O
  O22      1.0000 0.76130  0.91480  0.47900  Biso   1.000  O
  O23      1.0000 0.77170  0.12110  0.50350  Biso   1.000  O
  O24      1.0000 0.77430  0.32410  0.07330  Biso   1.000  O
  O25      1.0000 0.91980  0.88120  0.44300  Biso   1.000  O
  O26      1.0000 0.91180  0.02320  0.62040  Biso   1.000  O
  O27      1.0000 0.91170  0.07620  0.42640  Biso   1.000  O
  O28      1.0000 0.61810  0.32650  0.12930  Biso   1.000  O
