data_image0
_cell_length_a       5.2133
_cell_length_b       18.414
_cell_length_c       28.517
_cell_angle_alpha    90
_cell_angle_beta     90
_cell_angle_gamma    90

_symmetry_space_group_name_H-M    P 1
_symmetry_int_tables_number       1

loop_
  _symmetry_equiv_pos_as_xyz
  'x, y, z'

loop_
  _atom_site_label
  _atom_site_occupancy
  _atom_site_fract_x
  _atom_site_fract_y
  _atom_site_fract_z
  _atom_site_thermal_displace_type
  _atom_site_B_iso_or_equiv
  _atom_site_type_symbol
  Cd1      1.0000 0.10212  0.67025  0.65991  Biso   1.000  Cd
  Cd2      1.0000 0.60212  0.32975  0.34009  Biso   1.000  Cd
  Cd3      1.0000 0.10212  0.17025  0.84009  Biso   1.000  Cd
  Cd4      1.0000 0.60212  0.82975  0.15991  Biso   1.000  Cd
  H1       1.0000 0.89010  0.59010  0.59740  Biso   1.000  H
  H2       1.0000 0.65020  0.60990  0.62540  Biso   1.000  H
  H3       1.0000 0.30690  0.32910  0.81810  Biso   1.000  H
  H4       1.0000 0.56350  0.37150  0.82690  Biso   1.000  H
  H5       1.0000 0.15540  0.30970  0.73650  Biso   1.000  H
  H6       1.0000 0.14530  0.35270  0.66070  Biso   1.000  H
  H7       1.0000 0.78840  0.46350  0.68290  Biso   1.000  H
  H8       1.0000 0.80700  0.41980  0.75840  Biso   1.000  H
  H9       1.0000 0.61500  0.45700  0.60370  Biso   1.000  H
  H10      1.0000 0.37690  0.40700  0.59440  Biso   1.000  H
  H11      1.0000 0.34450  0.54290  0.73190  Biso   1.000  H
  H12      1.0000 0.71550  0.64290  0.75660  Biso   1.000  H
  H13      1.0000 0.57540  0.56850  0.83360  Biso   1.000  H
  H14      1.0000 0.76180  0.50480  0.84680  Biso   1.000  H
  H15      1.0000 0.45570  0.73650  0.87350  Biso   1.000  H
  H16      1.0000 0.64610  0.73280  0.83100  Biso   1.000  H
  H17      1.0000 0.46480  0.66700  0.84180  Biso   1.000  H
  H18      1.0000 0.69240  0.80650  0.90280  Biso   1.000  H
  H19      1.0000 0.64770  0.79020  0.95610  Biso   1.000  H
  H20      1.0000 0.91340  0.82000  0.93900  Biso   1.000  H
  H21      1.0000 0.97830  0.46200  0.90030  Biso   1.000  H
  H22      1.0000 0.22450  0.49050  0.87470  Biso   1.000  H
  H23      1.0000 0.22830  0.47820  0.92910  Biso   1.000  H
  H24      1.0000 0.48370  0.58980  0.97380  Biso   1.000  H
  H25      1.0000 0.27520  0.59230  0.01340  Biso   1.000  H
  H26      1.0000 0.29670  0.52400  0.98080  Biso   1.000  H
  H27      1.0000 0.18350  0.77530  0.98380  Biso   1.000  H
  H28      1.0000 0.30460  0.70510  0.00570  Biso   1.000  H
  H29      1.0000 0.96840  0.83180  0.05550  Biso   1.000  H
  H30      1.0000 0.58940  0.66650  0.10130  Biso   1.000  H
  H31      1.0000 0.39010  0.40990  0.40260  Biso   1.000  H
  H32      1.0000 0.15020  0.39010  0.37460  Biso   1.000  H
  H33      1.0000 0.80690  0.67090  0.18190  Biso   1.000  H
  H34      1.0000 0.06350  0.62850  0.17310  Biso   1.000  H
  H35      1.0000 0.65540  0.69030  0.26350  Biso   1.000  H
  H36      1.0000 0.64530  0.64730  0.33930  Biso   1.000  H
  H37      1.0000 0.28840  0.53650  0.31710  Biso   1.000  H
  H38      1.0000 0.30700  0.58020  0.24160  Biso   1.000  H
  H39      1.0000 0.11500  0.54300  0.39630  Biso   1.000  H
  H40      1.0000 0.87690  0.59300  0.40560  Biso   1.000  H
  H41      1.0000 0.84450  0.45710  0.26810  Biso   1.000  H
  H42      1.0000 0.21550  0.35710  0.24340  Biso   1.000  H
  H43      1.0000 0.07540  0.43150  0.16640  Biso   1.000  H
  H44      1.0000 0.26180  0.49520  0.15320  Biso   1.000  H
  H45      1.0000 0.95570  0.26350  0.12650  Biso   1.000  H
  H46      1.0000 0.14610  0.26720  0.16900  Biso   1.000  H
  H47      1.0000 0.96480  0.33300  0.15820  Biso   1.000  H
  H48      1.0000 0.19240  0.19350  0.09720  Biso   1.000  H
  H49      1.0000 0.14770  0.20980  0.04390  Biso   1.000  H
  H50      1.0000 0.41340  0.18000  0.06100  Biso   1.000  H
  H51      1.0000 0.47830  0.53800  0.09970  Biso   1.000  H
  H52      1.0000 0.72450  0.50950  0.12530  Biso   1.000  H
  H53      1.0000 0.72830  0.52180  0.07090  Biso   1.000  H
  H54      1.0000 0.98370  0.41020  0.02620  Biso   1.000  H
  H55      1.0000 0.77520  0.40770  0.98660  Biso   1.000  H
  H56      1.0000 0.79670  0.47600  0.01920  Biso   1.000  H
  H57      1.0000 0.68350  0.22470  0.01620  Biso   1.000  H
  H58      1.0000 0.80460  0.29490  0.99430  Biso   1.000  H
  H59      1.0000 0.46840  0.16820  0.94450  Biso   1.000  H
  H60      1.0000 0.08940  0.33350  0.89870  Biso   1.000  H
  H61      1.0000 0.89010  0.09010  0.90260  Biso   1.000  H
  H62      1.0000 0.65020  0.10990  0.87460  Biso   1.000  H
  H63      1.0000 0.30690  0.82910  0.68190  Biso   1.000  H
  H64      1.0000 0.56350  0.87150  0.67310  Biso   1.000  H
  H65      1.0000 0.15540  0.80970  0.76350  Biso   1.000  H
  H66      1.0000 0.14530  0.85270  0.83930  Biso   1.000  H
  H67      1.0000 0.78840  0.96350  0.81710  Biso   1.000  H
  H68      1.0000 0.80700  0.91980  0.74160  Biso   1.000  H
  H69      1.0000 0.61500  0.95700  0.89630  Biso   1.000  H
  H70      1.0000 0.37690  0.90700  0.90560  Biso   1.000  H
  H71      1.0000 0.34450  0.04290  0.76810  Biso   1.000  H
  H72      1.0000 0.71550  0.14290  0.74340  Biso   1.000  H
  H73      1.0000 0.57540  0.06850  0.66640  Biso   1.000  H
  H74      1.0000 0.76180  0.00480  0.65320  Biso   1.000  H
  H75      1.0000 0.45570  0.23650  0.62650  Biso   1.000  H
  H76      1.0000 0.64610  0.23280  0.66900  Biso   1.000  H
  H77      1.0000 0.46480  0.16700  0.65820  Biso   1.000  H
  H78      1.0000 0.69240  0.30650  0.59720  Biso   1.000  H
  H79      1.0000 0.64770  0.29020  0.54390  Biso   1.000  H
  H80      1.0000 0.91340  0.32000  0.56100  Biso   1.000  H
  H81      1.0000 0.97830  0.96200  0.59970  Biso   1.000  H
  H82      1.0000 0.22450  0.99050  0.62530  Biso   1.000  H
  H83      1.0000 0.22830  0.97820  0.57090  Biso   1.000  H
  H84      1.0000 0.48370  0.08980  0.52620  Biso   1.000  H
  H85      1.0000 0.27520  0.09230  0.48660  Biso   1.000  H
  H86      1.0000 0.29670  0.02400  0.51920  Biso   1.000  H
  H87      1.0000 0.18350  0.27530  0.51620  Biso   1.000  H
  H88      1.0000 0.30460  0.20510  0.49430  Biso   1.000  H
  H89      1.0000 0.96840  0.33180  0.44450  Biso   1.000  H
  H90      1.0000 0.58940  0.16650  0.39870  Biso   1.000  H
  H91      1.0000 0.39010  0.90990  0.09740  Biso   1.000  H
  H92      1.0000 0.15020  0.89010  0.12540  Biso   1.000  H
  H93      1.0000 0.80690  0.17090  0.31810  Biso   1.000  H
  H94      1.0000 0.06350  0.12850  0.32690  Biso   1.000  H
  H95      1.0000 0.65540  0.19030  0.23650  Biso   1.000  H
  H96      1.0000 0.64530  0.14730  0.16070  Biso   1.000  H
  H97      1.0000 0.28840  0.03650  0.18290  Biso   1.000  H
  H98      1.0000 0.30700  0.08020  0.25840  Biso   1.000  H
  H99      1.0000 0.11500  0.04300  0.10370  Biso   1.000  H
  H100     1.0000 0.87690  0.09300  0.09440  Biso   1.000  H
  H101     1.0000 0.84450  0.95710  0.23190  Biso   1.000  H
  H102     1.0000 0.21550  0.85710  0.25660  Biso   1.000  H
  H103     1.0000 0.07540  0.93150  0.33360  Biso   1.000  H
  H104     1.0000 0.26180  0.99520  0.34680  Biso   1.000  H
  H105     1.0000 0.95570  0.76350  0.37350  Biso   1.000  H
  H106     1.0000 0.14610  0.76720  0.33100  Biso   1.000  H
  H107     1.0000 0.96480  0.83300  0.34180  Biso   1.000  H
  H108     1.0000 0.19240  0.69350  0.40280  Biso   1.000  H
  H109     1.0000 0.14770  0.70980  0.45610  Biso   1.000  H
  H110     1.0000 0.41340  0.68000  0.43900  Biso   1.000  H
  H111     1.0000 0.47830  0.03800  0.40030  Biso   1.000  H
  H112     1.0000 0.72450  0.00950  0.37470  Biso   1.000  H
  H113     1.0000 0.72830  0.02180  0.42910  Biso   1.000  H
  H114     1.0000 0.98370  0.91020  0.47380  Biso   1.000  H
  H115     1.0000 0.77520  0.90770  0.51340  Biso   1.000  H
  H116     1.0000 0.79670  0.97600  0.48080  Biso   1.000  H
  H117     1.0000 0.68350  0.72470  0.48380  Biso   1.000  H
  H118     1.0000 0.80460  0.79490  0.50570  Biso   1.000  H
  H119     1.0000 0.46840  0.66820  0.55550  Biso   1.000  H
  H120     1.0000 0.08940  0.83350  0.60130  Biso   1.000  H
  C1       1.0000 0.62480  0.26370  0.81190  Biso   1.000  C
  C2       1.0000 0.48190  0.33530  0.80720  Biso   1.000  C
  C3       1.0000 0.47890  0.36210  0.75620  Biso   1.000  C
  C4       1.0000 0.28290  0.34110  0.72600  Biso   1.000  C
  C5       1.0000 0.27760  0.36690  0.68060  Biso   1.000  C
  C6       1.0000 0.46730  0.41410  0.66370  Biso   1.000  C
  C7       1.0000 0.65970  0.43260  0.69350  Biso   1.000  C
  C8       1.0000 0.67050  0.40690  0.73920  Biso   1.000  C
  C9       1.0000 0.44510  0.44430  0.61490  Biso   1.000  C
  C10      1.0000 0.27290  0.51140  0.61220  Biso   1.000  C
  C11      1.0000 0.19510  0.55790  0.74690  Biso   1.000  C
  C12      1.0000 0.85720  0.61250  0.75930  Biso   1.000  C
  C13      1.0000 0.75370  0.55610  0.83900  Biso   1.000  C
  C14      1.0000 0.85560  0.60050  0.88010  Biso   1.000  C
  C15      1.0000 0.77020  0.67250  0.88730  Biso   1.000  C
  C16      1.0000 0.56500  0.70520  0.85540  Biso   1.000  C
  C17      1.0000 0.86430  0.71290  0.92390  Biso   1.000  C
  C18      1.0000 0.77100  0.78930  0.93110  Biso   1.000  C
  C19      1.0000 0.04270  0.68210  0.95420  Biso   1.000  C
  C20      1.0000 0.12430  0.61010  0.94810  Biso   1.000  C
  C21      1.0000 0.03750  0.57000  0.91050  Biso   1.000  C
  C22      1.0000 0.12500  0.49330  0.90300  Biso   1.000  C
  C23      1.0000 0.31200  0.57590  0.98210  Biso   1.000  C
  C24      1.0000 0.14580  0.72660  0.99470  Biso   1.000  C
  C25      1.0000 0.90350  0.78520  0.05990  Biso   1.000  C
  C26      1.0000 0.70110  0.69550  0.08410  Biso   1.000  C
  C27      1.0000 0.12480  0.73630  0.18810  Biso   1.000  C
  C28      1.0000 0.98190  0.66470  0.19280  Biso   1.000  C
  C29      1.0000 0.97890  0.63790  0.24380  Biso   1.000  C
  C30      1.0000 0.78290  0.65890  0.27400  Biso   1.000  C
  C31      1.0000 0.77760  0.63310  0.31940  Biso   1.000  C
  C32      1.0000 0.96730  0.58590  0.33630  Biso   1.000  C
  C33      1.0000 0.15970  0.56740  0.30650  Biso   1.000  C
  C34      1.0000 0.17050  0.59310  0.26080  Biso   1.000  C
  C35      1.0000 0.94510  0.55570  0.38510  Biso   1.000  C
  C36      1.0000 0.77290  0.48860  0.38780  Biso   1.000  C
  C37      1.0000 0.69510  0.44210  0.25310  Biso   1.000  C
  C38      1.0000 0.35720  0.38750  0.24070  Biso   1.000  C
  C39      1.0000 0.25370  0.44390  0.16100  Biso   1.000  C
  C40      1.0000 0.35560  0.39950  0.11990  Biso   1.000  C
  C41      1.0000 0.27020  0.32750  0.11270  Biso   1.000  C
  C42      1.0000 0.06500  0.29480  0.14460  Biso   1.000  C
  C43      1.0000 0.36430  0.28710  0.07610  Biso   1.000  C
  C44      1.0000 0.27100  0.21070  0.06890  Biso   1.000  C
  C45      1.0000 0.54270  0.31790  0.04580  Biso   1.000  C
  C46      1.0000 0.62430  0.38990  0.05190  Biso   1.000  C
  C47      1.0000 0.53750  0.43000  0.08950  Biso   1.000  C
  C48      1.0000 0.62500  0.50670  0.09700  Biso   1.000  C
  C49      1.0000 0.81200  0.42410  0.01790  Biso   1.000  C
  C50      1.0000 0.64580  0.27340  0.00530  Biso   1.000  C
  C51      1.0000 0.40350  0.21480  0.94010  Biso   1.000  C
  C52      1.0000 0.20110  0.30450  0.91590  Biso   1.000  C
  C53      1.0000 0.62480  0.76370  0.68810  Biso   1.000  C
  C54      1.0000 0.48190  0.83530  0.69280  Biso   1.000  C
  C55      1.0000 0.47890  0.86210  0.74380  Biso   1.000  C
  C56      1.0000 0.28290  0.84110  0.77400  Biso   1.000  C
  C57      1.0000 0.27760  0.86690  0.81940  Biso   1.000  C
  C58      1.0000 0.46730  0.91410  0.83630  Biso   1.000  C
  C59      1.0000 0.65970  0.93260  0.80650  Biso   1.000  C
  C60      1.0000 0.67050  0.90690  0.76080  Biso   1.000  C
  C61      1.0000 0.44510  0.94430  0.88510  Biso   1.000  C
  C62      1.0000 0.27290  0.01140  0.88780  Biso   1.000  C
  C63      1.0000 0.19510  0.05790  0.75310  Biso   1.000  C
  C64      1.0000 0.85720  0.11250  0.74070  Biso   1.000  C
  C65      1.0000 0.75370  0.05610  0.66100  Biso   1.000  C
  C66      1.0000 0.85560  0.10050  0.61990  Biso   1.000  C
  C67      1.0000 0.77020  0.17250  0.61270  Biso   1.000  C
  C68      1.0000 0.56500  0.20520  0.64460  Biso   1.000  C
  C69      1.0000 0.86430  0.21290  0.57610  Biso   1.000  C
  C70      1.0000 0.77100  0.28930  0.56890  Biso   1.000  C
  C71      1.0000 0.04270  0.18210  0.54580  Biso   1.000  C
  C72      1.0000 0.12430  0.11010  0.55190  Biso   1.000  C
  C73      1.0000 0.03750  0.07000  0.58950  Biso   1.000  C
  C74      1.0000 0.12500  0.99330  0.59700  Biso   1.000  C
  C75      1.0000 0.31200  0.07590  0.51790  Biso   1.000  C
  C76      1.0000 0.14580  0.22660  0.50530  Biso   1.000  C
  C77      1.0000 0.90350  0.28520  0.44010  Biso   1.000  C
  C78      1.0000 0.70110  0.19550  0.41590  Biso   1.000  C
  C79      1.0000 0.12480  0.23630  0.31190  Biso   1.000  C
  C80      1.0000 0.98190  0.16470  0.30720  Biso   1.000  C
  C81      1.0000 0.97890  0.13790  0.25620  Biso   1.000  C
  C82      1.0000 0.78290  0.15890  0.22600  Biso   1.000  C
  C83      1.0000 0.77760  0.13310  0.18060  Biso   1.000  C
  C84      1.0000 0.96730  0.08590  0.16370  Biso   1.000  C
  C85      1.0000 0.15970  0.06740  0.19350  Biso   1.000  C
  C86      1.0000 0.17050  0.09310  0.23920  Biso   1.000  C
  C87      1.0000 0.94510  0.05570  0.11490  Biso   1.000  C
  C88      1.0000 0.77290  0.98860  0.11220  Biso   1.000  C
  C89      1.0000 0.69510  0.94210  0.24690  Biso   1.000  C
  C90      1.0000 0.35720  0.88750  0.25930  Biso   1.000  C
  C91      1.0000 0.25370  0.94390  0.33900  Biso   1.000  C
  C92      1.0000 0.35560  0.89950  0.38010  Biso   1.000  C
  C93      1.0000 0.27020  0.82750  0.38730  Biso   1.000  C
  C94      1.0000 0.06500  0.79480  0.35540  Biso   1.000  C
  C95      1.0000 0.36430  0.78710  0.42390  Biso   1.000  C
  C96      1.0000 0.27100  0.71070  0.43110  Biso   1.000  C
  C97      1.0000 0.54270  0.81790  0.45420  Biso   1.000  C
  C98      1.0000 0.62430  0.88990  0.44810  Biso   1.000  C
  C99      1.0000 0.53750  0.93000  0.41050  Biso   1.000  C
  C100     1.0000 0.62500  0.00670  0.40300  Biso   1.000  C
  C101     1.0000 0.81200  0.92410  0.48210  Biso   1.000  C
  C102     1.0000 0.64580  0.77340  0.49470  Biso   1.000  C
  C103     1.0000 0.40350  0.71480  0.55990  Biso   1.000  C
  C104     1.0000 0.20110  0.80450  0.58410  Biso   1.000  C
  N1       1.0000 0.74030  0.76710  0.09378  Biso   1.000  N
  N2       1.0000 0.96070  0.73020  0.03380  Biso   1.000  N
  N3       1.0000 0.83270  0.67110  0.04890  Biso   1.000  N
  N4       1.0000 0.90290  0.56950  0.79590  Biso   1.000  N
  N5       1.0000 0.12820  0.53270  0.78794  Biso   1.000  N
  N6       1.0000 0.03660  0.60660  0.72749  Biso   1.000  N
  N7       1.0000 0.24030  0.23290  0.90622  Biso   1.000  N
  N8       1.0000 0.46070  0.26980  0.96620  Biso   1.000  N
  N9       1.0000 0.33270  0.32890  0.95110  Biso   1.000  N
  N10      1.0000 0.40290  0.43050  0.20410  Biso   1.000  N
  N11      1.0000 0.62820  0.46730  0.21206  Biso   1.000  N
  N12      1.0000 0.53660  0.39340  0.27251  Biso   1.000  N
  N13      1.0000 0.74030  0.26710  0.40622  Biso   1.000  N
  N14      1.0000 0.96070  0.23020  0.46620  Biso   1.000  N
  N15      1.0000 0.83270  0.17110  0.45110  Biso   1.000  N
  N16      1.0000 0.90290  0.06950  0.70410  Biso   1.000  N
  N17      1.0000 0.12820  0.03270  0.71206  Biso   1.000  N
  N18      1.0000 0.03660  0.10660  0.77251  Biso   1.000  N
  N19      1.0000 0.24030  0.73290  0.59378  Biso   1.000  N
  N20      1.0000 0.46070  0.76980  0.53380  Biso   1.000  N
  N21      1.0000 0.33270  0.82890  0.54890  Biso   1.000  N
  N22      1.0000 0.40290  0.93050  0.29590  Biso   1.000  N
  N23      1.0000 0.62820  0.96730  0.28794  Biso   1.000  N
  N24      1.0000 0.53660  0.89340  0.22749  Biso   1.000  N
  O1       1.0000 0.08380  0.50820  0.58620  Biso   1.000  O
  O2       1.0000 0.32840  0.56430  0.63747  Biso   1.000  O
  O3       1.0000 0.79550  0.61870  0.61317  Biso   1.000  O
  O4       1.0000 0.86090  0.26760  0.81900  Biso   1.000  O
  O5       1.0000 0.50050  0.20500  0.80820  Biso   1.000  O
  O6       1.0000 0.58380  0.49180  0.41380  Biso   1.000  O
  O7       1.0000 0.82840  0.43570  0.36253  Biso   1.000  O
  O8       1.0000 0.29550  0.38130  0.38683  Biso   1.000  O
  O9       1.0000 0.36090  0.73240  0.18100  Biso   1.000  O
  O10      1.0000 0.00050  0.79500  0.19180  Biso   1.000  O
  O11      1.0000 0.08380  0.00820  0.91380  Biso   1.000  O
  O12      1.0000 0.32840  0.06430  0.86253  Biso   1.000  O
  O13      1.0000 0.79550  0.11870  0.88683  Biso   1.000  O
  O14      1.0000 0.86090  0.76760  0.68100  Biso   1.000  O
  O15      1.0000 0.50050  0.70500  0.69180  Biso   1.000  O
  O16      1.0000 0.58380  0.99180  0.08620  Biso   1.000  O
  O17      1.0000 0.82840  0.93570  0.13747  Biso   1.000  O
  O18      1.0000 0.29550  0.88130  0.11317  Biso   1.000  O
  O19      1.0000 0.36090  0.23240  0.31900  Biso   1.000  O
  O20      1.0000 0.00050  0.29500  0.30820  Biso   1.000  O
