data_image0
_cell_length_a       15.2605
_cell_length_b       17.7374
_cell_length_c       18.2635
_cell_angle_alpha    113.071
_cell_angle_beta     90
_cell_angle_gamma    90

_symmetry_space_group_name_H-M    P 1
_symmetry_int_tables_number       1

loop_
  _symmetry_equiv_pos_as_xyz
  'x, y, z'

loop_
  _atom_site_label
  _atom_site_occupancy
  _atom_site_fract_x
  _atom_site_fract_y
  _atom_site_fract_z
  _atom_site_thermal_displace_type
  _atom_site_B_iso_or_equiv
  _atom_site_type_symbol
  Zn1      1.0000 0.49540  0.50025  0.83424  Biso   1.000  Zn
  Zn2      1.0000 0.09639  0.00199  0.16618  Biso   1.000  Zn
  Zn3      1.0000 0.59603  0.49773  0.99521  Biso   1.000  Zn
  Zn4      1.0000 0.90684  0.99805  0.16714  Biso   1.000  Zn
  Zn5      1.0000 0.99540  0.99975  0.66576  Biso   1.000  Zn
  Zn6      1.0000 0.59639  0.49801  0.33382  Biso   1.000  Zn
  Zn7      1.0000 0.09603  0.00227  0.50479  Biso   1.000  Zn
  Zn8      1.0000 0.40684  0.50195  0.33286  Biso   1.000  Zn
  Zn9      1.0000 0.50460  0.49975  0.16576  Biso   1.000  Zn
  Zn10     1.0000 0.90361  0.99801  0.83382  Biso   1.000  Zn
  Zn11     1.0000 0.40397  0.50227  0.00479  Biso   1.000  Zn
  Zn12     1.0000 0.09316  0.00195  0.83286  Biso   1.000  Zn
  Zn13     1.0000 0.00460  0.00025  0.33424  Biso   1.000  Zn
  Zn14     1.0000 0.40361  0.50199  0.66618  Biso   1.000  Zn
  Zn15     1.0000 0.90397  0.99773  0.49521  Biso   1.000  Zn
  Zn16     1.0000 0.59316  0.49805  0.66714  Biso   1.000  Zn
  Zn17     1.0000 0.00000  0.00000  0.00000  Biso   1.000  Zn
  Zn18     1.0000 0.50000  0.50000  0.50000  Biso   1.000  Zn
  H1       1.0000 0.49510  0.39280  0.68810  Biso   1.000  H
  H2       1.0000 0.49990  0.60760  0.97990  Biso   1.000  H
  H3       1.0000 0.99720  0.10700  0.14540  Biso   1.000  H
  H4       1.0000 0.82440  0.16770  0.79800  Biso   1.000  H
  H5       1.0000 0.74820  0.28090  0.88030  Biso   1.000  H
  H6       1.0000 0.60620  0.27810  0.69430  Biso   1.000  H
  H7       1.0000 0.68790  0.16790  0.61060  Biso   1.000  H
  H8       1.0000 0.11950  0.78250  0.87060  Biso   1.000  H
  H9       1.0000 0.20630  0.67660  0.78710  Biso   1.000  H
  H10      1.0000 0.38170  0.72010  0.96310  Biso   1.000  H
  H11      1.0000 0.29480  0.82670  0.04670  Biso   1.000  H
  H12      1.0000 0.67720  0.66650  0.97360  Biso   1.000  H
  H13      1.0000 0.74680  0.78590  0.05470  Biso   1.000  H
  H14      1.0000 0.82330  0.82620  0.86310  Biso   1.000  H
  H15      1.0000 0.75250  0.70830  0.78190  Biso   1.000  H
  H16      1.0000 0.99510  0.10720  0.81190  Biso   1.000  H
  H17      1.0000 0.99990  0.89240  0.52010  Biso   1.000  H
  H18      1.0000 0.49720  0.39300  0.35460  Biso   1.000  H
  H19      1.0000 0.32440  0.33230  0.70200  Biso   1.000  H
  H20      1.0000 0.24820  0.21910  0.61970  Biso   1.000  H
  H21      1.0000 0.10620  0.22190  0.80570  Biso   1.000  H
  H22      1.0000 0.18790  0.33210  0.88940  Biso   1.000  H
  H23      1.0000 0.61950  0.71750  0.62940  Biso   1.000  H
  H24      1.0000 0.70630  0.82340  0.71290  Biso   1.000  H
  H25      1.0000 0.88170  0.77990  0.53690  Biso   1.000  H
  H26      1.0000 0.79480  0.67330  0.45330  Biso   1.000  H
  H27      1.0000 0.17720  0.83350  0.52640  Biso   1.000  H
  H28      1.0000 0.24680  0.71410  0.44530  Biso   1.000  H
  H29      1.0000 0.32330  0.67380  0.63690  Biso   1.000  H
  H30      1.0000 0.25250  0.79170  0.71810  Biso   1.000  H
  H31      1.0000 0.50490  0.60720  0.31190  Biso   1.000  H
  H32      1.0000 0.50010  0.39240  0.02010  Biso   1.000  H
  H33      1.0000 0.00280  0.89300  0.85460  Biso   1.000  H
  H34      1.0000 0.17560  0.83230  0.20200  Biso   1.000  H
  H35      1.0000 0.25180  0.71910  0.11970  Biso   1.000  H
  H36      1.0000 0.39380  0.72190  0.30570  Biso   1.000  H
  H37      1.0000 0.31210  0.83210  0.38940  Biso   1.000  H
  H38      1.0000 0.88050  0.21750  0.12940  Biso   1.000  H
  H39      1.0000 0.79370  0.32340  0.21290  Biso   1.000  H
  H40      1.0000 0.61830  0.27990  0.03690  Biso   1.000  H
  H41      1.0000 0.70520  0.17330  0.95330  Biso   1.000  H
  H42      1.0000 0.32280  0.33350  0.02640  Biso   1.000  H
  H43      1.0000 0.25320  0.21410  0.94530  Biso   1.000  H
  H44      1.0000 0.17670  0.17380  0.13690  Biso   1.000  H
  H45      1.0000 0.24750  0.29170  0.21810  Biso   1.000  H
  H46      1.0000 0.00490  0.89280  0.18810  Biso   1.000  H
  H47      1.0000 0.00010  0.10760  0.47990  Biso   1.000  H
  H48      1.0000 0.50280  0.60700  0.64540  Biso   1.000  H
  H49      1.0000 0.67560  0.66770  0.29800  Biso   1.000  H
  H50      1.0000 0.75180  0.78090  0.38030  Biso   1.000  H
  H51      1.0000 0.89380  0.77810  0.19430  Biso   1.000  H
  H52      1.0000 0.81210  0.66790  0.11060  Biso   1.000  H
  H53      1.0000 0.38050  0.28250  0.37060  Biso   1.000  H
  H54      1.0000 0.29370  0.17660  0.28710  Biso   1.000  H
  H55      1.0000 0.11830  0.22010  0.46310  Biso   1.000  H
  H56      1.0000 0.20520  0.32670  0.54670  Biso   1.000  H
  H57      1.0000 0.82280  0.16650  0.47360  Biso   1.000  H
  H58      1.0000 0.75320  0.28590  0.55470  Biso   1.000  H
  H59      1.0000 0.67670  0.32620  0.36310  Biso   1.000  H
  H60      1.0000 0.74750  0.20830  0.28190  Biso   1.000  H
  C1       1.0000 0.82490  0.09050  0.64220  Biso   1.000  C
  C2       1.0000 0.76630  0.15760  0.69520  Biso   1.000  C
  C3       1.0000 0.78210  0.19100  0.77670  Biso   1.000  C
  C4       1.0000 0.73590  0.25830  0.82610  Biso   1.000  C
  C5       1.0000 0.67080  0.29290  0.79560  Biso   1.000  C
  C6       1.0000 0.62390  0.36880  0.84890  Biso   1.000  C
  C7       1.0000 0.65150  0.25730  0.71490  Biso   1.000  C
  C8       1.0000 0.70000  0.19060  0.66490  Biso   1.000  C
  C9       1.0000 0.14170  0.88340  0.02120  Biso   1.000  C
  C10      1.0000 0.19850  0.81570  0.96730  Biso   1.000  C
  C11      1.0000 0.17220  0.77030  0.88910  Biso   1.000  C
  C12      1.0000 0.22420  0.70710  0.83910  Biso   1.000  C
  C13      1.0000 0.30340  0.68930  0.86660  Biso   1.000  C
  C14      1.0000 0.36000  0.62140  0.81190  Biso   1.000  C
  C15      1.0000 0.32950  0.73310  0.94440  Biso   1.000  C
  C16      1.0000 0.27710  0.79670  0.99460  Biso   1.000  C
  C17      1.0000 0.65920  0.59960  0.81650  Biso   1.000  C
  C18      1.0000 0.70710  0.67580  0.86950  Biso   1.000  C
  C19      1.0000 0.70590  0.69870  0.95140  Biso   1.000  C
  C20      1.0000 0.74810  0.77010  0.99980  Biso   1.000  C
  C21      1.0000 0.79220  0.81850  0.96780  Biso   1.000  C
  C22      1.0000 0.84110  0.89370  0.01980  Biso   1.000  C
  C23      1.0000 0.79370  0.79450  0.88540  Biso   1.000  C
  C24      1.0000 0.75140  0.72390  0.83680  Biso   1.000  C
  C25      1.0000 0.32490  0.40950  0.85780  Biso   1.000  C
  C26      1.0000 0.26630  0.34240  0.80480  Biso   1.000  C
  C27      1.0000 0.28210  0.30900  0.72330  Biso   1.000  C
  C28      1.0000 0.23590  0.24170  0.67390  Biso   1.000  C
  C29      1.0000 0.17080  0.20710  0.70440  Biso   1.000  C
  C30      1.0000 0.12390  0.13120  0.65110  Biso   1.000  C
  C31      1.0000 0.15150  0.24270  0.78510  Biso   1.000  C
  C32      1.0000 0.20000  0.30940  0.83510  Biso   1.000  C
  C33      1.0000 0.64170  0.61660  0.47880  Biso   1.000  C
  C34      1.0000 0.69850  0.68430  0.53270  Biso   1.000  C
  C35      1.0000 0.67220  0.72970  0.61090  Biso   1.000  C
  C36      1.0000 0.72420  0.79290  0.66090  Biso   1.000  C
  C37      1.0000 0.80340  0.81070  0.63340  Biso   1.000  C
  C38      1.0000 0.86000  0.87860  0.68810  Biso   1.000  C
  C39      1.0000 0.82950  0.76690  0.55560  Biso   1.000  C
  C40      1.0000 0.77710  0.70330  0.50540  Biso   1.000  C
  C41      1.0000 0.15920  0.90040  0.68350  Biso   1.000  C
  C42      1.0000 0.20710  0.82420  0.63050  Biso   1.000  C
  C43      1.0000 0.20590  0.80130  0.54860  Biso   1.000  C
  C44      1.0000 0.24810  0.72990  0.50020  Biso   1.000  C
  C45      1.0000 0.29220  0.68150  0.53220  Biso   1.000  C
  C46      1.0000 0.34110  0.60630  0.48020  Biso   1.000  C
  C47      1.0000 0.29370  0.70550  0.61460  Biso   1.000  C
  C48      1.0000 0.25140  0.77610  0.66320  Biso   1.000  C
  C49      1.0000 0.17510  0.90950  0.35780  Biso   1.000  C
  C50      1.0000 0.23370  0.84240  0.30480  Biso   1.000  C
  C51      1.0000 0.21790  0.80900  0.22330  Biso   1.000  C
  C52      1.0000 0.26410  0.74170  0.17390  Biso   1.000  C
  C53      1.0000 0.32920  0.70710  0.20440  Biso   1.000  C
  C54      1.0000 0.37610  0.63120  0.15110  Biso   1.000  C
  C55      1.0000 0.34850  0.74270  0.28510  Biso   1.000  C
  C56      1.0000 0.30000  0.80940  0.33510  Biso   1.000  C
  C57      1.0000 0.85830  0.11660  0.97880  Biso   1.000  C
  C58      1.0000 0.80150  0.18430  0.03270  Biso   1.000  C
  C59      1.0000 0.82780  0.22970  0.11090  Biso   1.000  C
  C60      1.0000 0.77580  0.29290  0.16090  Biso   1.000  C
  C61      1.0000 0.69660  0.31070  0.13340  Biso   1.000  C
  C62      1.0000 0.64000  0.37860  0.18810  Biso   1.000  C
  C63      1.0000 0.67050  0.26690  0.05560  Biso   1.000  C
  C64      1.0000 0.72290  0.20330  0.00540  Biso   1.000  C
  C65      1.0000 0.34080  0.40040  0.18350  Biso   1.000  C
  C66      1.0000 0.29290  0.32420  0.13050  Biso   1.000  C
  C67      1.0000 0.29410  0.30130  0.04860  Biso   1.000  C
  C68      1.0000 0.25190  0.22990  0.00020  Biso   1.000  C
  C69      1.0000 0.20780  0.18150  0.03220  Biso   1.000  C
  C70      1.0000 0.15890  0.10630  0.98020  Biso   1.000  C
  C71      1.0000 0.20630  0.20550  0.11460  Biso   1.000  C
  C72      1.0000 0.24860  0.27610  0.16320  Biso   1.000  C
  C73      1.0000 0.67510  0.59050  0.14220  Biso   1.000  C
  C74      1.0000 0.73370  0.65760  0.19520  Biso   1.000  C
  C75      1.0000 0.71790  0.69100  0.27670  Biso   1.000  C
  C76      1.0000 0.76410  0.75830  0.32610  Biso   1.000  C
  C77      1.0000 0.82920  0.79290  0.29560  Biso   1.000  C
  C78      1.0000 0.87610  0.86880  0.34890  Biso   1.000  C
  C79      1.0000 0.84850  0.75730  0.21490  Biso   1.000  C
  C80      1.0000 0.80000  0.69060  0.16490  Biso   1.000  C
  C81      1.0000 0.35830  0.38340  0.52120  Biso   1.000  C
  C82      1.0000 0.30150  0.31570  0.46730  Biso   1.000  C
  C83      1.0000 0.32780  0.27030  0.38910  Biso   1.000  C
  C84      1.0000 0.27580  0.20710  0.33910  Biso   1.000  C
  C85      1.0000 0.19660  0.18930  0.36660  Biso   1.000  C
  C86      1.0000 0.14000  0.12140  0.31190  Biso   1.000  C
  C87      1.0000 0.17050  0.23310  0.44440  Biso   1.000  C
  C88      1.0000 0.22290  0.29670  0.49460  Biso   1.000  C
  C89      1.0000 0.84080  0.09960  0.31650  Biso   1.000  C
  C90      1.0000 0.79290  0.17580  0.36950  Biso   1.000  C
  C91      1.0000 0.79410  0.19870  0.45140  Biso   1.000  C
  C92      1.0000 0.75190  0.27010  0.49980  Biso   1.000  C
  C93      1.0000 0.70780  0.31850  0.46780  Biso   1.000  C
  C94      1.0000 0.65890  0.39370  0.51980  Biso   1.000  C
  C95      1.0000 0.70630  0.29450  0.38540  Biso   1.000  C
  C96      1.0000 0.74860  0.22390  0.33680  Biso   1.000  C
  O1       1.0000 0.49647  0.45287  0.71131  Biso   1.000  O
  O2       1.0000 0.49819  0.54760  0.95668  Biso   1.000  O
  O3       1.0000 0.99870  0.04698  0.12214  Biso   1.000  O
  O4       1.0000 0.33035  0.58335  0.74219  Biso   1.000  O
  O5       1.0000 0.17226  0.92327  0.08997  Biso   1.000  O
  O6       1.0000 0.82353  0.07582  0.56806  Biso   1.000  O
  O7       1.0000 0.55384  0.38823  0.82539  Biso   1.000  O
  O8       1.0000 0.43229  0.60832  0.83653  Biso   1.000  O
  O9       1.0000 0.87970  0.93470  0.98914  Biso   1.000  O
  O10      1.0000 0.65874  0.40842  0.91614  Biso   1.000  O
  O11      1.0000 0.06928  0.89581  0.99637  Biso   1.000  O
  O12      1.0000 0.87065  0.05308  0.67295  Biso   1.000  O
  O13      1.0000 0.62070  0.55743  0.84639  Biso   1.000  O
  O14      1.0000 0.83850  0.90940  0.09430  Biso   1.000  O
  O15      1.0000 0.66155  0.58510  0.74235  Biso   1.000  O
  O16      1.0000 0.99647  0.04713  0.78869  Biso   1.000  O
  O17      1.0000 0.99819  0.95240  0.54332  Biso   1.000  O
  O18      1.0000 0.49870  0.45302  0.37786  Biso   1.000  O
  O19      1.0000 0.83035  0.91665  0.75781  Biso   1.000  O
  O20      1.0000 0.67226  0.57673  0.41003  Biso   1.000  O
  O21      1.0000 0.32353  0.42418  0.93194  Biso   1.000  O
  O22      1.0000 0.05384  0.11177  0.67461  Biso   1.000  O
  O23      1.0000 0.93229  0.89168  0.66347  Biso   1.000  O
  O24      1.0000 0.37970  0.56530  0.51086  Biso   1.000  O
  O25      1.0000 0.15874  0.09158  0.58386  Biso   1.000  O
  O26      1.0000 0.56928  0.60419  0.50363  Biso   1.000  O
  O27      1.0000 0.37065  0.44692  0.82705  Biso   1.000  O
  O28      1.0000 0.12070  0.94257  0.65361  Biso   1.000  O
  O29      1.0000 0.33850  0.59060  0.40570  Biso   1.000  O
  O30      1.0000 0.16155  0.91490  0.75765  Biso   1.000  O
  O31      1.0000 0.50353  0.54713  0.28869  Biso   1.000  O
  O32      1.0000 0.50181  0.45240  0.04332  Biso   1.000  O
  O33      1.0000 0.00130  0.95302  0.87786  Biso   1.000  O
  O34      1.0000 0.66965  0.41665  0.25781  Biso   1.000  O
  O35      1.0000 0.82774  0.07673  0.91003  Biso   1.000  O
  O36      1.0000 0.17647  0.92418  0.43194  Biso   1.000  O
  O37      1.0000 0.44616  0.61177  0.17461  Biso   1.000  O
  O38      1.0000 0.56771  0.39168  0.16347  Biso   1.000  O
  O39      1.0000 0.12030  0.06530  0.01086  Biso   1.000  O
  O40      1.0000 0.34126  0.59158  0.08386  Biso   1.000  O
  O41      1.0000 0.93072  0.10419  0.00363  Biso   1.000  O
  O42      1.0000 0.12935  0.94692  0.32705  Biso   1.000  O
  O43      1.0000 0.37930  0.44257  0.15361  Biso   1.000  O
  O44      1.0000 0.16150  0.09060  0.90570  Biso   1.000  O
  O45      1.0000 0.33845  0.41490  0.25765  Biso   1.000  O
  O46      1.0000 0.00353  0.95287  0.21131  Biso   1.000  O
  O47      1.0000 0.00181  0.04760  0.45668  Biso   1.000  O
  O48      1.0000 0.50130  0.54698  0.62214  Biso   1.000  O
  O49      1.0000 0.16965  0.08335  0.24219  Biso   1.000  O
  O50      1.0000 0.32774  0.42327  0.58997  Biso   1.000  O
  O51      1.0000 0.67647  0.57582  0.06806  Biso   1.000  O
  O52      1.0000 0.94616  0.88823  0.32539  Biso   1.000  O
  O53      1.0000 0.06771  0.10832  0.33653  Biso   1.000  O
  O54      1.0000 0.62030  0.43470  0.48914  Biso   1.000  O
  O55      1.0000 0.84126  0.90842  0.41614  Biso   1.000  O
  O56      1.0000 0.43072  0.39581  0.49637  Biso   1.000  O
  O57      1.0000 0.62935  0.55308  0.17295  Biso   1.000  O
  O58      1.0000 0.87930  0.05743  0.34639  Biso   1.000  O
  O59      1.0000 0.66150  0.40940  0.59430  Biso   1.000  O
  O60      1.0000 0.83845  0.08510  0.24235  Biso   1.000  O
