data_image0
_cell_length_a       6.83654
_cell_length_b       15.1444
_cell_length_c       15.1444
_cell_angle_alpha    62.2227
_cell_angle_beta     81.3456
_cell_angle_gamma    98.6544

_symmetry_space_group_name_H-M    P 1
_symmetry_int_tables_number       1

loop_
  _symmetry_equiv_pos_as_xyz
  'x, y, z'

loop_
  _atom_site_label
  _atom_site_occupancy
  _atom_site_fract_x
  _atom_site_fract_y
  _atom_site_fract_z
  _atom_site_thermal_displace_type
  _atom_site_B_iso_or_equiv
  _atom_site_type_symbol
  Zn1      1.0000 0.88926  0.68439  0.57792  Biso   1.000  Zn
  Zn2      1.0000 0.46718  0.57792  0.73769  Biso   1.000  Zn
  Zn3      1.0000 0.20487  0.73769  0.68439  Biso   1.000  Zn
  Zn4      1.0000 0.11074  0.31561  0.42208  Biso   1.000  Zn
  Zn5      1.0000 0.53282  0.42208  0.26231  Biso   1.000  Zn
  Zn6      1.0000 0.79513  0.26231  0.31561  Biso   1.000  Zn
  H1       1.0000 0.66950  0.01810  0.52970  Biso   1.000  H
  H2       1.0000 0.19920  0.52970  0.45220  Biso   1.000  H
  H3       1.0000 0.65140  0.45220  0.01810  Biso   1.000  H
  H4       1.0000 0.33050  0.98190  0.47030  Biso   1.000  H
  H5       1.0000 0.80080  0.47030  0.54780  Biso   1.000  H
  H6       1.0000 0.34860  0.54780  0.98190  Biso   1.000  H
  C1       1.0000 0.64834  0.82388  0.61406  Biso   1.000  C
  C2       1.0000 0.83502  0.91218  0.55332  Biso   1.000  C
  C3       1.0000 0.03588  0.89947  0.53473  Biso   1.000  C
  C4       1.0000 0.80534  0.01125  0.51763  Biso   1.000  C
  C5       1.0000 0.68130  0.79490  0.41120  Biso   1.000  C
  C6       1.0000 0.69590  0.76380  0.26850  Biso   1.000  C
  C7       1.0000 0.41330  0.83570  0.32000  Biso   1.000  C
  C8       1.0000 0.26240  0.61406  0.56206  Biso   1.000  C
  C9       1.0000 0.38834  0.55332  0.53450  Biso   1.000  C
  C10      1.0000 0.57061  0.53473  0.56580  Biso   1.000  C
  C11      1.0000 0.32297  0.51763  0.47112  Biso   1.000  C
  C12      1.0000 0.09250  0.41120  0.79390  Biso   1.000  C
  C13      1.0000 0.96440  0.26850  0.96770  Biso   1.000  C
  C14      1.0000 0.73330  0.32000  0.84430  Biso   1.000  C
  C15      1.0000 0.82446  0.56206  0.82388  Biso   1.000  C
  C16      1.0000 0.92284  0.53450  0.91218  Biso   1.000  C
  C17      1.0000 0.13641  0.56580  0.89947  Biso   1.000  C
  C18      1.0000 0.79409  0.47112  0.01125  Biso   1.000  C
  C19      1.0000 0.88640  0.79390  0.79490  Biso   1.000  C
  C20      1.0000 0.93210  0.96770  0.76380  Biso   1.000  C
  C21      1.0000 0.57760  0.84430  0.83570  Biso   1.000  C
  C22      1.0000 0.35166  0.17612  0.38594  Biso   1.000  C
  C23      1.0000 0.16498  0.08782  0.44668  Biso   1.000  C
  C24      1.0000 0.96412  0.10053  0.46527  Biso   1.000  C
  C25      1.0000 0.19466  0.98875  0.48237  Biso   1.000  C
  C26      1.0000 0.31870  0.20510  0.58880  Biso   1.000  C
  C27      1.0000 0.30410  0.23620  0.73150  Biso   1.000  C
  C28      1.0000 0.58670  0.16430  0.68000  Biso   1.000  C
  C29      1.0000 0.73760  0.38594  0.43794  Biso   1.000  C
  C30      1.0000 0.61166  0.44668  0.46550  Biso   1.000  C
  C31      1.0000 0.42939  0.46527  0.43420  Biso   1.000  C
  C32      1.0000 0.67703  0.48237  0.52888  Biso   1.000  C
  C33      1.0000 0.90750  0.58880  0.20610  Biso   1.000  C
  C34      1.0000 0.03560  0.73150  0.03230  Biso   1.000  C
  C35      1.0000 0.26670  0.68000  0.15570  Biso   1.000  C
  C36      1.0000 0.17554  0.43794  0.17612  Biso   1.000  C
  C37      1.0000 0.07716  0.46550  0.08782  Biso   1.000  C
  C38      1.0000 0.86359  0.43420  0.10053  Biso   1.000  C
  C39      1.0000 0.20591  0.52888  0.98875  Biso   1.000  C
  C40      1.0000 0.11360  0.20610  0.20510  Biso   1.000  C
  C41      1.0000 0.06790  0.03230  0.23620  Biso   1.000  C
  C42      1.0000 0.42240  0.15570  0.16430  Biso   1.000  C
  N1       1.0000 0.60350  0.80260  0.33490  Biso   1.000  N
  N2       1.0000 0.93840  0.33490  0.86250  Biso   1.000  N
  N3       1.0000 0.80090  0.86250  0.80260  Biso   1.000  N
  N4       1.0000 0.39650  0.19740  0.66510  Biso   1.000  N
  N5       1.0000 0.06160  0.66510  0.13750  Biso   1.000  N
  N6       1.0000 0.19910  0.13750  0.19740  Biso   1.000  N
  O1       1.0000 0.67054  0.73308  0.65166  Biso   1.000  O
  O2       1.0000 0.47721  0.84395  0.62552  Biso   1.000  O
  O3       1.0000 0.08243  0.80824  0.56305  Biso   1.000  O
  O4       1.0000 0.83326  0.76527  0.43059  Biso   1.000  O
  O5       1.0000 0.32220  0.65166  0.61526  Biso   1.000  O
  O6       1.0000 0.10273  0.62552  0.53053  Biso   1.000  O
  O7       1.0000 0.64548  0.56305  0.62871  Biso   1.000  O
  O8       1.0000 0.26385  0.43059  0.80414  Biso   1.000  O
  O9       1.0000 0.93746  0.61526  0.73308  Biso   1.000  O
  O10      1.0000 0.63326  0.53053  0.84395  Biso   1.000  O
  O11      1.0000 0.27419  0.62871  0.80824  Biso   1.000  O
  O12      1.0000 0.06799  0.80414  0.76527  Biso   1.000  O
  O13      1.0000 0.32946  0.26692  0.34834  Biso   1.000  O
  O14      1.0000 0.52279  0.15605  0.37448  Biso   1.000  O
  O15      1.0000 0.91757  0.19176  0.43695  Biso   1.000  O
  O16      1.0000 0.16674  0.23473  0.56941  Biso   1.000  O
  O17      1.0000 0.67780  0.34834  0.38474  Biso   1.000  O
  O18      1.0000 0.89727  0.37448  0.46947  Biso   1.000  O
  O19      1.0000 0.35452  0.43695  0.37129  Biso   1.000  O
  O20      1.0000 0.73615  0.56941  0.19586  Biso   1.000  O
  O21      1.0000 0.06254  0.38474  0.26692  Biso   1.000  O
  O22      1.0000 0.36674  0.46947  0.15605  Biso   1.000  O
  O23      1.0000 0.72581  0.37129  0.19176  Biso   1.000  O
  O24      1.0000 0.93201  0.19586  0.23473  Biso   1.000  O
