data_image0
_cell_length_a       24.085
_cell_length_b       14.393
_cell_length_c       8.7122
_cell_angle_alpha    90
_cell_angle_beta     94.26
_cell_angle_gamma    90

_symmetry_space_group_name_H-M    "P 1"
_symmetry_int_tables_number       1

loop_
  _symmetry_equiv_pos_as_xyz
  'x, y, z'

loop_
  _atom_site_label
  _atom_site_occupancy
  _atom_site_fract_x
  _atom_site_fract_y
  _atom_site_fract_z
  _atom_site_thermal_displace_type
  _atom_site_B_iso_or_equiv
  _atom_site_type_symbol
  P1       1.0000 0.33817  0.73198  0.42986  Biso   1.000  P
  P2       1.0000 0.32603  0.96913  0.93930  Biso   1.000  P
  P3       1.0000 0.49158  0.17888  0.52626  Biso   1.000  P
  Al1      1.0000 0.27811  0.87641  0.62404  Biso   1.000  Al
  Al2      1.0000 0.45019  0.62979  0.50032  Biso   1.000  Al
  Al3      1.0000 0.40212  0.88885  0.24087  Biso   1.000  Al
  O1       1.0000 0.32489  0.79180  0.56850  Biso   1.000  O
  O2       1.0000 0.35818  0.78820  0.30050  Biso   1.000  O
  O3       1.0000 0.38148  0.66110  0.49290  Biso   1.000  O
  O4       1.0000 0.28631  0.67610  0.37490  Biso   1.000  O
  O5       1.0000 0.34989  0.90790  0.06880  Biso   1.000  O
  O6       1.0000 0.36953  0.97060  0.37470  Biso   1.000  O
  O7       1.0000 0.27915  0.96960  0.49810  Biso   1.000  O
  O8       1.0000 0.29811  0.90500  0.81350  Biso   1.000  O
  O9       1.0000 0.46013  0.55540  0.65460  Biso   1.000  O
  O10      1.0000 0.46549  0.56530  0.34430  Biso   1.000  O
  O11      1.0000 0.44435  0.99050  0.16440  Biso   1.000  O
  O12      1.0000 0.46963  0.12580  0.38220  Biso   1.000  O
  O13      1.0000 0.49303  0.72326  0.52910  Biso   1.000  O
  O14      1.0000 0.44306  0.80610  0.12600  Biso   1.000  O
  O15      1.0000 0.45812  0.87160  0.40210  Biso   1.000  O
  H1       1.0000 0.43400  0.00100  0.10200  Biso   1.000  H
  P4       1.0000 0.83817  0.23198  0.42986  Biso   1.000  P
  P5       1.0000 0.82603  0.46913  0.93930  Biso   1.000  P
  P6       1.0000 0.99158  0.67888  0.52626  Biso   1.000  P
  Al4      1.0000 0.77811  0.37641  0.62404  Biso   1.000  Al
  Al5      1.0000 0.95019  0.12979  0.50032  Biso   1.000  Al
  Al6      1.0000 0.90212  0.38885  0.24087  Biso   1.000  Al
  O16      1.0000 0.82489  0.29180  0.56850  Biso   1.000  O
  O17      1.0000 0.85818  0.28820  0.30050  Biso   1.000  O
  O18      1.0000 0.88148  0.16110  0.49290  Biso   1.000  O
  O19      1.0000 0.78631  0.17610  0.37490  Biso   1.000  O
  O20      1.0000 0.84989  0.40790  0.06880  Biso   1.000  O
  O21      1.0000 0.86953  0.47060  0.37470  Biso   1.000  O
  O22      1.0000 0.77915  0.46960  0.49810  Biso   1.000  O
  O23      1.0000 0.79811  0.40500  0.81350  Biso   1.000  O
  O24      1.0000 0.96013  0.05540  0.65460  Biso   1.000  O
  O25      1.0000 0.96549  0.06530  0.34430  Biso   1.000  O
  O26      1.0000 0.94435  0.49050  0.16440  Biso   1.000  O
  O27      1.0000 0.96963  0.62580  0.38220  Biso   1.000  O
  O28      1.0000 0.99303  0.22326  0.52910  Biso   1.000  O
  O29      1.0000 0.94306  0.30610  0.12600  Biso   1.000  O
  O30      1.0000 0.95812  0.37160  0.40210  Biso   1.000  O
  H2       1.0000 0.93400  0.50100  0.10200  Biso   1.000  H
  P7       1.0000 0.66183  0.73198  0.07014  Biso   1.000  P
  P8       1.0000 0.67397  0.96913  0.56070  Biso   1.000  P
  P9       1.0000 0.50842  0.17888  0.97374  Biso   1.000  P
  Al7      1.0000 0.72189  0.87641  0.87596  Biso   1.000  Al
  Al8      1.0000 0.54981  0.62979  0.99968  Biso   1.000  Al
  Al9      1.0000 0.59788  0.88885  0.25913  Biso   1.000  Al
  O31      1.0000 0.67511  0.79180  0.93150  Biso   1.000  O
  O32      1.0000 0.64182  0.78820  0.19950  Biso   1.000  O
  O33      1.0000 0.61852  0.66110  0.00710  Biso   1.000  O
  O34      1.0000 0.71369  0.67610  0.12510  Biso   1.000  O
  O35      1.0000 0.65011  0.90790  0.43120  Biso   1.000  O
  O36      1.0000 0.63047  0.97060  0.12530  Biso   1.000  O
  O37      1.0000 0.72085  0.96960  0.00190  Biso   1.000  O
  O38      1.0000 0.70189  0.90500  0.68650  Biso   1.000  O
  O39      1.0000 0.53987  0.55540  0.84540  Biso   1.000  O
  O40      1.0000 0.53451  0.56530  0.15570  Biso   1.000  O
  O41      1.0000 0.55565  0.99050  0.33560  Biso   1.000  O
  O42      1.0000 0.53037  0.12580  0.11780  Biso   1.000  O
  O43      1.0000 0.50697  0.72326  0.97090  Biso   1.000  O
  O44      1.0000 0.55694  0.80610  0.37400  Biso   1.000  O
  O45      1.0000 0.54188  0.87160  0.09790  Biso   1.000  O
  H3       1.0000 0.56600  0.00100  0.39800  Biso   1.000  H
  P10      1.0000 0.16183  0.23198  0.07014  Biso   1.000  P
  P11      1.0000 0.17397  0.46913  0.56070  Biso   1.000  P
  P12      1.0000 0.00842  0.67888  0.97374  Biso   1.000  P
  Al10     1.0000 0.22189  0.37641  0.87596  Biso   1.000  Al
  Al11     1.0000 0.04981  0.12979  0.99968  Biso   1.000  Al
  Al12     1.0000 0.09788  0.38885  0.25913  Biso   1.000  Al
  O46      1.0000 0.17511  0.29180  0.93150  Biso   1.000  O
  O47      1.0000 0.14182  0.28820  0.19950  Biso   1.000  O
  O48      1.0000 0.11852  0.16110  0.00710  Biso   1.000  O
  O49      1.0000 0.21369  0.17610  0.12510  Biso   1.000  O
  O50      1.0000 0.15011  0.40790  0.43120  Biso   1.000  O
  O51      1.0000 0.13047  0.47060  0.12530  Biso   1.000  O
  O52      1.0000 0.22085  0.46960  0.00190  Biso   1.000  O
  O53      1.0000 0.20189  0.40500  0.68650  Biso   1.000  O
  O54      1.0000 0.03987  0.05540  0.84540  Biso   1.000  O
  O55      1.0000 0.03451  0.06530  0.15570  Biso   1.000  O
  O56      1.0000 0.05565  0.49050  0.33560  Biso   1.000  O
  O57      1.0000 0.03037  0.62580  0.11780  Biso   1.000  O
  O58      1.0000 0.00697  0.22326  0.97090  Biso   1.000  O
  O59      1.0000 0.05694  0.30610  0.37400  Biso   1.000  O
  O60      1.0000 0.04188  0.37160  0.09790  Biso   1.000  O
  H4       1.0000 0.06600  0.50100  0.39800  Biso   1.000  H
  P13      1.0000 0.66183  0.26802  0.57014  Biso   1.000  P
  P14      1.0000 0.67397  0.03087  0.06070  Biso   1.000  P
  P15      1.0000 0.50842  0.82112  0.47374  Biso   1.000  P
  Al13     1.0000 0.72189  0.12359  0.37596  Biso   1.000  Al
  Al14     1.0000 0.54981  0.37021  0.49968  Biso   1.000  Al
  Al15     1.0000 0.59788  0.11115  0.75913  Biso   1.000  Al
  O61      1.0000 0.67511  0.20820  0.43150  Biso   1.000  O
  O62      1.0000 0.64182  0.21180  0.69950  Biso   1.000  O
  O63      1.0000 0.61852  0.33890  0.50710  Biso   1.000  O
  O64      1.0000 0.71369  0.32390  0.62510  Biso   1.000  O
  O65      1.0000 0.65011  0.09210  0.93120  Biso   1.000  O
  O66      1.0000 0.63047  0.02940  0.62530  Biso   1.000  O
  O67      1.0000 0.72085  0.03040  0.50190  Biso   1.000  O
  O68      1.0000 0.70189  0.09500  0.18650  Biso   1.000  O
  O69      1.0000 0.53987  0.44460  0.34540  Biso   1.000  O
  O70      1.0000 0.53451  0.43470  0.65570  Biso   1.000  O
  O71      1.0000 0.55565  0.00950  0.83560  Biso   1.000  O
  O72      1.0000 0.53037  0.87420  0.61780  Biso   1.000  O
  O73      1.0000 0.50697  0.27674  0.47090  Biso   1.000  O
  O74      1.0000 0.55694  0.19390  0.87400  Biso   1.000  O
  O75      1.0000 0.54188  0.12840  0.59790  Biso   1.000  O
  H5       1.0000 0.56600  0.99900  0.89800  Biso   1.000  H
  P16      1.0000 0.16183  0.76802  0.57014  Biso   1.000  P
  P17      1.0000 0.17397  0.53087  0.06070  Biso   1.000  P
  P18      1.0000 0.00842  0.32112  0.47374  Biso   1.000  P
  Al16     1.0000 0.22189  0.62359  0.37596  Biso   1.000  Al
  Al17     1.0000 0.04981  0.87021  0.49968  Biso   1.000  Al
  Al18     1.0000 0.09788  0.61115  0.75913  Biso   1.000  Al
  O76      1.0000 0.17511  0.70820  0.43150  Biso   1.000  O
  O77      1.0000 0.14182  0.71180  0.69950  Biso   1.000  O
  O78      1.0000 0.11852  0.83890  0.50710  Biso   1.000  O
  O79      1.0000 0.21369  0.82390  0.62510  Biso   1.000  O
  O80      1.0000 0.15011  0.59210  0.93120  Biso   1.000  O
  O81      1.0000 0.13047  0.52940  0.62530  Biso   1.000  O
  O82      1.0000 0.22085  0.53040  0.50190  Biso   1.000  O
  O83      1.0000 0.20189  0.59500  0.18650  Biso   1.000  O
  O84      1.0000 0.03987  0.94460  0.34540  Biso   1.000  O
  O85      1.0000 0.03451  0.93470  0.65570  Biso   1.000  O
  O86      1.0000 0.05565  0.50950  0.83560  Biso   1.000  O
  O87      1.0000 0.03037  0.37420  0.61780  Biso   1.000  O
  O88      1.0000 0.00697  0.77674  0.47090  Biso   1.000  O
  O89      1.0000 0.05694  0.69390  0.87400  Biso   1.000  O
  O90      1.0000 0.04188  0.62840  0.59790  Biso   1.000  O
  H6       1.0000 0.06600  0.49900  0.89800  Biso   1.000  H
  P19      1.0000 0.33817  0.26802  0.92986  Biso   1.000  P
  P20      1.0000 0.32603  0.03087  0.43930  Biso   1.000  P
  P21      1.0000 0.49158  0.82112  0.02626  Biso   1.000  P
  Al19     1.0000 0.27811  0.12359  0.12404  Biso   1.000  Al
  Al20     1.0000 0.45019  0.37021  0.00032  Biso   1.000  Al
  Al21     1.0000 0.40212  0.11115  0.74087  Biso   1.000  Al
  O91      1.0000 0.32489  0.20820  0.06850  Biso   1.000  O
  O92      1.0000 0.35818  0.21180  0.80050  Biso   1.000  O
  O93      1.0000 0.38148  0.33890  0.99290  Biso   1.000  O
  O94      1.0000 0.28631  0.32390  0.87490  Biso   1.000  O
  O95      1.0000 0.34989  0.09210  0.56880  Biso   1.000  O
  O96      1.0000 0.36953  0.02940  0.87470  Biso   1.000  O
  O97      1.0000 0.27915  0.03040  0.99810  Biso   1.000  O
  O98      1.0000 0.29811  0.09500  0.31350  Biso   1.000  O
  O99      1.0000 0.46013  0.44460  0.15460  Biso   1.000  O
  O100     1.0000 0.46549  0.43470  0.84430  Biso   1.000  O
  O101     1.0000 0.44435  0.00950  0.66440  Biso   1.000  O
  O102     1.0000 0.46963  0.87420  0.88220  Biso   1.000  O
  O103     1.0000 0.49303  0.27674  0.02910  Biso   1.000  O
  O104     1.0000 0.44306  0.19390  0.62600  Biso   1.000  O
  O105     1.0000 0.45812  0.12840  0.90210  Biso   1.000  O
  H7       1.0000 0.43400  0.99900  0.60200  Biso   1.000  H
  P22      1.0000 0.83817  0.76802  0.92986  Biso   1.000  P
  P23      1.0000 0.82603  0.53087  0.43930  Biso   1.000  P
  P24      1.0000 0.99158  0.32112  0.02626  Biso   1.000  P
  Al22     1.0000 0.77811  0.62359  0.12404  Biso   1.000  Al
  Al23     1.0000 0.95019  0.87021  0.00032  Biso   1.000  Al
  Al24     1.0000 0.90212  0.61115  0.74087  Biso   1.000  Al
  O106     1.0000 0.82489  0.70820  0.06850  Biso   1.000  O
  O107     1.0000 0.85818  0.71180  0.80050  Biso   1.000  O
  O108     1.0000 0.88148  0.83890  0.99290  Biso   1.000  O
  O109     1.0000 0.78631  0.82390  0.87490  Biso   1.000  O
  O110     1.0000 0.84989  0.59210  0.56880  Biso   1.000  O
  O111     1.0000 0.86953  0.52940  0.87470  Biso   1.000  O
  O112     1.0000 0.77915  0.53040  0.99810  Biso   1.000  O
  O113     1.0000 0.79811  0.59500  0.31350  Biso   1.000  O
  O114     1.0000 0.96013  0.94460  0.15460  Biso   1.000  O
  O115     1.0000 0.96549  0.93470  0.84430  Biso   1.000  O
  O116     1.0000 0.94435  0.50950  0.66440  Biso   1.000  O
  O117     1.0000 0.96963  0.37420  0.88220  Biso   1.000  O
  O118     1.0000 0.99303  0.77674  0.02910  Biso   1.000  O
  O119     1.0000 0.94306  0.69390  0.62600  Biso   1.000  O
  O120     1.0000 0.95812  0.62840  0.90210  Biso   1.000  O
  H8       1.0000 0.93400  0.49900  0.60200  Biso   1.000  H
  P25      1.0000 0.50000  0.49464  0.75000  Biso   1.000  P
  P26      1.0000 0.00000  0.99464  0.75000  Biso   1.000  P
  P27      1.0000 0.50000  0.50536  0.25000  Biso   1.000  P
  P28      1.0000 0.00000  0.00536  0.25000  Biso   1.000  P
  Al25     1.0000 0.50000  0.05471  0.25000  Biso   1.000  Al
  Al26     1.0000 0.00000  0.55471  0.25000  Biso   1.000  Al
  Al27     1.0000 0.50000  0.94529  0.75000  Biso   1.000  Al
  Al28     1.0000 0.00000  0.44529  0.75000  Biso   1.000  Al
