data_image0
_cell_length_a       13.8603
_cell_length_b       23.1285
_cell_length_c       8.542
_cell_angle_alpha    90
_cell_angle_beta     90
_cell_angle_gamma    90

_symmetry_space_group_name_H-M    "P 1"
_symmetry_int_tables_number       1

loop_
  _symmetry_equiv_pos_as_xyz
  'x, y, z'

loop_
  _atom_site_label
  _atom_site_occupancy
  _atom_site_fract_x
  _atom_site_fract_y
  _atom_site_fract_z
  _atom_site_thermal_displace_type
  _atom_site_B_iso_or_equiv
  _atom_site_type_symbol
  P1       1.0000 0.21100  0.15960  0.30530  Biso   1.000  P
  P2       1.0000 0.10640  0.06600  0.78930  Biso   1.000  P
  P3       1.0000 0.39980  0.22410  0.82480  Biso   1.000  P
  Al1      1.0000 0.10090  0.05940  0.15800  Biso   1.000  Al
  Al2      1.0000 0.21560  0.17770  0.66930  Biso   1.000  Al
  Al3      1.0000 0.10660  0.27230  0.19440  Biso   1.000  Al
  O1       1.0000 0.18990  0.10320  0.22340  Biso   1.000  O
  O2       1.0000 0.20500  0.15130  0.48240  Biso   1.000  O
  O3       1.0000 0.14010  0.20490  0.24930  Biso   1.000  O
  O4       1.0000 0.31360  0.17610  0.26650  Biso   1.000  O
  O5       1.0000 0.09620  0.05800  0.96180  Biso   1.000  O
  O6       1.0000 0.01050  0.08290  0.73250  Biso   1.000  O
  O7       1.0000 0.18420  0.10870  0.75390  Biso   1.000  O
  O8       1.0000 0.13500  0.00720  0.72540  Biso   1.000  O
  O9       1.0000 0.33050  0.17880  0.76780  Biso   1.000  O
  O10      1.0000 0.37840  0.28360  0.76420  Biso   1.000  O
  O11      1.0000 0.49770  0.20660  0.77650  Biso   1.000  O
  O12      1.0000 0.39590  0.22390  0.99580  Biso   1.000  O
  P4       1.0000 0.71100  0.65960  0.30530  Biso   1.000  P
  P5       1.0000 0.60640  0.56600  0.78930  Biso   1.000  P
  P6       1.0000 0.89980  0.72410  0.82480  Biso   1.000  P
  Al4      1.0000 0.60090  0.55940  0.15800  Biso   1.000  Al
  Al5      1.0000 0.71560  0.67770  0.66930  Biso   1.000  Al
  Al6      1.0000 0.60660  0.77230  0.19440  Biso   1.000  Al
  O13      1.0000 0.68990  0.60320  0.22340  Biso   1.000  O
  O14      1.0000 0.70500  0.65130  0.48240  Biso   1.000  O
  O15      1.0000 0.64010  0.70490  0.24930  Biso   1.000  O
  O16      1.0000 0.81360  0.67610  0.26650  Biso   1.000  O
  O17      1.0000 0.59620  0.55800  0.96180  Biso   1.000  O
  O18      1.0000 0.51050  0.58290  0.73250  Biso   1.000  O
  O19      1.0000 0.68420  0.60870  0.75390  Biso   1.000  O
  O20      1.0000 0.63500  0.50720  0.72540  Biso   1.000  O
  O21      1.0000 0.83050  0.67880  0.76780  Biso   1.000  O
  O22      1.0000 0.87840  0.78360  0.76420  Biso   1.000  O
  O23      1.0000 0.99770  0.70660  0.77650  Biso   1.000  O
  O24      1.0000 0.89590  0.72390  0.99580  Biso   1.000  O
  P7       1.0000 0.78900  0.84040  0.30530  Biso   1.000  P
  P8       1.0000 0.89360  0.93400  0.78930  Biso   1.000  P
  P9       1.0000 0.60020  0.77590  0.82480  Biso   1.000  P
  Al7      1.0000 0.89910  0.94060  0.15800  Biso   1.000  Al
  Al8      1.0000 0.78440  0.82230  0.66930  Biso   1.000  Al
  Al9      1.0000 0.89340  0.72770  0.19440  Biso   1.000  Al
  O25      1.0000 0.81010  0.89680  0.22340  Biso   1.000  O
  O26      1.0000 0.79500  0.84870  0.48240  Biso   1.000  O
  O27      1.0000 0.85990  0.79510  0.24930  Biso   1.000  O
  O28      1.0000 0.68640  0.82390  0.26650  Biso   1.000  O
  O29      1.0000 0.90380  0.94200  0.96180  Biso   1.000  O
  O30      1.0000 0.98950  0.91710  0.73250  Biso   1.000  O
  O31      1.0000 0.81580  0.89130  0.75390  Biso   1.000  O
  O32      1.0000 0.86500  0.99280  0.72540  Biso   1.000  O
  O33      1.0000 0.66950  0.82120  0.76780  Biso   1.000  O
  O34      1.0000 0.62160  0.71640  0.76420  Biso   1.000  O
  O35      1.0000 0.50230  0.79340  0.77650  Biso   1.000  O
  O36      1.0000 0.60410  0.77610  0.99580  Biso   1.000  O
  P10      1.0000 0.28900  0.34040  0.30530  Biso   1.000  P
  P11      1.0000 0.39360  0.43400  0.78930  Biso   1.000  P
  P12      1.0000 0.10020  0.27590  0.82480  Biso   1.000  P
  Al10     1.0000 0.39910  0.44060  0.15800  Biso   1.000  Al
  Al11     1.0000 0.28440  0.32230  0.66930  Biso   1.000  Al
  Al12     1.0000 0.39340  0.22770  0.19440  Biso   1.000  Al
  O37      1.0000 0.31010  0.39680  0.22340  Biso   1.000  O
  O38      1.0000 0.29500  0.34870  0.48240  Biso   1.000  O
  O39      1.0000 0.35990  0.29510  0.24930  Biso   1.000  O
  O40      1.0000 0.18640  0.32390  0.26650  Biso   1.000  O
  O41      1.0000 0.40380  0.44200  0.96180  Biso   1.000  O
  O42      1.0000 0.48950  0.41710  0.73250  Biso   1.000  O
  O43      1.0000 0.31580  0.39130  0.75390  Biso   1.000  O
  O44      1.0000 0.36500  0.49280  0.72540  Biso   1.000  O
  O45      1.0000 0.16950  0.32120  0.76780  Biso   1.000  O
  O46      1.0000 0.12160  0.21640  0.76420  Biso   1.000  O
  O47      1.0000 0.00230  0.29340  0.77650  Biso   1.000  O
  O48      1.0000 0.10410  0.27610  0.99580  Biso   1.000  O
  P13      1.0000 0.21100  0.84040  0.80530  Biso   1.000  P
  P14      1.0000 0.10640  0.93400  0.28930  Biso   1.000  P
  P15      1.0000 0.39980  0.77590  0.32480  Biso   1.000  P
  Al13     1.0000 0.10090  0.94060  0.65800  Biso   1.000  Al
  Al14     1.0000 0.21560  0.82230  0.16930  Biso   1.000  Al
  Al15     1.0000 0.10660  0.72770  0.69440  Biso   1.000  Al
  O49      1.0000 0.18990  0.89680  0.72340  Biso   1.000  O
  O50      1.0000 0.20500  0.84870  0.98240  Biso   1.000  O
  O51      1.0000 0.14010  0.79510  0.74930  Biso   1.000  O
  O52      1.0000 0.31360  0.82390  0.76650  Biso   1.000  O
  O53      1.0000 0.09620  0.94200  0.46180  Biso   1.000  O
  O54      1.0000 0.01050  0.91710  0.23250  Biso   1.000  O
  O55      1.0000 0.18420  0.89130  0.25390  Biso   1.000  O
  O56      1.0000 0.13500  0.99280  0.22540  Biso   1.000  O
  O57      1.0000 0.33050  0.82120  0.26780  Biso   1.000  O
  O58      1.0000 0.37840  0.71640  0.26420  Biso   1.000  O
  O59      1.0000 0.49770  0.79340  0.27650  Biso   1.000  O
  O60      1.0000 0.39590  0.77610  0.49580  Biso   1.000  O
  P16      1.0000 0.71100  0.34040  0.80530  Biso   1.000  P
  P17      1.0000 0.60640  0.43400  0.28930  Biso   1.000  P
  P18      1.0000 0.89980  0.27590  0.32480  Biso   1.000  P
  Al16     1.0000 0.60090  0.44060  0.65800  Biso   1.000  Al
  Al17     1.0000 0.71560  0.32230  0.16930  Biso   1.000  Al
  Al18     1.0000 0.60660  0.22770  0.69440  Biso   1.000  Al
  O61      1.0000 0.68990  0.39680  0.72340  Biso   1.000  O
  O62      1.0000 0.70500  0.34870  0.98240  Biso   1.000  O
  O63      1.0000 0.64010  0.29510  0.74930  Biso   1.000  O
  O64      1.0000 0.81360  0.32390  0.76650  Biso   1.000  O
  O65      1.0000 0.59620  0.44200  0.46180  Biso   1.000  O
  O66      1.0000 0.51050  0.41710  0.23250  Biso   1.000  O
  O67      1.0000 0.68420  0.39130  0.25390  Biso   1.000  O
  O68      1.0000 0.63500  0.49280  0.22540  Biso   1.000  O
  O69      1.0000 0.83050  0.32120  0.26780  Biso   1.000  O
  O70      1.0000 0.87840  0.21640  0.26420  Biso   1.000  O
  O71      1.0000 0.99770  0.29340  0.27650  Biso   1.000  O
  O72      1.0000 0.89590  0.27610  0.49580  Biso   1.000  O
  P19      1.0000 0.78900  0.15960  0.80530  Biso   1.000  P
  P20      1.0000 0.89360  0.06600  0.28930  Biso   1.000  P
  P21      1.0000 0.60020  0.22410  0.32480  Biso   1.000  P
  Al19     1.0000 0.89910  0.05940  0.65800  Biso   1.000  Al
  Al20     1.0000 0.78440  0.17770  0.16930  Biso   1.000  Al
  Al21     1.0000 0.89340  0.27230  0.69440  Biso   1.000  Al
  O73      1.0000 0.81010  0.10320  0.72340  Biso   1.000  O
  O74      1.0000 0.79500  0.15130  0.98240  Biso   1.000  O
  O75      1.0000 0.85990  0.20490  0.74930  Biso   1.000  O
  O76      1.0000 0.68640  0.17610  0.76650  Biso   1.000  O
  O77      1.0000 0.90380  0.05800  0.46180  Biso   1.000  O
  O78      1.0000 0.98950  0.08290  0.23250  Biso   1.000  O
  O79      1.0000 0.81580  0.10870  0.25390  Biso   1.000  O
  O80      1.0000 0.86500  0.00720  0.22540  Biso   1.000  O
  O81      1.0000 0.66950  0.17880  0.26780  Biso   1.000  O
  O82      1.0000 0.62160  0.28360  0.26420  Biso   1.000  O
  O83      1.0000 0.50230  0.20660  0.27650  Biso   1.000  O
  O84      1.0000 0.60410  0.22390  0.49580  Biso   1.000  O
  P22      1.0000 0.28900  0.65960  0.80530  Biso   1.000  P
  P23      1.0000 0.39360  0.56600  0.28930  Biso   1.000  P
  P24      1.0000 0.10020  0.72410  0.32480  Biso   1.000  P
  Al22     1.0000 0.39910  0.55940  0.65800  Biso   1.000  Al
  Al23     1.0000 0.28440  0.67770  0.16930  Biso   1.000  Al
  Al24     1.0000 0.39340  0.77230  0.69440  Biso   1.000  Al
  O85      1.0000 0.31010  0.60320  0.72340  Biso   1.000  O
  O86      1.0000 0.29500  0.65130  0.98240  Biso   1.000  O
  O87      1.0000 0.35990  0.70490  0.74930  Biso   1.000  O
  O88      1.0000 0.18640  0.67610  0.76650  Biso   1.000  O
  O89      1.0000 0.40380  0.55800  0.46180  Biso   1.000  O
  O90      1.0000 0.48950  0.58290  0.23250  Biso   1.000  O
  O91      1.0000 0.31580  0.60870  0.25390  Biso   1.000  O
  O92      1.0000 0.36500  0.50720  0.22540  Biso   1.000  O
  O93      1.0000 0.16950  0.67880  0.26780  Biso   1.000  O
  O94      1.0000 0.12160  0.78360  0.26420  Biso   1.000  O
  O95      1.0000 0.00230  0.70660  0.27650  Biso   1.000  O
  O96      1.0000 0.10410  0.72390  0.49580  Biso   1.000  O
  F1       1.0000 0.25000  0.25000  0.58050  Biso   1.000  F
  F2       1.0000 0.75000  0.75000  0.58050  Biso   1.000  F
  F3       1.0000 0.25000  0.75000  0.08050  Biso   1.000  F
  F4       1.0000 0.75000  0.25000  0.08050  Biso   1.000  F
