data_image0
_cell_length_a       12.0216
_cell_length_b       13.9379
_cell_length_c       22.7658
_cell_angle_alpha    95.825
_cell_angle_beta     104.722
_cell_angle_gamma    104.036

_symmetry_space_group_name_H-M    P 1
_symmetry_int_tables_number       1

loop_
  _symmetry_equiv_pos_as_xyz
  'x, y, z'

loop_
  _atom_site_label
  _atom_site_occupancy
  _atom_site_fract_x
  _atom_site_fract_y
  _atom_site_fract_z
  _atom_site_thermal_displace_type
  _atom_site_B_iso_or_equiv
  _atom_site_type_symbol
  Ag1      1.0000 0.29140  0.20130  0.84736  Biso   1.000  Ag
  Ag2      1.0000 0.18624  0.42535  0.55908  Biso   1.000  Ag
  Ag3      1.0000 0.02276  0.84439  0.69686  Biso   1.000  Ag
  Ag4      1.0000 0.48499  0.05671  0.91452  Biso   1.000  Ag
  Ag5      1.0000 0.13613  0.99746  0.85705  Biso   1.000  Ag
  Ag6      1.0000 0.14848  0.66093  0.99892  Biso   1.000  Ag
  Ag7      1.0000 0.59678  0.88059  0.82367  Biso   1.000  Ag
  Ag8      1.0000 0.68560  0.17265  0.06493  Biso   1.000  Ag
  Ag9      1.0000 0.70860  0.79870  0.15264  Biso   1.000  Ag
  Ag10     1.0000 0.81376  0.57465  0.44092  Biso   1.000  Ag
  Ag11     1.0000 0.97724  0.15561  0.30314  Biso   1.000  Ag
  Ag12     1.0000 0.51501  0.94329  0.08548  Biso   1.000  Ag
  Ag13     1.0000 0.86387  0.00254  0.14295  Biso   1.000  Ag
  Ag14     1.0000 0.85152  0.33907  0.00108  Biso   1.000  Ag
  Ag15     1.0000 0.40322  0.11941  0.17633  Biso   1.000  Ag
  Ag16     1.0000 0.31440  0.82735  0.93507  Biso   1.000  Ag
  H1       1.0000 0.44650  0.46340  0.08610  Biso   1.000  H
  H2       1.0000 0.27070  0.38030  0.90430  Biso   1.000  H
  H3       1.0000 0.76670  0.75220  0.91440  Biso   1.000  H
  H4       1.0000 0.15010  0.63710  0.56900  Biso   1.000  H
  H5       1.0000 0.99850  0.95450  0.05740  Biso   1.000  H
  H6       1.0000 0.40600  0.67500  0.76100  Biso   1.000  H
  H7       1.0000 0.18800  0.78100  0.63830  Biso   1.000  H
  H8       1.0000 0.43090  0.77610  0.59800  Biso   1.000  H
  H9       1.0000 0.79040  0.70290  0.65720  Biso   1.000  H
  H10      1.0000 0.64780  0.62440  0.56370  Biso   1.000  H
  H11      1.0000 0.13120  0.86190  0.05890  Biso   1.000  H
  H12      1.0000 0.56080  0.85100  0.69180  Biso   1.000  H
  H13      1.0000 0.06160  0.03040  0.62280  Biso   1.000  H
  H14      1.0000 0.18220  0.50360  0.91240  Biso   1.000  H
  H15      1.0000 0.16420  0.90590  0.48320  Biso   1.000  H
  H16      1.0000 0.34660  0.58960  0.08570  Biso   1.000  H
  H17      1.0000 0.35060  0.52600  0.68980  Biso   1.000  H
  H18      1.0000 0.19840  0.17900  0.62700  Biso   1.000  H
  H19      1.0000 0.30310  0.05900  0.49520  Biso   1.000  H
  H20      1.0000 0.90170  0.66420  0.92100  Biso   1.000  H
  H21      1.0000 0.55350  0.53660  0.91390  Biso   1.000  H
  H22      1.0000 0.72930  0.61970  0.09570  Biso   1.000  H
  H23      1.0000 0.23330  0.24780  0.08560  Biso   1.000  H
  H24      1.0000 0.84990  0.36290  0.43100  Biso   1.000  H
  H25      1.0000 0.00150  0.04550  0.94260  Biso   1.000  H
  H26      1.0000 0.59400  0.32500  0.23900  Biso   1.000  H
  H27      1.0000 0.81200  0.21900  0.36170  Biso   1.000  H
  H28      1.0000 0.56910  0.22390  0.40200  Biso   1.000  H
  H29      1.0000 0.20960  0.29710  0.34280  Biso   1.000  H
  H30      1.0000 0.35220  0.37560  0.43630  Biso   1.000  H
  H31      1.0000 0.86880  0.13810  0.94110  Biso   1.000  H
  H32      1.0000 0.43920  0.14900  0.30820  Biso   1.000  H
  H33      1.0000 0.93840  0.96960  0.37720  Biso   1.000  H
  H34      1.0000 0.81780  0.49640  0.08760  Biso   1.000  H
  H35      1.0000 0.83580  0.09410  0.51680  Biso   1.000  H
  H36      1.0000 0.65340  0.41040  0.91430  Biso   1.000  H
  H37      1.0000 0.64940  0.47400  0.31020  Biso   1.000  H
  H38      1.0000 0.80160  0.82100  0.37300  Biso   1.000  H
  H39      1.0000 0.69690  0.94100  0.50480  Biso   1.000  H
  H40      1.0000 0.09830  0.33580  0.07900  Biso   1.000  H
  C1       1.0000 0.41900  0.32380  0.99340  Biso   1.000  C
  C2       1.0000 0.39200  0.46990  0.05060  Biso   1.000  C
  C3       1.0000 0.28700  0.42070  0.94220  Biso   1.000  C
  C4       1.0000 0.69130  0.78500  0.68330  Biso   1.000  C
  C5       1.0000 0.77730  0.91930  0.98830  Biso   1.000  C
  C6       1.0000 0.84000  0.77550  0.94500  Biso   1.000  C
  C7       1.0000 0.19910  0.64360  0.60880  Biso   1.000  C
  C8       1.0000 0.97680  0.89520  0.02930  Biso   1.000  C
  C9       1.0000 0.35020  0.66690  0.72290  Biso   1.000  C
  C10      1.0000 0.86280  0.86330  0.98650  Biso   1.000  C
  C11      1.0000 0.29560  0.74210  0.70730  Biso   1.000  C
  C12      1.0000 0.30970  0.82850  0.75500  Biso   1.000  C
  C13      1.0000 0.22300  0.73050  0.65010  Biso   1.000  C
  C14      1.0000 0.36200  0.40480  0.99420  Biso   1.000  C
  C15      1.0000 0.50330  0.76060  0.61080  Biso   1.000  C
  C16      1.0000 0.71740  0.71790  0.64600  Biso   1.000  C
  C17      1.0000 0.63200  0.67140  0.59000  Biso   1.000  C
  C18      1.0000 0.01700  0.85290  0.54850  Biso   1.000  C
  C19      1.0000 0.10000  0.94920  0.55520  Biso   1.000  C
  C20      1.0000 0.05620  0.83960  0.03000  Biso   1.000  C
  C21      1.0000 0.58000  0.80620  0.66570  Biso   1.000  C
  C22      1.0000 0.11000  0.03420  0.59680  Biso   1.000  C
  C23      1.0000 0.77730  0.83920  0.74200  Biso   1.000  C
  C24      1.0000 0.23700  0.49600  0.94750  Biso   1.000  C
  C25      1.0000 0.17200  0.95910  0.51360  Biso   1.000  C
  C26      1.0000 0.33300  0.54680  0.04890  Biso   1.000  C
  C27      1.0000 0.31800  0.57830  0.67920  Biso   1.000  C
  C28      1.0000 0.19200  0.12280  0.59930  Biso   1.000  C
  C29      1.0000 0.25300  0.05110  0.52070  Biso   1.000  C
  C30      1.0000 0.92200  0.72370  0.94880  Biso   1.000  C
  C31      1.0000 0.58100  0.67620  0.00660  Biso   1.000  C
  C32      1.0000 0.60800  0.53010  0.94940  Biso   1.000  C
  C33      1.0000 0.71300  0.57930  0.05780  Biso   1.000  C
  C34      1.0000 0.30870  0.21500  0.31670  Biso   1.000  C
  C35      1.0000 0.22270  0.08070  0.01170  Biso   1.000  C
  C36      1.0000 0.16000  0.22450  0.05500  Biso   1.000  C
  C37      1.0000 0.80090  0.35640  0.39120  Biso   1.000  C
  C38      1.0000 0.02320  0.10480  0.97070  Biso   1.000  C
  C39      1.0000 0.64980  0.33310  0.27710  Biso   1.000  C
  C40      1.0000 0.13720  0.13670  0.01350  Biso   1.000  C
  C41      1.0000 0.70440  0.25790  0.29270  Biso   1.000  C
  C42      1.0000 0.69030  0.17150  0.24500  Biso   1.000  C
  C43      1.0000 0.77700  0.26950  0.34990  Biso   1.000  C
  C44      1.0000 0.63800  0.59520  0.00580  Biso   1.000  C
  C45      1.0000 0.49670  0.23940  0.38920  Biso   1.000  C
  C46      1.0000 0.28260  0.28210  0.35400  Biso   1.000  C
  C47      1.0000 0.36800  0.32860  0.41000  Biso   1.000  C
  C48      1.0000 0.98300  0.14710  0.45150  Biso   1.000  C
  C49      1.0000 0.90000  0.05080  0.44480  Biso   1.000  C
  C50      1.0000 0.94380  0.16040  0.97000  Biso   1.000  C
  C51      1.0000 0.42000  0.19380  0.33430  Biso   1.000  C
  C52      1.0000 0.89000  0.96580  0.40320  Biso   1.000  C
  C53      1.0000 0.22270  0.16080  0.25800  Biso   1.000  C
  C54      1.0000 0.76300  0.50400  0.05250  Biso   1.000  C
  C55      1.0000 0.82800  0.04090  0.48640  Biso   1.000  C
  C56      1.0000 0.66700  0.45320  0.95110  Biso   1.000  C
  C57      1.0000 0.68200  0.42170  0.32080  Biso   1.000  C
  C58      1.0000 0.80800  0.87720  0.40070  Biso   1.000  C
  C59      1.0000 0.74700  0.94890  0.47930  Biso   1.000  C
  C60      1.0000 0.07800  0.27630  0.05120  Biso   1.000  C
  N1       1.0000 0.97390  0.78660  0.49630  Biso   1.000  N
  N2       1.0000 0.75410  0.87810  0.79300  Biso   1.000  N
  N3       1.0000 0.21760  0.86880  0.75550  Biso   1.000  N
  N4       1.0000 0.02830  0.75210  0.98930  Biso   1.000  N
  N5       1.0000 0.94460  0.91400  0.81090  Biso   1.000  N
  N6       1.0000 0.37180  0.94160  0.83300  Biso   1.000  N
  N7       1.0000 0.97610  0.81430  0.59300  Biso   1.000  N
  N8       1.0000 0.26220  0.94070  0.80720  Biso   1.000  N
  N9       1.0000 0.89860  0.86050  0.75340  Biso   1.000  N
  N10      1.0000 0.78400  0.98170  0.03890  Biso   1.000  N
  N11      1.0000 0.24540  0.56750  0.62470  Biso   1.000  N
  N12      1.0000 0.68360  0.92080  0.94000  Biso   1.000  N
  N13      1.0000 0.47180  0.19560  0.96390  Biso   1.000  N
  N14      1.0000 0.40430  0.87190  0.80150  Biso   1.000  N
  N15      1.0000 0.63400  0.98510  0.96210  Biso   1.000  N
  N16      1.0000 0.52910  0.69260  0.57370  Biso   1.000  N
  N17      1.0000 0.69300  0.02440  0.02290  Biso   1.000  N
  N18      1.0000 0.85920  0.92440  0.83640  Biso   1.000  N
  N19      1.0000 0.53660  0.23360  0.02200  Biso   1.000  N
  N20      1.0000 0.39860  0.24990  0.94540  Biso   1.000  N
  N21      1.0000 0.89940  0.72140  0.56650  Biso   1.000  N
  N22      1.0000 0.50450  0.31200  0.04230  Biso   1.000  N
  N23      1.0000 0.26300  0.13030  0.56300  Biso   1.000  N
  N24      1.0000 0.90170  0.70830  0.50790  Biso   1.000  N
  N25      1.0000 0.25960  0.56190  0.99950  Biso   1.000  N
  N26      1.0000 0.02610  0.21340  0.50370  Biso   1.000  N
  N27      1.0000 0.24590  0.12190  0.20700  Biso   1.000  N
  N28      1.0000 0.78240  0.13120  0.24450  Biso   1.000  N
  N29      1.0000 0.97170  0.24790  0.01070  Biso   1.000  N
  N30      1.0000 0.05540  0.08600  0.18910  Biso   1.000  N
  N31      1.0000 0.62820  0.05840  0.16700  Biso   1.000  N
  N32      1.0000 0.02390  0.18570  0.40700  Biso   1.000  N
  N33      1.0000 0.73780  0.05930  0.19280  Biso   1.000  N
  N34      1.0000 0.10140  0.13950  0.24660  Biso   1.000  N
  N35      1.0000 0.21600  0.01830  0.96110  Biso   1.000  N
  N36      1.0000 0.75460  0.43250  0.37530  Biso   1.000  N
  N37      1.0000 0.31640  0.07920  0.06000  Biso   1.000  N
  N38      1.0000 0.52820  0.80440  0.03610  Biso   1.000  N
  N39      1.0000 0.59570  0.12810  0.19850  Biso   1.000  N
  N40      1.0000 0.36600  0.01490  0.03790  Biso   1.000  N
  N41      1.0000 0.47090  0.30740  0.42630  Biso   1.000  N
  N42      1.0000 0.30700  0.97560  0.97710  Biso   1.000  N
  N43      1.0000 0.14080  0.07560  0.16360  Biso   1.000  N
  N44      1.0000 0.46340  0.76640  0.97800  Biso   1.000  N
  N45      1.0000 0.60140  0.75010  0.05460  Biso   1.000  N
  N46      1.0000 0.10060  0.27860  0.43350  Biso   1.000  N
  N47      1.0000 0.49550  0.68800  0.95770  Biso   1.000  N
  N48      1.0000 0.73700  0.86970  0.43700  Biso   1.000  N
  N49      1.0000 0.09830  0.29170  0.49210  Biso   1.000  N
  N50      1.0000 0.74040  0.43810  0.00050  Biso   1.000  N
  O1       1.0000 0.18820  0.10850  0.75300  Biso   1.000  O
  O2       1.0000 0.87620  0.25010  0.13730  Biso   1.000  O
  O3       1.0000 0.81180  0.89150  0.24700  Biso   1.000  O
  O4       1.0000 0.12380  0.74990  0.86270  Biso   1.000  O
