data_image0
_cell_length_a       10.5672
_cell_length_b       14.5418
_cell_length_c       17.0574
_cell_angle_alpha    69.3819
_cell_angle_beta     71.9555
_cell_angle_gamma    68.6946

_symmetry_space_group_name_H-M    P 1
_symmetry_int_tables_number       1

loop_
  _symmetry_equiv_pos_as_xyz
  'x, y, z'

loop_
  _atom_site_label
  _atom_site_occupancy
  _atom_site_fract_x
  _atom_site_fract_y
  _atom_site_fract_z
  _atom_site_thermal_displace_type
  _atom_site_B_iso_or_equiv
  _atom_site_type_symbol
  La1      1.0000 0.23802  0.79808  0.86584  Biso   1.000  La
  La2      1.0000 0.94226  0.93126  0.71470  Biso   1.000  La
  La3      1.0000 0.90194  0.70192  0.63416  Biso   1.000  La
  La4      1.0000 0.58822  0.56874  0.78530  Biso   1.000  La
  La5      1.0000 0.76198  0.20192  0.13416  Biso   1.000  La
  La6      1.0000 0.05774  0.06874  0.28530  Biso   1.000  La
  La7      1.0000 0.09806  0.29808  0.36584  Biso   1.000  La
  La8      1.0000 0.41178  0.43126  0.21470  Biso   1.000  La
  H1       1.0000 0.14590  0.88110  0.98410  Biso   1.000  H
  H2       1.0000 0.05280  0.87820  0.94260  Biso   1.000  H
  H3       1.0000 0.44510  0.61440  0.96980  Biso   1.000  H
  H4       1.0000 0.51820  0.67190  0.93650  Biso   1.000  H
  H5       1.0000 0.40090  0.90370  0.91070  Biso   1.000  H
  H6       1.0000 0.36890  0.81500  0.98540  Biso   1.000  H
  H7       1.0000 0.66430  0.94420  0.84740  Biso   1.000  H
  H8       1.0000 0.70980  0.85460  0.88380  Biso   1.000  H
  H9       1.0000 0.33160  0.18550  0.54130  Biso   1.000  H
  H10      1.0000 0.54650  0.13480  0.57380  Biso   1.000  H
  H11      1.0000 0.24720  0.16230  0.76610  Biso   1.000  H
  H12      1.0000 0.01110  0.61890  0.51590  Biso   1.000  H
  H13      1.0000 0.87360  0.62180  0.55740  Biso   1.000  H
  H14      1.0000 0.02930  0.88560  0.53020  Biso   1.000  H
  H15      1.0000 0.12660  0.82810  0.56350  Biso   1.000  H
  H16      1.0000 0.21530  0.59630  0.58930  Biso   1.000  H
  H17      1.0000 0.16930  0.68500  0.51460  Biso   1.000  H
  H18      1.0000 0.45590  0.55580  0.65260  Biso   1.000  H
  H19      1.0000 0.44820  0.64540  0.61620  Biso   1.000  H
  H20      1.0000 0.05840  0.31450  0.95870  Biso   1.000  H
  H21      1.0000 0.25510  0.36520  0.92620  Biso   1.000  H
  H22      1.0000 0.17560  0.33770  0.73390  Biso   1.000  H
  H23      1.0000 0.85410  0.11890  0.01590  Biso   1.000  H
  H24      1.0000 0.94720  0.12180  0.05740  Biso   1.000  H
  H25      1.0000 0.55490  0.38560  0.03020  Biso   1.000  H
  H26      1.0000 0.48180  0.32810  0.06350  Biso   1.000  H
  H27      1.0000 0.59910  0.09630  0.08930  Biso   1.000  H
  H28      1.0000 0.63110  0.18500  0.01460  Biso   1.000  H
  H29      1.0000 0.33570  0.05580  0.15260  Biso   1.000  H
  H30      1.0000 0.29020  0.14540  0.11620  Biso   1.000  H
  H31      1.0000 0.66840  0.81450  0.45870  Biso   1.000  H
  H32      1.0000 0.45350  0.86520  0.42620  Biso   1.000  H
  H33      1.0000 0.75280  0.83770  0.23390  Biso   1.000  H
  H34      1.0000 0.98890  0.38110  0.48410  Biso   1.000  H
  H35      1.0000 0.12640  0.37820  0.44260  Biso   1.000  H
  H36      1.0000 0.97070  0.11440  0.46980  Biso   1.000  H
  H37      1.0000 0.87340  0.17190  0.43650  Biso   1.000  H
  H38      1.0000 0.78470  0.40370  0.41070  Biso   1.000  H
  H39      1.0000 0.83070  0.31500  0.48540  Biso   1.000  H
  H40      1.0000 0.54410  0.44420  0.34740  Biso   1.000  H
  H41      1.0000 0.55180  0.35460  0.38380  Biso   1.000  H
  H42      1.0000 0.94160  0.68550  0.04130  Biso   1.000  H
  H43      1.0000 0.74490  0.63480  0.07380  Biso   1.000  H
  H44      1.0000 0.82440  0.66230  0.26610  Biso   1.000  H
  C1       1.0000 0.29970  0.04700  0.58280  Biso   1.000  C
  C2       1.0000 0.37120  0.11650  0.56610  Biso   1.000  C
  C3       1.0000 0.50070  0.08610  0.58530  Biso   1.000  C
  C4       1.0000 0.56250  0.98350  0.62170  Biso   1.000  C
  C5       1.0000 0.49180  0.91220  0.64020  Biso   1.000  C
  C6       1.0000 0.35890  0.94380  0.62140  Biso   1.000  C
  C7       1.0000 0.16330  0.08370  0.55650  Biso   1.000  C
  C8       1.0000 0.28640  0.86440  0.64080  Biso   1.000  C
  C9       1.0000 0.54310  0.80030  0.68190  Biso   1.000  C
  C10      1.0000 0.70380  0.95520  0.64020  Biso   1.000  C
  C11      1.0000 0.15580  0.19750  0.76090  Biso   1.000  C
  C12      1.0000 0.06480  0.14370  0.77510  Biso   1.000  C
  C13      1.0000 0.92940  0.19690  0.76390  Biso   1.000  C
  C14      1.0000 0.11480  0.02780  0.80140  Biso   1.000  C
  C15      1.0000 0.82280  0.13990  0.78670  Biso   1.000  C
  C16      1.0000 0.92950  0.45300  0.91720  Biso   1.000  C
  C17      1.0000 0.05380  0.38350  0.93390  Biso   1.000  C
  C18      1.0000 0.17210  0.41390  0.91470  Biso   1.000  C
  C19      1.0000 0.16770  0.51650  0.87830  Biso   1.000  C
  C20      1.0000 0.04420  0.58780  0.85980  Biso   1.000  C
  C21      1.0000 0.92410  0.55620  0.87860  Biso   1.000  C
  C22      1.0000 0.80350  0.41630  0.94350  Biso   1.000  C
  C23      1.0000 0.79160  0.63560  0.85920  Biso   1.000  C
  C24      1.0000 0.02530  0.69970  0.81810  Biso   1.000  C
  C25      1.0000 0.29920  0.54480  0.85980  Biso   1.000  C
  C26      1.0000 0.11420  0.30250  0.73910  Biso   1.000  C
  C27      1.0000 0.98360  0.35630  0.72490  Biso   1.000  C
  C28      1.0000 0.89020  0.30310  0.73610  Biso   1.000  C
  C29      1.0000 0.94400  0.47220  0.69860  Biso   1.000  C
  C30      1.0000 0.74940  0.36010  0.71330  Biso   1.000  C
  C31      1.0000 0.70030  0.95300  0.41720  Biso   1.000  C
  C32      1.0000 0.62880  0.88350  0.43390  Biso   1.000  C
  C33      1.0000 0.49930  0.91390  0.41470  Biso   1.000  C
  C34      1.0000 0.43750  0.01650  0.37830  Biso   1.000  C
  C35      1.0000 0.50820  0.08780  0.35980  Biso   1.000  C
  C36      1.0000 0.64110  0.05620  0.37860  Biso   1.000  C
  C37      1.0000 0.83670  0.91630  0.44350  Biso   1.000  C
  C38      1.0000 0.71360  0.13560  0.35920  Biso   1.000  C
  C39      1.0000 0.45690  0.19970  0.31810  Biso   1.000  C
  C40      1.0000 0.29620  0.04480  0.35980  Biso   1.000  C
  C41      1.0000 0.84420  0.80250  0.23910  Biso   1.000  C
  C42      1.0000 0.93520  0.85630  0.22490  Biso   1.000  C
  C43      1.0000 0.07060  0.80310  0.23610  Biso   1.000  C
  C44      1.0000 0.88520  0.97220  0.19860  Biso   1.000  C
  C45      1.0000 0.17720  0.86010  0.21330  Biso   1.000  C
  C46      1.0000 0.07050  0.54700  0.08280  Biso   1.000  C
  C47      1.0000 0.94620  0.61650  0.06610  Biso   1.000  C
  C48      1.0000 0.82790  0.58610  0.08530  Biso   1.000  C
  C49      1.0000 0.83230  0.48350  0.12170  Biso   1.000  C
  C50      1.0000 0.95580  0.41220  0.14020  Biso   1.000  C
  C51      1.0000 0.07590  0.44380  0.12140  Biso   1.000  C
  C52      1.0000 0.19650  0.58370  0.05650  Biso   1.000  C
  C53      1.0000 0.20840  0.36440  0.14080  Biso   1.000  C
  C54      1.0000 0.97470  0.30030  0.18190  Biso   1.000  C
  C55      1.0000 0.70080  0.45520  0.14020  Biso   1.000  C
  C56      1.0000 0.88580  0.69750  0.26090  Biso   1.000  C
  C57      1.0000 0.01640  0.64370  0.27510  Biso   1.000  C
  C58      1.0000 0.10980  0.69690  0.26390  Biso   1.000  C
  C59      1.0000 0.05600  0.52780  0.30140  Biso   1.000  C
  C60      1.0000 0.25060  0.63990  0.28670  Biso   1.000  C
  O1       1.0000 0.07770  0.03280  0.59060  Biso   1.000  O
  O2       1.0000 0.14120  0.16540  0.49920  Biso   1.000  O
  O3       1.0000 0.19850  0.85200  0.71120  Biso   1.000  O
  O4       1.0000 0.31560  0.81430  0.58870  Biso   1.000  O
  O5       1.0000 0.46990  0.76710  0.75510  Biso   1.000  O
  O6       1.0000 0.64310  0.73980  0.64660  Biso   1.000  O
  O7       1.0000 0.75870  0.86470  0.68030  Biso   1.000  O
  O8       1.0000 0.76330  0.02310  0.61730  Biso   1.000  O
  O9       1.0000 0.23840  0.98570  0.80790  Biso   1.000  O
  O10      1.0000 0.03180  0.97560  0.81640  Biso   1.000  O
  O11      1.0000 0.81720  0.10160  0.73380  Biso   1.000  O
  O12      1.0000 0.74630  0.13750  0.85870  Biso   1.000  O
  O13      1.0000 0.06570  0.87590  0.99010  Biso   1.000  O
  O14      1.0000 0.47280  0.64800  0.91900  Biso   1.000  O
  O15      1.0000 0.37210  0.85080  0.93360  Biso   1.000  O
  O16      1.0000 0.74350  0.90010  0.84470  Biso   1.000  O
  O17      1.0000 0.70110  0.46720  0.90940  Biso   1.000  O
  O18      1.0000 0.80580  0.33460  0.00080  Biso   1.000  O
  O19      1.0000 0.76170  0.64800  0.78880  Biso   1.000  O
  O20      1.0000 0.71860  0.68570  0.91130  Biso   1.000  O
  O21      1.0000 0.99210  0.73290  0.74490  Biso   1.000  O
  O22      1.0000 0.02950  0.76020  0.85340  Biso   1.000  O
  O23      1.0000 0.30370  0.63530  0.81970  Biso   1.000  O
  O24      1.0000 0.40370  0.47690  0.88270  Biso   1.000  O
  O25      1.0000 0.03200  0.51430  0.69210  Biso   1.000  O
  O26      1.0000 0.82380  0.52440  0.68360  Biso   1.000  O
  O27      1.0000 0.65260  0.39840  0.76620  Biso   1.000  O
  O28      1.0000 0.74250  0.36250  0.64130  Biso   1.000  O
  O29      1.0000 0.93170  0.62410  0.50990  Biso   1.000  O
  O30      1.0000 0.03980  0.85200  0.58100  Biso   1.000  O
  O31      1.0000 0.15650  0.64920  0.56640  Biso   1.000  O
  O32      1.0000 0.48830  0.59990  0.65530  Biso   1.000  O
  O33      1.0000 0.92230  0.96720  0.40940  Biso   1.000  O
  O34      1.0000 0.85880  0.83460  0.50080  Biso   1.000  O
  O35      1.0000 0.80150  0.14800  0.28880  Biso   1.000  O
  O36      1.0000 0.68440  0.18570  0.41130  Biso   1.000  O
  O37      1.0000 0.53010  0.23290  0.24490  Biso   1.000  O
  O38      1.0000 0.35690  0.26020  0.35340  Biso   1.000  O
  O39      1.0000 0.24130  0.13530  0.31970  Biso   1.000  O
  O40      1.0000 0.23670  0.97690  0.38270  Biso   1.000  O
  O41      1.0000 0.76160  0.01430  0.19210  Biso   1.000  O
  O42      1.0000 0.96820  0.02440  0.18360  Biso   1.000  O
  O43      1.0000 0.18280  0.89840  0.26620  Biso   1.000  O
  O44      1.0000 0.25370  0.86250  0.14130  Biso   1.000  O
  O45      1.0000 0.93430  0.12410  0.00990  Biso   1.000  O
  O46      1.0000 0.52720  0.35200  0.08100  Biso   1.000  O
  O47      1.0000 0.62790  0.14920  0.06640  Biso   1.000  O
  O48      1.0000 0.25650  0.09990  0.15530  Biso   1.000  O
  O49      1.0000 0.29890  0.53280  0.09060  Biso   1.000  O
  O50      1.0000 0.19420  0.66540  0.99920  Biso   1.000  O
  O51      1.0000 0.23830  0.35200  0.21120  Biso   1.000  O
  O52      1.0000 0.28140  0.31430  0.08870  Biso   1.000  O
  O53      1.0000 0.00790  0.26710  0.25510  Biso   1.000  O
  O54      1.0000 0.97050  0.23980  0.14660  Biso   1.000  O
  O55      1.0000 0.69630  0.36470  0.18030  Biso   1.000  O
  O56      1.0000 0.59630  0.52310  0.11730  Biso   1.000  O
  O57      1.0000 0.96800  0.48570  0.30790  Biso   1.000  O
  O58      1.0000 0.17620  0.47560  0.31640  Biso   1.000  O
  O59      1.0000 0.34740  0.60160  0.23380  Biso   1.000  O
  O60      1.0000 0.25750  0.63750  0.35870  Biso   1.000  O
  O61      1.0000 0.06830  0.37590  0.49010  Biso   1.000  O
  O62      1.0000 0.96020  0.14800  0.41900  Biso   1.000  O
  O63      1.0000 0.84350  0.35080  0.43360  Biso   1.000  O
  O64      1.0000 0.51170  0.40010  0.34470  Biso   1.000  O
