data_image0
_cell_length_a       12.0117
_cell_length_b       13.936
_cell_length_c       22.602
_cell_angle_alpha    77.088
_cell_angle_beta     74.657
_cell_angle_gamma    75.524

_symmetry_space_group_name_H-M    P 1
_symmetry_int_tables_number       1

loop_
  _symmetry_equiv_pos_as_xyz
  'x, y, z'

loop_
  _atom_site_label
  _atom_site_occupancy
  _atom_site_fract_x
  _atom_site_fract_y
  _atom_site_fract_z
  _atom_site_thermal_displace_type
  _atom_site_B_iso_or_equiv
  _atom_site_type_symbol
  Ag1      1.0000 0.84312  0.16768  0.50339  Biso   1.000  Ag
  Ag2      1.0000 0.32794  0.65101  0.19661  Biso   1.000  Ag
  Ag3      1.0000 0.22497  0.38041  0.67379  Biso   1.000  Ag
  Ag4      1.0000 0.70763  0.51679  0.64645  Biso   1.000  Ag
  Ag5      1.0000 0.38463  0.66786  0.43519  Biso   1.000  Ag
  Ag6      1.0000 0.36935  0.92406  0.93943  Biso   1.000  Ag
  Ag7      1.0000 0.43478  0.56319  0.58375  Biso   1.000  Ag
  Ag8      1.0000 0.15688  0.83232  0.49661  Biso   1.000  Ag
  Ag9      1.0000 0.67206  0.34899  0.80339  Biso   1.000  Ag
  Ag10     1.0000 0.77503  0.61959  0.32621  Biso   1.000  Ag
  Ag11     1.0000 0.29237  0.48321  0.35355  Biso   1.000  Ag
  Ag12     1.0000 0.61537  0.33214  0.56481  Biso   1.000  Ag
  Ag13     1.0000 0.63065  0.07594  0.06057  Biso   1.000  Ag
  Ag14     1.0000 0.56522  0.43681  0.41625  Biso   1.000  Ag
  H1       1.0000 0.80920  0.43980  0.99060  Biso   1.000  H
  H2       1.0000 0.01710  0.16300  0.58170  Biso   1.000  H
  H3       1.0000 0.13530  0.79420  0.15690  Biso   1.000  H
  H4       1.0000 0.73620  0.00170  0.58930  Biso   1.000  H
  H5       1.0000 0.06130  0.45560  0.44050  Biso   1.000  H
  H6       1.0000 0.32520  0.02930  0.80740  Biso   1.000  H
  H7       1.0000 0.72330  0.10770  0.41300  Biso   1.000  H
  H8       1.0000 0.57940  0.31990  0.12950  Biso   1.000  H
  H9       1.0000 0.92300  0.36650  0.44100  Biso   1.000  H
  H10      1.0000 0.08120  0.87950  0.06420  Biso   1.000  H
  H11      1.0000 0.64770  0.87100  0.59070  Biso   1.000  H
  H12      1.0000 0.42900  0.12580  0.93130  Biso   1.000  H
  H13      1.0000 0.67840  0.59380  0.98040  Biso   1.000  H
  H14      1.0000 0.34920  0.17490  0.73550  Biso   1.000  H
  H15      1.0000 0.63690  0.97700  0.40920  Biso   1.000  H
  H16      1.0000 0.44280  0.47190  0.12610  Biso   1.000  H
  H17      1.0000 0.15720  0.24730  0.58620  Biso   1.000  H
  H18      1.0000 0.86600  0.64560  0.19350  Biso   1.000  H
  H19      1.0000 0.81840  0.73120  0.10000  Biso   1.000  H
  H20      1.0000 0.45670  0.27400  0.86390  Biso   1.000  H
  H21      1.0000 0.19080  0.56020  0.00940  Biso   1.000  H
  H22      1.0000 0.98290  0.83700  0.41830  Biso   1.000  H
  H23      1.0000 0.86470  0.20580  0.84310  Biso   1.000  H
  H24      1.0000 0.26380  0.99830  0.41070  Biso   1.000  H
  H25      1.0000 0.93870  0.54440  0.55950  Biso   1.000  H
  H26      1.0000 0.67480  0.97070  0.19260  Biso   1.000  H
  H27      1.0000 0.27670  0.89230  0.58700  Biso   1.000  H
  H28      1.0000 0.42060  0.68010  0.87050  Biso   1.000  H
  H29      1.0000 0.07700  0.63350  0.55900  Biso   1.000  H
  H30      1.0000 0.91880  0.12050  0.93580  Biso   1.000  H
  H31      1.0000 0.35230  0.12900  0.40930  Biso   1.000  H
  H32      1.0000 0.57100  0.87420  0.06870  Biso   1.000  H
  H33      1.0000 0.32160  0.40620  0.01960  Biso   1.000  H
  H34      1.0000 0.65080  0.82510  0.26450  Biso   1.000  H
  H35      1.0000 0.36310  0.02300  0.59080  Biso   1.000  H
  H36      1.0000 0.55720  0.52810  0.87390  Biso   1.000  H
  H37      1.0000 0.84280  0.75270  0.41380  Biso   1.000  H
  H38      1.0000 0.13400  0.35440  0.80650  Biso   1.000  H
  H39      1.0000 0.18160  0.26880  0.90000  Biso   1.000  H
  H40      1.0000 0.54330  0.72600  0.13610  Biso   1.000  H
  C1       1.0000 0.73500  0.44760  0.01720  Biso   1.000  C
  C2       1.0000 0.02740  0.22380  0.55250  Biso   1.000  C
  C3       1.0000 0.03820  0.65840  0.24410  Biso   1.000  C
  C4       1.0000 0.46710  0.64690  0.04780  Biso   1.000  C
  C5       1.0000 0.06930  0.78180  0.14590  Biso   1.000  C
  C6       1.0000 0.71550  0.99690  0.55220  Biso   1.000  C
  C7       1.0000 0.05400  0.39560  0.47010  Biso   1.000  C
  C8       1.0000 0.35380  0.08030  0.81850  Biso   1.000  C
  C9       1.0000 0.54790  0.54980  0.05350  Biso   1.000  C
  C10      1.0000 0.70850  0.05840  0.44950  Biso   1.000  C
  C11      1.0000 0.59900  0.37770  0.09960  Biso   1.000  C
  C12      1.0000 0.97260  0.34190  0.47040  Biso   1.000  C
  C13      1.0000 0.03790  0.83180  0.09120  Biso   1.000  C
  C14      1.0000 0.66380  0.91890  0.55320  Biso   1.000  C
  C15      1.0000 0.21350  0.41880  0.51200  Biso   1.000  C
  C16      1.0000 0.41410  0.13630  0.89040  Biso   1.000  C
  C17      1.0000 0.65770  0.53900  0.01200  Biso   1.000  C
  C18      1.0000 0.63470  0.90960  0.49990  Biso   1.000  C
  C19      1.0000 0.44480  0.32590  0.74530  Biso   1.000  C
  C20      1.0000 0.36840  0.16600  0.77530  Biso   1.000  C
  C21      1.0000 0.00510  0.71240  0.18580  Biso   1.000  C
  C22      1.0000 0.57700  0.82770  0.50040  Biso   1.000  C
  C23      1.0000 0.12590  0.36190  0.51320  Biso   1.000  C
  C24      1.0000 0.65700  0.98120  0.44680  Biso   1.000  C
  C25      1.0000 0.51850  0.46690  0.09760  Biso   1.000  C
  C26      1.0000 0.11050  0.27330  0.55550  Biso   1.000  C
  C27      1.0000 0.91110  0.69410  0.16750  Biso   1.000  C
  C28      1.0000 0.41160  0.23870  0.79110  Biso   1.000  C
  C29      1.0000 0.88290  0.74460  0.11260  Biso   1.000  C
  C30      1.0000 0.43150  0.22410  0.85070  Biso   1.000  C
  C31      1.0000 0.26500  0.55240  0.98280  Biso   1.000  C
  C32      1.0000 0.97260  0.77620  0.44750  Biso   1.000  C
  C33      1.0000 0.96180  0.34160  0.75590  Biso   1.000  C
  C34      1.0000 0.53290  0.35310  0.95220  Biso   1.000  C
  C35      1.0000 0.93070  0.21820  0.85410  Biso   1.000  C
  C36      1.0000 0.28450  0.00310  0.44780  Biso   1.000  C
  C37      1.0000 0.94600  0.60440  0.52990  Biso   1.000  C
  C38      1.0000 0.64620  0.91970  0.18150  Biso   1.000  C
  C39      1.0000 0.45210  0.45020  0.94650  Biso   1.000  C
  C40      1.0000 0.29150  0.94160  0.55050  Biso   1.000  C
  C41      1.0000 0.40100  0.62230  0.90040  Biso   1.000  C
  C42      1.0000 0.02740  0.65810  0.52960  Biso   1.000  C
  C43      1.0000 0.96210  0.16820  0.90880  Biso   1.000  C
  C44      1.0000 0.33620  0.08110  0.44680  Biso   1.000  C
  C45      1.0000 0.78650  0.58120  0.48800  Biso   1.000  C
  C46      1.0000 0.58590  0.86370  0.10960  Biso   1.000  C
  C47      1.0000 0.34230  0.46100  0.98800  Biso   1.000  C
  C48      1.0000 0.36530  0.09040  0.50010  Biso   1.000  C
  C49      1.0000 0.55520  0.67410  0.25470  Biso   1.000  C
  C50      1.0000 0.63160  0.83400  0.22470  Biso   1.000  C
  C51      1.0000 0.99490  0.28760  0.81420  Biso   1.000  C
  C52      1.0000 0.42300  0.17230  0.49960  Biso   1.000  C
  C53      1.0000 0.87410  0.63810  0.48680  Biso   1.000  C
  C54      1.0000 0.34300  0.01880  0.55320  Biso   1.000  C
  C55      1.0000 0.48150  0.53310  0.90240  Biso   1.000  C
  C56      1.0000 0.88950  0.72670  0.44450  Biso   1.000  C
  C57      1.0000 0.08890  0.30590  0.83250  Biso   1.000  C
  C58      1.0000 0.58840  0.76130  0.20890  Biso   1.000  C
  C59      1.0000 0.11710  0.25540  0.88740  Biso   1.000  C
  C60      1.0000 0.56850  0.77590  0.14930  Biso   1.000  C
  N1       1.0000 0.48960  0.73640  0.47320  Biso   1.000  N
  N2       1.0000 0.55450  0.75700  0.55000  Biso   1.000  N
  N3       1.0000 0.33050  0.77610  0.06550  Biso   1.000  N
  N4       1.0000 0.25750  0.42160  0.56040  Biso   1.000  N
  N5       1.0000 0.73820  0.06620  0.50120  Biso   1.000  N
  N6       1.0000 0.94490  0.81280  0.07580  Biso   1.000  N
  N7       1.0000 0.13840  0.58400  0.31260  Biso   1.000  N
  N8       1.0000 0.70480  0.37060  0.05980  Biso   1.000  N
  N9       1.0000 0.95840  0.25650  0.51000  Biso   1.000  N
  N10      1.0000 0.38910  0.78990  0.00670  Biso   1.000  N
  N11      1.0000 0.53880  0.81670  0.45180  Biso   1.000  N
  N12      1.0000 0.25640  0.48030  0.46090  Biso   1.000  N
  N13      1.0000 0.47540  0.71130  0.99420  Biso   1.000  N
  N14      1.0000 0.37830  0.68470  0.09280  Biso   1.000  N
  N15      1.0000 0.49920  0.70050  0.53230  Biso   1.000  N
  N16      1.0000 0.54360  0.43670  0.69320  Biso   1.000  N
  N17      1.0000 0.45960  0.44050  0.66510  Biso   1.000  N
  N18      1.0000 0.14760  0.63680  0.25430  Biso   1.000  N
  N19      1.0000 0.33080  0.48630  0.53760  Biso   1.000  N
  N20      1.0000 0.96380  0.61990  0.29470  Biso   1.000  N
  N21      1.0000 0.32900  0.52180  0.47850  Biso   1.000  N
  N22      1.0000 0.39480  0.37070  0.69700  Biso   1.000  N
  N23      1.0000 0.53630  0.36570  0.74440  Biso   1.000  N
  N24      1.0000 0.02860  0.57390  0.33710  Biso   1.000  N
  N25      1.0000 0.37690  0.06380  0.87500  Biso   1.000  N
  N26      1.0000 0.51040  0.26360  0.52680  Biso   1.000  N
  N27      1.0000 0.44550  0.24300  0.45000  Biso   1.000  N
  N28      1.0000 0.66950  0.22390  0.93450  Biso   1.000  N
  N29      1.0000 0.74250  0.57840  0.43960  Biso   1.000  N
  N30      1.0000 0.26180  0.93380  0.49880  Biso   1.000  N
  N31      1.0000 0.05510  0.18720  0.92420  Biso   1.000  N
  N32      1.0000 0.86160  0.41600  0.68740  Biso   1.000  N
  N33      1.0000 0.29520  0.62940  0.94020  Biso   1.000  N
  N34      1.0000 0.04160  0.74350  0.49000  Biso   1.000  N
  N35      1.0000 0.61090  0.21010  0.99330  Biso   1.000  N
  N36      1.0000 0.46120  0.18330  0.54820  Biso   1.000  N
  N37      1.0000 0.74360  0.51970  0.53910  Biso   1.000  N
  N38      1.0000 0.52460  0.28870  0.00580  Biso   1.000  N
  N39      1.0000 0.62170  0.31530  0.90720  Biso   1.000  N
  N40      1.0000 0.50080  0.29950  0.46770  Biso   1.000  N
  N41      1.0000 0.45640  0.56330  0.30680  Biso   1.000  N
  N42      1.0000 0.54040  0.55950  0.33490  Biso   1.000  N
  N43      1.0000 0.85240  0.36320  0.74570  Biso   1.000  N
  N44      1.0000 0.66920  0.51370  0.46240  Biso   1.000  N
  N45      1.0000 0.03620  0.38010  0.70530  Biso   1.000  N
  N46      1.0000 0.67100  0.47820  0.52150  Biso   1.000  N
  N47      1.0000 0.60520  0.62930  0.30300  Biso   1.000  N
  N48      1.0000 0.46370  0.63430  0.25560  Biso   1.000  N
  N49      1.0000 0.97140  0.42610  0.66290  Biso   1.000  N
  N50      1.0000 0.62310  0.93620  0.12500  Biso   1.000  N
  O1       1.0000 0.25680  0.74460  0.36510  Biso   1.000  O
  O2       1.0000 0.55160  0.65900  0.66970  Biso   1.000  O
  O3       1.0000 0.74320  0.25540  0.63490  Biso   1.000  O
  O4       1.0000 0.44840  0.34100  0.33030  Biso   1.000  O
