data_image0
_cell_length_a       9.1269
_cell_length_b       9.3427
_cell_length_c       9.604
_cell_angle_alpha    114.455
_cell_angle_beta     90
_cell_angle_gamma    90

_symmetry_space_group_name_H-M    P 1
_symmetry_int_tables_number       1

loop_
  _symmetry_equiv_pos_as_xyz
  'x, y, z'

loop_
  _atom_site_label
  _atom_site_occupancy
  _atom_site_fract_x
  _atom_site_fract_y
  _atom_site_fract_z
  _atom_site_thermal_displace_type
  _atom_site_B_iso_or_equiv
  _atom_site_type_symbol
  Zn1      1.0000 0.56466  0.40359  0.28456  Biso   1.000  Zn
  Zn2      1.0000 0.06466  0.59641  0.71544  Biso   1.000  Zn
  H1       1.0000 0.27690  0.56640  0.45440  Biso   1.000  H
  H2       1.0000 0.43120  0.35730  0.84280  Biso   1.000  H
  H3       1.0000 0.26240  0.38770  0.84530  Biso   1.000  H
  H4       1.0000 0.57440  0.62060  0.91240  Biso   1.000  H
  H5       1.0000 0.55940  0.33830  0.59210  Biso   1.000  H
  H6       1.0000 0.67880  0.07890  0.25220  Biso   1.000  H
  H7       1.0000 0.76720  0.11180  0.12870  Biso   1.000  H
  H8       1.0000 0.28970  0.65120  0.00000  Biso   1.000  H
  H9       1.0000 0.66120  0.89240  0.93390  Biso   1.000  H
  H10      1.0000 0.74230  0.84150  0.05000  Biso   1.000  H
  H11      1.0000 0.55000  0.16100  0.04600  Biso   1.000  H
  H12      1.0000 0.47600  0.13300  0.15900  Biso   1.000  H
  H13      1.0000 0.77690  0.43360  0.54560  Biso   1.000  H
  H14      1.0000 0.93120  0.64270  0.15720  Biso   1.000  H
  H15      1.0000 0.76240  0.61230  0.15470  Biso   1.000  H
  H16      1.0000 0.07440  0.37940  0.08760  Biso   1.000  H
  H17      1.0000 0.05940  0.66170  0.40790  Biso   1.000  H
  H18      1.0000 0.17880  0.92110  0.74780  Biso   1.000  H
  H19      1.0000 0.26720  0.88820  0.87130  Biso   1.000  H
  H20      1.0000 0.78970  0.34880  0.00000  Biso   1.000  H
  H21      1.0000 0.16120  0.10760  0.06610  Biso   1.000  H
  H22      1.0000 0.24230  0.15850  0.95000  Biso   1.000  H
  H23      1.0000 0.05000  0.83900  0.95400  Biso   1.000  H
  H24      1.0000 0.97600  0.86700  0.84100  Biso   1.000  H
  C1       1.0000 0.32320  0.52150  0.51290  Biso   1.000  C
  C2       1.0000 0.35780  0.43210  0.84220  Biso   1.000  C
  C3       1.0000 0.47830  0.39650  0.58770  Biso   1.000  C
  C4       1.0000 0.37060  0.45120  0.69640  Biso   1.000  C
  C5       1.0000 0.67510  0.07190  0.14870  Biso   1.000  C
  C6       1.0000 0.38460  0.53840  0.12290  Biso   1.000  C
  C7       1.0000 0.37630  0.58490  0.98760  Biso   1.000  C
  C8       1.0000 0.65920  0.90000  0.03770  Biso   1.000  C
  C9       1.0000 0.51980  0.82550  0.06070  Biso   1.000  C
  C10      1.0000 0.82320  0.47850  0.48710  Biso   1.000  C
  C11      1.0000 0.85780  0.56790  0.15780  Biso   1.000  C
  C12      1.0000 0.97830  0.60350  0.41230  Biso   1.000  C
  C13      1.0000 0.87060  0.54880  0.30360  Biso   1.000  C
  C14      1.0000 0.17510  0.92810  0.85130  Biso   1.000  C
  C15      1.0000 0.88460  0.46160  0.87710  Biso   1.000  C
  C16      1.0000 0.87630  0.41510  0.01240  Biso   1.000  C
  C17      1.0000 0.15920  0.10000  0.96230  Biso   1.000  C
  C18      1.0000 0.01980  0.17450  0.93930  Biso   1.000  C
  N1       1.0000 0.55280  0.17350  0.13720  Biso   1.000  N
  N2       1.0000 0.50590  0.67030  0.97530  Biso   1.000  N
  N3       1.0000 0.44750  0.44100  0.47090  Biso   1.000  N
  N4       1.0000 0.27050  0.53230  0.64670  Biso   1.000  N
  N5       1.0000 0.05280  0.82650  0.86280  Biso   1.000  N
  N6       1.0000 0.00590  0.32970  0.02470  Biso   1.000  N
  N7       1.0000 0.94750  0.55900  0.52910  Biso   1.000  N
  N8       1.0000 0.77050  0.46770  0.35330  Biso   1.000  N
  O1       1.0000 0.51356  0.52440  0.16710  Biso   1.000  O
  O2       1.0000 0.26910  0.50940  0.17440  Biso   1.000  O
  O3       1.0000 0.42270  0.90290  0.15060  Biso   1.000  O
  O4       1.0000 0.01356  0.47560  0.83290  Biso   1.000  O
  O5       1.0000 0.76910  0.49060  0.82560  Biso   1.000  O
  O6       1.0000 0.92270  0.09710  0.84940  Biso   1.000  O
