data_image0
_cell_length_a       8.9687
_cell_length_b       10.906
_cell_length_c       14.585
_cell_angle_alpha    96.567
_cell_angle_beta     90
_cell_angle_gamma    90

_symmetry_space_group_name_H-M    P 1
_symmetry_int_tables_number       1

loop_
  _symmetry_equiv_pos_as_xyz
  'x, y, z'

loop_
  _atom_site_label
  _atom_site_occupancy
  _atom_site_fract_x
  _atom_site_fract_y
  _atom_site_fract_z
  _atom_site_thermal_displace_type
  _atom_site_B_iso_or_equiv
  _atom_site_type_symbol
  Zn1      1.0000 0.25328  0.06520  0.28097  Biso   1.000  Zn
  Zn2      1.0000 0.74755  0.36913  0.18782  Biso   1.000  Zn
  Zn3      1.0000 0.75328  0.93480  0.71903  Biso   1.000  Zn
  Zn4      1.0000 0.24755  0.63087  0.81218  Biso   1.000  Zn
  H1       1.0000 0.14350  0.42660  0.75810  Biso   1.000  H
  H2       1.0000 0.15600  0.49610  0.67710  Biso   1.000  H
  H3       1.0000 0.55040  0.20000  0.27930  Biso   1.000  H
  H4       1.0000 0.24820  0.18490  0.08170  Biso   1.000  H
  H5       1.0000 0.56160  0.51470  0.06370  Biso   1.000  H
  H6       1.0000 0.36360  0.33280  0.97400  Biso   1.000  H
  H7       1.0000 0.54150  0.32520  0.97640  Biso   1.000  H
  H8       1.0000 0.25740  0.60300  0.28800  Biso   1.000  H
  H9       1.0000 0.15610  0.64970  0.20870  Biso   1.000  H
  H10      1.0000 0.12340  0.87830  0.21060  Biso   1.000  H
  H11      1.0000 0.27720  0.87470  0.17320  Biso   1.000  H
  H12      1.0000 0.19640  0.79930  0.34180  Biso   1.000  H
  H13      1.0000 0.36630  0.80660  0.31000  Biso   1.000  H
  H14      1.0000 0.25850  0.73280  0.61410  Biso   1.000  H
  H15      1.0000 0.25870  0.50460  0.10220  Biso   1.000  H
  H16      1.0000 0.60640  0.02980  0.54410  Biso   1.000  H
  H17      1.0000 0.32870  0.04980  0.61460  Biso   1.000  H
  H18      1.0000 0.38710  0.36300  0.74460  Biso   1.000  H
  H19      1.0000 0.40640  0.44280  0.65980  Biso   1.000  H
  H20      1.0000 0.55010  0.77710  0.81830  Biso   1.000  H
  H21      1.0000 0.21680  0.23170  0.65960  Biso   1.000  H
  H22      1.0000 0.22280  0.31490  0.57620  Biso   1.000  H
  H23      1.0000 0.38190  0.84720  0.49500  Biso   1.000  H
  H24      1.0000 0.55690  0.82380  0.49840  Biso   1.000  H
  H25      1.0000 0.64350  0.57340  0.24190  Biso   1.000  H
  H26      1.0000 0.65600  0.50390  0.32290  Biso   1.000  H
  H27      1.0000 0.05040  0.80000  0.72070  Biso   1.000  H
  H28      1.0000 0.74820  0.81510  0.91830  Biso   1.000  H
  H29      1.0000 0.06160  0.48530  0.93630  Biso   1.000  H
  H30      1.0000 0.86360  0.66720  0.02600  Biso   1.000  H
  H31      1.0000 0.04150  0.67480  0.02360  Biso   1.000  H
  H32      1.0000 0.75740  0.39700  0.71200  Biso   1.000  H
  H33      1.0000 0.65610  0.35030  0.79130  Biso   1.000  H
  H34      1.0000 0.62340  0.12170  0.78940  Biso   1.000  H
  H35      1.0000 0.77720  0.12530  0.82680  Biso   1.000  H
  H36      1.0000 0.69640  0.20070  0.65820  Biso   1.000  H
  H37      1.0000 0.86630  0.19340  0.69000  Biso   1.000  H
  H38      1.0000 0.75850  0.26720  0.38590  Biso   1.000  H
  H39      1.0000 0.75870  0.49540  0.89780  Biso   1.000  H
  H40      1.0000 0.10640  0.97020  0.45590  Biso   1.000  H
  H41      1.0000 0.82870  0.95020  0.38540  Biso   1.000  H
  H42      1.0000 0.88710  0.63700  0.25540  Biso   1.000  H
  H43      1.0000 0.90640  0.55720  0.34020  Biso   1.000  H
  H44      1.0000 0.05010  0.22290  0.18170  Biso   1.000  H
  H45      1.0000 0.71680  0.76830  0.34040  Biso   1.000  H
  H46      1.0000 0.72280  0.68510  0.42380  Biso   1.000  H
  H47      1.0000 0.88190  0.15280  0.50500  Biso   1.000  H
  H48      1.0000 0.05690  0.17620  0.50160  Biso   1.000  H
  C1       1.0000 0.50000  0.21320  0.22400  Biso   1.000  C
  C2       1.0000 0.33550  0.20510  0.11710  Biso   1.000  C
  C3       1.0000 0.44410  0.28330  0.09440  Biso   1.000  C
  C4       1.0000 0.43910  0.55210  0.94760  Biso   1.000  C
  C5       1.0000 0.46050  0.49250  0.03800  Biso   1.000  C
  C6       1.0000 0.45240  0.35270  0.01310  Biso   1.000  C
  C7       1.0000 0.25330  0.66100  0.24060  Biso   1.000  C
  C8       1.0000 0.26320  0.79120  0.28740  Biso   1.000  C
  C9       1.0000 0.45760  0.82840  0.62280  Biso   1.000  C
  C10      1.0000 0.34380  0.75840  0.65000  Biso   1.000  C
  C11      1.0000 0.48140  0.02650  0.42290  Biso   1.000  C
  C12      1.0000 0.50210  0.00790  0.52430  Biso   1.000  C
  C13      1.0000 0.37540  0.63000  0.17220  Biso   1.000  C
  C14      1.0000 0.33470  0.39350  0.69190  Biso   1.000  C
  C15      1.0000 0.50290  0.78190  0.76050  Biso   1.000  C
  C16      1.0000 0.28260  0.28400  0.62580  Biso   1.000  C
  C17      1.0000 0.47380  0.87070  0.53030  Biso   1.000  C
  C18      1.0000 0.40610  0.20730  0.58340  Biso   1.000  C
  C19      1.0000 0.00000  0.78680  0.77600  Biso   1.000  C
  C20      1.0000 0.83550  0.79490  0.88290  Biso   1.000  C
  C21      1.0000 0.94410  0.71670  0.90560  Biso   1.000  C
  C22      1.0000 0.93910  0.44790  0.05240  Biso   1.000  C
  C23      1.0000 0.96050  0.50750  0.96200  Biso   1.000  C
  C24      1.0000 0.95240  0.64730  0.98690  Biso   1.000  C
  C25      1.0000 0.75330  0.33900  0.75940  Biso   1.000  C
  C26      1.0000 0.76320  0.20880  0.71260  Biso   1.000  C
  C27      1.0000 0.95760  0.17160  0.37720  Biso   1.000  C
  C28      1.0000 0.84380  0.24160  0.35000  Biso   1.000  C
  C29      1.0000 0.98140  0.97350  0.57710  Biso   1.000  C
  C30      1.0000 0.00210  0.99210  0.47570  Biso   1.000  C
  C31      1.0000 0.87540  0.37000  0.82780  Biso   1.000  C
  C32      1.0000 0.83470  0.60650  0.30810  Biso   1.000  C
  C33      1.0000 0.00290  0.21810  0.23950  Biso   1.000  C
  C34      1.0000 0.78260  0.71600  0.37420  Biso   1.000  C
  C35      1.0000 0.97380  0.12930  0.46970  Biso   1.000  C
  C36      1.0000 0.90610  0.79270  0.41660  Biso   1.000  C
  N1       1.0000 0.20700  0.47420  0.72750  Biso   1.000  N
  N2       1.0000 0.37300  0.73060  0.73820  Biso   1.000  N
  N3       1.0000 0.36990  0.15920  0.19900  Biso   1.000  N
  N4       1.0000 0.55360  0.28770  0.16420  Biso   1.000  N
  N5       1.0000 0.22230  0.88830  0.22660  Biso   1.000  N
  N6       1.0000 0.56330  0.84280  0.69250  Biso   1.000  N
  N7       1.0000 0.34790  0.53850  0.10560  Biso   1.000  N
  N8       1.0000 0.39650  0.08360  0.58190  Biso   1.000  N
  N9       1.0000 0.70700  0.52580  0.27250  Biso   1.000  N
  N10      1.0000 0.87300  0.26940  0.26180  Biso   1.000  N
  N11      1.0000 0.86990  0.84080  0.80100  Biso   1.000  N
  N12      1.0000 0.05360  0.71230  0.83580  Biso   1.000  N
  N13      1.0000 0.72230  0.11170  0.77340  Biso   1.000  N
  N14      1.0000 0.06330  0.15720  0.30750  Biso   1.000  N
  N15      1.0000 0.84790  0.46150  0.89440  Biso   1.000  N
  N16      1.0000 0.89650  0.91640  0.41810  Biso   1.000  N
  O1       1.0000 0.31230  0.60280  0.93500  Biso   1.000  O
  O2       1.0000 0.54310  0.54420  0.89020  Biso   1.000  O
  O3       1.0000 0.35150  0.06090  0.40000  Biso   1.000  O
  O4       1.0000 0.50010  0.68080  0.18040  Biso   1.000  O
  O5       1.0000 0.58920  0.00020  0.36940  Biso   1.000  O
  O6       1.0000 0.51530  0.25510  0.54730  Biso   1.000  O
  O7       1.0000 0.81230  0.39720  0.06500  Biso   1.000  O
  O8       1.0000 0.04310  0.45580  0.10980  Biso   1.000  O
  O9       1.0000 0.85150  0.93910  0.60000  Biso   1.000  O
  O10      1.0000 0.00010  0.31920  0.81960  Biso   1.000  O
  O11      1.0000 0.08920  0.99980  0.63060  Biso   1.000  O
  O12      1.0000 0.01530  0.74490  0.45270  Biso   1.000  O
