data_image0
_cell_length_a       9.8335
_cell_length_b       11.2727
_cell_length_c       14.4249
_cell_angle_alpha    91.242
_cell_angle_beta     90
_cell_angle_gamma    90

_symmetry_space_group_name_H-M    P 1
_symmetry_int_tables_number       1

loop_
  _symmetry_equiv_pos_as_xyz
  'x, y, z'

loop_
  _atom_site_label
  _atom_site_occupancy
  _atom_site_fract_x
  _atom_site_fract_y
  _atom_site_fract_z
  _atom_site_thermal_displace_type
  _atom_site_B_iso_or_equiv
  _atom_site_type_symbol
  Co1      1.0000 0.91933  0.75532  0.63285  Biso   1.000  Co
  Co2      1.0000 0.60929  0.76008  0.68877  Biso   1.000  Co
  Co3      1.0000 0.41933  0.74468  0.86715  Biso   1.000  Co
  Co4      1.0000 0.10929  0.73992  0.81123  Biso   1.000  Co
  Co5      1.0000 0.08067  0.24468  0.36715  Biso   1.000  Co
  Co6      1.0000 0.39071  0.23992  0.31123  Biso   1.000  Co
  Co7      1.0000 0.58067  0.25532  0.13285  Biso   1.000  Co
  Co8      1.0000 0.89071  0.26008  0.18877  Biso   1.000  Co
  Co9      1.0000 0.00000  0.50000  0.50000  Biso   1.000  Co
  Co10     1.0000 0.50000  0.00000  0.00000  Biso   1.000  Co
  Co11     1.0000 0.00000  0.00000  0.50000  Biso   1.000  Co
  Co12     1.0000 0.50000  0.50000  0.00000  Biso   1.000  Co
  H1       1.0000 0.16400  0.70100  0.43200  Biso   1.000  H
  H2       1.0000 0.71400  0.98900  0.50400  Biso   1.000  H
  H3       1.0000 0.75800  0.85900  0.86500  Biso   1.000  H
  H4       1.0000 0.62300  0.55400  0.54100  Biso   1.000  H
  H5       1.0000 0.18900  0.98200  0.74400  Biso   1.000  H
  H6       1.0000 0.03900  0.48400  0.75800  Biso   1.000  H
  H7       1.0000 0.66400  0.79900  0.06800  Biso   1.000  H
  H8       1.0000 0.21400  0.51100  0.99600  Biso   1.000  H
  H9       1.0000 0.25800  0.64100  0.63500  Biso   1.000  H
  H10      1.0000 0.12300  0.94600  0.95900  Biso   1.000  H
  H11      1.0000 0.68900  0.51800  0.75600  Biso   1.000  H
  H12      1.0000 0.53900  0.01600  0.74200  Biso   1.000  H
  H13      1.0000 0.83600  0.29900  0.56800  Biso   1.000  H
  H14      1.0000 0.28600  0.01100  0.49600  Biso   1.000  H
  H15      1.0000 0.24200  0.14100  0.13500  Biso   1.000  H
  H16      1.0000 0.37700  0.44600  0.45900  Biso   1.000  H
  H17      1.0000 0.81100  0.01800  0.25600  Biso   1.000  H
  H18      1.0000 0.96100  0.51600  0.24200  Biso   1.000  H
  H19      1.0000 0.33600  0.20100  0.93200  Biso   1.000  H
  H20      1.0000 0.78600  0.48900  0.00400  Biso   1.000  H
  H21      1.0000 0.74200  0.35900  0.36500  Biso   1.000  H
  H22      1.0000 0.87700  0.05400  0.04100  Biso   1.000  H
  H23      1.0000 0.31100  0.48200  0.24400  Biso   1.000  H
  H24      1.0000 0.46100  0.98400  0.25800  Biso   1.000  H
  C1       1.0000 0.10860  0.74240  0.47130  Biso   1.000  C
  C2       1.0000 0.72050  0.92660  0.54780  Biso   1.000  C
  C3       1.0000 0.82760  0.83220  0.83010  Biso   1.000  C
  C4       1.0000 0.71130  0.57500  0.54750  Biso   1.000  C
  C5       1.0000 0.12560  0.95590  0.68910  Biso   1.000  C
  C6       1.0000 0.01340  0.51670  0.71230  Biso   1.000  C
  C7       1.0000 0.60860  0.75760  0.02870  Biso   1.000  C
  C8       1.0000 0.22050  0.57340  0.95220  Biso   1.000  C
  C9       1.0000 0.32760  0.66780  0.66990  Biso   1.000  C
  C10      1.0000 0.21130  0.92500  0.95250  Biso   1.000  C
  C11      1.0000 0.62560  0.54410  0.81090  Biso   1.000  C
  C12      1.0000 0.51340  0.98330  0.78770  Biso   1.000  C
  C13      1.0000 0.89140  0.25760  0.52870  Biso   1.000  C
  C14      1.0000 0.27950  0.07340  0.45220  Biso   1.000  C
  C15      1.0000 0.17240  0.16780  0.16990  Biso   1.000  C
  C16      1.0000 0.28870  0.42500  0.45250  Biso   1.000  C
  C17      1.0000 0.87440  0.04410  0.31090  Biso   1.000  C
  C18      1.0000 0.98660  0.48330  0.28770  Biso   1.000  C
  C19      1.0000 0.39140  0.24240  0.97130  Biso   1.000  C
  C20      1.0000 0.77950  0.42660  0.04780  Biso   1.000  C
  C21      1.0000 0.67240  0.33220  0.33010  Biso   1.000  C
  C22      1.0000 0.78870  0.07500  0.04750  Biso   1.000  C
  C23      1.0000 0.37440  0.45590  0.18910  Biso   1.000  C
  C24      1.0000 0.48660  0.01670  0.21230  Biso   1.000  C
  O1       1.0000 0.02750  0.68500  0.52351  Biso   1.000  O
  O2       1.0000 0.11690  0.85120  0.46780  Biso   1.000  O
  O3       1.0000 0.84430  0.89630  0.55865  Biso   1.000  O
  O4       1.0000 0.62130  0.88660  0.58990  Biso   1.000  O
  O5       1.0000 0.79900  0.81050  0.74521  Biso   1.000  O
  O6       1.0000 0.93830  0.81630  0.86798  Biso   1.000  O
  O7       1.0000 0.74200  0.65290  0.60880  Biso   1.000  O
  O8       1.0000 0.79170  0.51760  0.49830  Biso   1.000  O
  O9       1.0000 0.08320  0.85030  0.69528  Biso   1.000  O
  O10      1.0000 0.09930  0.02530  0.62600  Biso   1.000  O
  O11      1.0000 0.00310  0.62870  0.71948  Biso   1.000  O
  O12      1.0000 0.99800  0.45690  0.64070  Biso   1.000  O
  O13      1.0000 0.52750  0.81500  0.97649  Biso   1.000  O
  O14      1.0000 0.61690  0.64880  0.03220  Biso   1.000  O
  O15      1.0000 0.34430  0.60370  0.94135  Biso   1.000  O
  O16      1.0000 0.12130  0.61340  0.91010  Biso   1.000  O
  O17      1.0000 0.29900  0.68950  0.75479  Biso   1.000  O
  O18      1.0000 0.43830  0.68370  0.63202  Biso   1.000  O
  O19      1.0000 0.24200  0.84710  0.89120  Biso   1.000  O
  O20      1.0000 0.29170  0.98240  0.00170  Biso   1.000  O
  O21      1.0000 0.58320  0.64970  0.80472  Biso   1.000  O
  O22      1.0000 0.59930  0.47470  0.87400  Biso   1.000  O
  O23      1.0000 0.50310  0.87130  0.78052  Biso   1.000  O
  O24      1.0000 0.49800  0.04310  0.85930  Biso   1.000  O
  O25      1.0000 0.97250  0.31500  0.47649  Biso   1.000  O
  O26      1.0000 0.88310  0.14880  0.53220  Biso   1.000  O
  O27      1.0000 0.15570  0.10370  0.44135  Biso   1.000  O
  O28      1.0000 0.37870  0.11340  0.41010  Biso   1.000  O
  O29      1.0000 0.20100  0.18950  0.25479  Biso   1.000  O
  O30      1.0000 0.06170  0.18370  0.13202  Biso   1.000  O
  O31      1.0000 0.25800  0.34710  0.39120  Biso   1.000  O
  O32      1.0000 0.20830  0.48240  0.50170  Biso   1.000  O
  O33      1.0000 0.91680  0.14970  0.30472  Biso   1.000  O
  O34      1.0000 0.90070  0.97470  0.37400  Biso   1.000  O
  O35      1.0000 0.99690  0.37130  0.28052  Biso   1.000  O
  O36      1.0000 0.00200  0.54310  0.35930  Biso   1.000  O
  O37      1.0000 0.47250  0.18500  0.02351  Biso   1.000  O
  O38      1.0000 0.38310  0.35120  0.96780  Biso   1.000  O
  O39      1.0000 0.65570  0.39630  0.05865  Biso   1.000  O
  O40      1.0000 0.87870  0.38660  0.08990  Biso   1.000  O
  O41      1.0000 0.70100  0.31050  0.24521  Biso   1.000  O
  O42      1.0000 0.56170  0.31630  0.36798  Biso   1.000  O
  O43      1.0000 0.75800  0.15290  0.10880  Biso   1.000  O
  O44      1.0000 0.70830  0.01760  0.99830  Biso   1.000  O
  O45      1.0000 0.41680  0.35030  0.19528  Biso   1.000  O
  O46      1.0000 0.40070  0.52530  0.12600  Biso   1.000  O
  O47      1.0000 0.49690  0.12870  0.21948  Biso   1.000  O
  O48      1.0000 0.50200  0.95690  0.14070  Biso   1.000  O
