data_image0
_cell_length_a       9.9304
_cell_length_b       11.4446
_cell_length_c       14.6192
_cell_angle_alpha    91.423
_cell_angle_beta     90
_cell_angle_gamma    90

_symmetry_space_group_name_H-M    P 1
_symmetry_int_tables_number       1

loop_
  _symmetry_equiv_pos_as_xyz
  'x, y, z'

loop_
  _atom_site_label
  _atom_site_occupancy
  _atom_site_fract_x
  _atom_site_fract_y
  _atom_site_fract_z
  _atom_site_thermal_displace_type
  _atom_site_B_iso_or_equiv
  _atom_site_type_symbol
  Fe1      1.0000 0.91880  0.75553  0.63240  Biso   1.000  Fe
  Fe2      1.0000 0.60731  0.76005  0.68770  Biso   1.000  Fe
  Fe3      1.0000 0.41880  0.74447  0.86760  Biso   1.000  Fe
  Fe4      1.0000 0.10731  0.73995  0.81230  Biso   1.000  Fe
  Fe5      1.0000 0.08120  0.24447  0.36760  Biso   1.000  Fe
  Fe6      1.0000 0.39269  0.23995  0.31230  Biso   1.000  Fe
  Fe7      1.0000 0.58120  0.25553  0.13240  Biso   1.000  Fe
  Fe8      1.0000 0.89269  0.26005  0.18770  Biso   1.000  Fe
  Fe9      1.0000 0.00000  0.50000  0.50000  Biso   1.000  Fe
  Fe10     1.0000 0.50000  0.00000  0.00000  Biso   1.000  Fe
  Fe11     1.0000 0.00000  0.00000  0.50000  Biso   1.000  Fe
  Fe12     1.0000 0.50000  0.50000  0.00000  Biso   1.000  Fe
  H1       1.0000 0.14900  0.71300  0.42600  Biso   1.000  H
  H2       1.0000 0.69500  0.98600  0.50200  Biso   1.000  H
  H3       1.0000 0.74200  0.85400  0.86800  Biso   1.000  H
  H4       1.0000 0.61300  0.54600  0.53700  Biso   1.000  H
  H5       1.0000 0.17600  0.97300  0.72600  Biso   1.000  H
  H6       1.0000 0.04900  0.47900  0.76500  Biso   1.000  H
  H7       1.0000 0.64900  0.78700  0.07400  Biso   1.000  H
  H8       1.0000 0.19500  0.51400  0.99800  Biso   1.000  H
  H9       1.0000 0.24200  0.64600  0.63200  Biso   1.000  H
  H10      1.0000 0.11300  0.95400  0.96300  Biso   1.000  H
  H11      1.0000 0.67600  0.52700  0.77400  Biso   1.000  H
  H12      1.0000 0.54900  0.02100  0.73500  Biso   1.000  H
  H13      1.0000 0.85100  0.28700  0.57400  Biso   1.000  H
  H14      1.0000 0.30500  0.01400  0.49800  Biso   1.000  H
  H15      1.0000 0.25800  0.14600  0.13200  Biso   1.000  H
  H16      1.0000 0.38700  0.45400  0.46300  Biso   1.000  H
  H17      1.0000 0.82400  0.02700  0.27400  Biso   1.000  H
  H18      1.0000 0.95100  0.52100  0.23500  Biso   1.000  H
  H19      1.0000 0.35100  0.21300  0.92600  Biso   1.000  H
  H20      1.0000 0.80500  0.48600  0.00200  Biso   1.000  H
  H21      1.0000 0.75800  0.35400  0.36800  Biso   1.000  H
  H22      1.0000 0.88700  0.04600  0.03700  Biso   1.000  H
  H23      1.0000 0.32400  0.47300  0.22600  Biso   1.000  H
  H24      1.0000 0.45100  0.97900  0.26500  Biso   1.000  H
  C1       1.0000 0.10370  0.74400  0.46820  Biso   1.000  C
  C2       1.0000 0.71830  0.92840  0.54960  Biso   1.000  C
  C3       1.0000 0.82430  0.82910  0.83090  Biso   1.000  C
  C4       1.0000 0.71050  0.57400  0.54820  Biso   1.000  C
  C5       1.0000 0.12350  0.95510  0.68890  Biso   1.000  C
  C6       1.0000 0.01490  0.51960  0.71140  Biso   1.000  C
  C7       1.0000 0.60370  0.75600  0.03180  Biso   1.000  C
  C8       1.0000 0.21830  0.57160  0.95040  Biso   1.000  C
  C9       1.0000 0.32430  0.67090  0.66910  Biso   1.000  C
  C10      1.0000 0.21050  0.92600  0.95180  Biso   1.000  C
  C11      1.0000 0.62350  0.54490  0.81110  Biso   1.000  C
  C12      1.0000 0.51490  0.98040  0.78860  Biso   1.000  C
  C13      1.0000 0.89630  0.25600  0.53180  Biso   1.000  C
  C14      1.0000 0.28170  0.07160  0.45040  Biso   1.000  C
  C15      1.0000 0.17570  0.17090  0.16910  Biso   1.000  C
  C16      1.0000 0.28950  0.42600  0.45180  Biso   1.000  C
  C17      1.0000 0.87650  0.04490  0.31110  Biso   1.000  C
  C18      1.0000 0.98510  0.48040  0.28860  Biso   1.000  C
  C19      1.0000 0.39630  0.24400  0.96820  Biso   1.000  C
  C20      1.0000 0.78170  0.42840  0.04960  Biso   1.000  C
  C21      1.0000 0.67570  0.32910  0.33090  Biso   1.000  C
  C22      1.0000 0.78950  0.07400  0.04820  Biso   1.000  C
  C23      1.0000 0.37650  0.45510  0.18890  Biso   1.000  C
  C24      1.0000 0.48510  0.01960  0.21140  Biso   1.000  C
  O1       1.0000 0.02710  0.68720  0.52170  Biso   1.000  O
  O2       1.0000 0.11230  0.85030  0.46300  Biso   1.000  O
  O3       1.0000 0.84160  0.89760  0.55980  Biso   1.000  O
  O4       1.0000 0.62120  0.88840  0.59100  Biso   1.000  O
  O5       1.0000 0.79780  0.80690  0.74710  Biso   1.000  O
  O6       1.0000 0.93480  0.81390  0.86870  Biso   1.000  O
  O7       1.0000 0.74060  0.65240  0.60670  Biso   1.000  O
  O8       1.0000 0.79120  0.51660  0.49980  Biso   1.000  O
  O9       1.0000 0.08200  0.85110  0.69680  Biso   1.000  O
  O10      1.0000 0.10040  0.02160  0.62690  Biso   1.000  O
  O11      1.0000 0.00340  0.62810  0.71850  Biso   1.000  O
  O12      1.0000 0.00360  0.45860  0.64050  Biso   1.000  O
  O13      1.0000 0.52710  0.81280  0.97830  Biso   1.000  O
  O14      1.0000 0.61230  0.64970  0.03700  Biso   1.000  O
  O15      1.0000 0.34160  0.60240  0.94020  Biso   1.000  O
  O16      1.0000 0.12120  0.61160  0.90900  Biso   1.000  O
  O17      1.0000 0.29780  0.69310  0.75290  Biso   1.000  O
  O18      1.0000 0.43480  0.68610  0.63130  Biso   1.000  O
  O19      1.0000 0.24060  0.84760  0.89330  Biso   1.000  O
  O20      1.0000 0.29120  0.98340  0.00020  Biso   1.000  O
  O21      1.0000 0.58200  0.64890  0.80320  Biso   1.000  O
  O22      1.0000 0.60040  0.47840  0.87310  Biso   1.000  O
  O23      1.0000 0.50340  0.87190  0.78150  Biso   1.000  O
  O24      1.0000 0.50360  0.04140  0.85950  Biso   1.000  O
  O25      1.0000 0.97290  0.31280  0.47830  Biso   1.000  O
  O26      1.0000 0.88770  0.14970  0.53700  Biso   1.000  O
  O27      1.0000 0.15840  0.10240  0.44020  Biso   1.000  O
  O28      1.0000 0.37880  0.11160  0.40900  Biso   1.000  O
  O29      1.0000 0.20220  0.19310  0.25290  Biso   1.000  O
  O30      1.0000 0.06520  0.18610  0.13130  Biso   1.000  O
  O31      1.0000 0.25940  0.34760  0.39330  Biso   1.000  O
  O32      1.0000 0.20880  0.48340  0.50020  Biso   1.000  O
  O33      1.0000 0.91800  0.14890  0.30320  Biso   1.000  O
  O34      1.0000 0.89960  0.97840  0.37310  Biso   1.000  O
  O35      1.0000 0.99660  0.37190  0.28150  Biso   1.000  O
  O36      1.0000 0.99640  0.54140  0.35950  Biso   1.000  O
  O37      1.0000 0.47290  0.18720  0.02170  Biso   1.000  O
  O38      1.0000 0.38770  0.35030  0.96300  Biso   1.000  O
  O39      1.0000 0.65840  0.39760  0.05980  Biso   1.000  O
  O40      1.0000 0.87880  0.38840  0.09100  Biso   1.000  O
  O41      1.0000 0.70220  0.30690  0.24710  Biso   1.000  O
  O42      1.0000 0.56520  0.31390  0.36870  Biso   1.000  O
  O43      1.0000 0.75940  0.15240  0.10670  Biso   1.000  O
  O44      1.0000 0.70880  0.01660  0.99980  Biso   1.000  O
  O45      1.0000 0.41800  0.35110  0.19680  Biso   1.000  O
  O46      1.0000 0.39960  0.52160  0.12690  Biso   1.000  O
  O47      1.0000 0.49660  0.12810  0.21850  Biso   1.000  O
  O48      1.0000 0.49640  0.95860  0.14050  Biso   1.000  O
