data_image0
_cell_length_a       11.3407
_cell_length_b       9.7856
_cell_length_c       14.4334
_cell_angle_alpha    90
_cell_angle_beta     91.449
_cell_angle_gamma    90

_symmetry_space_group_name_H-M    "P 1"
_symmetry_int_tables_number       1

loop_
  _symmetry_equiv_pos_as_xyz
  'x, y, z'

loop_
  _atom_site_label
  _atom_site_occupancy
  _atom_site_fract_x
  _atom_site_fract_y
  _atom_site_fract_z
  _atom_site_thermal_displace_type
  _atom_site_B_iso_or_equiv
  _atom_site_type_symbol
  Zn1      1.0000 0.24321  0.08135  0.36880  Biso   1.000  Zn
  Zn2      1.0000 0.24008  0.39482  0.31394  Biso   1.000  Zn
  O1       1.0000 0.31540  0.97350  0.47709  Biso   1.000  O
  C1       1.0000 0.25680  0.89450  0.52960  Biso   1.000  C
  H1       1.0000 0.29900  0.84600  0.57000  Biso   1.000  H
  O2       1.0000 0.14970  0.88730  0.53343  Biso   1.000  O
  O3       1.0000 0.10170  0.15730  0.44056  Biso   1.000  O
  C2       1.0000 0.06940  0.28070  0.44890  Biso   1.000  C
  H2       1.0000 0.00000  0.28900  0.48700  Biso   1.000  H
  O4       1.0000 0.11120  0.38060  0.40887  Biso   1.000  O
  O5       1.0000 0.18990  0.20270  0.25450  Biso   1.000  O
  C3       1.0000 0.16900  0.17550  0.16970  Biso   1.000  C
  H3       1.0000 0.13600  0.25000  0.12900  Biso   1.000  H
  O6       1.0000 0.18520  0.06480  0.13054  Biso   1.000  O
  O7       1.0000 0.34610  0.25930  0.39118  Biso   1.000  O
  C4       1.0000 0.42410  0.28960  0.45210  Biso   1.000  C
  H4       1.0000 0.43100  0.38500  0.45500  Biso   1.000  H
  O8       1.0000 0.48160  0.21000  0.50073  Biso   1.000  O
  O9       1.0000 0.14910  0.91890  0.30478  Biso   1.000  O
  C5       1.0000 0.04510  0.87410  0.31130  Biso   1.000  C
  H5       1.0000 0.02400  0.80900  0.26700  Biso   1.000  H
  O10      1.0000 0.97630  0.89910  0.37430  Biso   1.000  O
  O11      1.0000 0.37000  0.99730  0.28065  Biso   1.000  O
  C6       1.0000 0.48030  0.98730  0.28780  Biso   1.000  C
  H6       1.0000 0.51700  0.96600  0.23100  Biso   1.000  H
  O12      1.0000 0.54060  0.99970  0.35956  Biso   1.000  O
  Zn3      1.0000 0.25679  0.58135  0.13120  Biso   1.000  Zn
  Zn4      1.0000 0.25992  0.89482  0.18606  Biso   1.000  Zn
  O13      1.0000 0.18460  0.47350  0.02291  Biso   1.000  O
  C7       1.0000 0.24320  0.39450  0.97040  Biso   1.000  C
  H7       1.0000 0.20100  0.34600  0.93000  Biso   1.000  H
  O14      1.0000 0.35030  0.38730  0.96657  Biso   1.000  O
  O15      1.0000 0.39830  0.65730  0.05944  Biso   1.000  O
  C8       1.0000 0.43060  0.78070  0.05110  Biso   1.000  C
  H8       1.0000 0.50000  0.78900  0.01300  Biso   1.000  H
  O16      1.0000 0.38880  0.88060  0.09113  Biso   1.000  O
  O17      1.0000 0.31010  0.70270  0.24550  Biso   1.000  O
  C9       1.0000 0.33100  0.67550  0.33030  Biso   1.000  C
  H9       1.0000 0.36400  0.75000  0.37100  Biso   1.000  H
  O18      1.0000 0.31480  0.56480  0.36946  Biso   1.000  O
  O19      1.0000 0.15390  0.75930  0.10882  Biso   1.000  O
  C10      1.0000 0.07590  0.78960  0.04790  Biso   1.000  C
  H10      1.0000 0.06900  0.88500  0.04500  Biso   1.000  H
  O20      1.0000 0.01840  0.71000  0.99927  Biso   1.000  O
  O21      1.0000 0.35090  0.41890  0.19522  Biso   1.000  O
  C11      1.0000 0.45490  0.37410  0.18870  Biso   1.000  C
  H11      1.0000 0.47600  0.30900  0.23300  Biso   1.000  H
  O22      1.0000 0.52370  0.39910  0.12570  Biso   1.000  O
  O23      1.0000 0.13000  0.49730  0.21935  Biso   1.000  O
  C12      1.0000 0.01970  0.48730  0.21220  Biso   1.000  C
  H12      1.0000 0.98300  0.46600  0.26900  Biso   1.000  H
  O24      1.0000 0.95940  0.49970  0.14044  Biso   1.000  O
  Zn5      1.0000 0.75679  0.91865  0.63120  Biso   1.000  Zn
  Zn6      1.0000 0.75992  0.60518  0.68606  Biso   1.000  Zn
  O25      1.0000 0.68460  0.02650  0.52291  Biso   1.000  O
  C13      1.0000 0.74320  0.10550  0.47040  Biso   1.000  C
  H13      1.0000 0.70100  0.15400  0.43000  Biso   1.000  H
  O26      1.0000 0.85030  0.11270  0.46657  Biso   1.000  O
  O27      1.0000 0.89830  0.84270  0.55944  Biso   1.000  O
  C14      1.0000 0.93060  0.71930  0.55110  Biso   1.000  C
  H14      1.0000 0.00000  0.71100  0.51300  Biso   1.000  H
  O28      1.0000 0.88880  0.61940  0.59113  Biso   1.000  O
  O29      1.0000 0.81010  0.79730  0.74550  Biso   1.000  O
  C15      1.0000 0.83100  0.82450  0.83030  Biso   1.000  C
  H15      1.0000 0.86400  0.75000  0.87100  Biso   1.000  H
  O30      1.0000 0.81480  0.93520  0.86946  Biso   1.000  O
  O31      1.0000 0.65390  0.74070  0.60882  Biso   1.000  O
  C16      1.0000 0.57590  0.71040  0.54790  Biso   1.000  C
  H16      1.0000 0.56900  0.61500  0.54500  Biso   1.000  H
  O32      1.0000 0.51840  0.79000  0.49927  Biso   1.000  O
  O33      1.0000 0.85090  0.08110  0.69522  Biso   1.000  O
  C17      1.0000 0.95490  0.12590  0.68870  Biso   1.000  C
  H17      1.0000 0.97600  0.19100  0.73300  Biso   1.000  H
  O34      1.0000 0.02370  0.10090  0.62570  Biso   1.000  O
  O35      1.0000 0.63000  0.00270  0.71935  Biso   1.000  O
  C18      1.0000 0.51970  0.01270  0.71220  Biso   1.000  C
  H18      1.0000 0.48300  0.03400  0.76900  Biso   1.000  H
  O36      1.0000 0.45940  0.00030  0.64044  Biso   1.000  O
  Zn7      1.0000 0.74321  0.41865  0.86880  Biso   1.000  Zn
  Zn8      1.0000 0.74008  0.10518  0.81394  Biso   1.000  Zn
  O37      1.0000 0.81540  0.52650  0.97709  Biso   1.000  O
  C19      1.0000 0.75680  0.60550  0.02960  Biso   1.000  C
  H19      1.0000 0.79900  0.65400  0.07000  Biso   1.000  H
  O38      1.0000 0.64970  0.61270  0.03343  Biso   1.000  O
  O39      1.0000 0.60170  0.34270  0.94056  Biso   1.000  O
  C20      1.0000 0.56940  0.21930  0.94890  Biso   1.000  C
  H20      1.0000 0.50000  0.21100  0.98700  Biso   1.000  H
  O40      1.0000 0.61120  0.11940  0.90887  Biso   1.000  O
  O41      1.0000 0.68990  0.29730  0.75450  Biso   1.000  O
  C21      1.0000 0.66900  0.32450  0.66970  Biso   1.000  C
  H21      1.0000 0.63600  0.25000  0.62900  Biso   1.000  H
  O42      1.0000 0.68520  0.43520  0.63054  Biso   1.000  O
  O43      1.0000 0.84610  0.24070  0.89118  Biso   1.000  O
  C22      1.0000 0.92410  0.21040  0.95210  Biso   1.000  C
  H22      1.0000 0.93100  0.11500  0.95500  Biso   1.000  H
  O44      1.0000 0.98160  0.29000  0.00073  Biso   1.000  O
  O45      1.0000 0.64910  0.58110  0.80478  Biso   1.000  O
  C23      1.0000 0.54510  0.62590  0.81130  Biso   1.000  C
  H23      1.0000 0.52400  0.69100  0.76700  Biso   1.000  H
  O46      1.0000 0.47630  0.60090  0.87430  Biso   1.000  O
  O47      1.0000 0.87000  0.50270  0.78065  Biso   1.000  O
  C24      1.0000 0.98030  0.51270  0.78780  Biso   1.000  C
  H24      1.0000 0.01700  0.53400  0.73100  Biso   1.000  H
  O48      1.0000 0.04060  0.50030  0.85956  Biso   1.000  O
  Zn9      1.0000 0.50000  0.00000  0.50000  Biso   1.000  Zn
  Zn10     1.0000 0.00000  0.50000  0.00000  Biso   1.000  Zn
  Zn11     1.0000 0.00000  0.00000  0.50000  Biso   1.000  Zn
  Zn12     1.0000 0.50000  0.50000  0.00000  Biso   1.000  Zn
