data_FITHAS_charged
_audit_creation_date              2014-07-02
_audit_creation_method            'Materials Studio'
_symmetry_space_group_name_H-M    'P1'
_symmetry_Int_Tables_number       1
_symmetry_cell_setting            triclinic
loop_
_symmetry_equiv_pos_as_xyz
  x,y,z
_cell_length_a                    12.8061
_cell_length_b                    20.7872
_cell_length_c                    21.6247
_cell_angle_alpha                 103.2460
_cell_angle_beta                  90.0000
_cell_angle_gamma                 90.0000
loop_
_atom_site_label
_atom_site_type_symbol
_atom_site_fract_x
_atom_site_fract_y
_atom_site_fract_z
_atom_site_U_iso_or_equiv
_atom_site_adp_type
_atom_site_occupancy
Sc1    Sc    0.78595   0.99924   0.24225   0.01267  Uiso   1.00
Sc2    Sc    0.28595   0.50076   0.25775   0.01267  Uiso   1.00
Sc3    Sc    0.21405   0.00076   0.75775   0.01267  Uiso   1.00
Sc4    Sc    0.71405   0.49924   0.74225   0.01267  Uiso   1.00
H1     H     0.84850   0.81530   0.30400   0.01267  Uiso   1.00
H2     H     0.75180   0.72790   0.32310   0.01267  Uiso   1.00
H3     H     0.48940   0.82820   0.30180   0.01267  Uiso   1.00
H4     H     0.59290   0.91490   0.28590   0.01267  Uiso   1.00
H5     H     0.96880   0.07630   0.18390   0.01267  Uiso   1.00
H6     H     0.07520   0.16150   0.16870   0.01267  Uiso   1.00
H7     H     0.81720   0.27540   0.17390   0.01267  Uiso   1.00
H8     H     0.71620   0.18750   0.18720   0.01267  Uiso   1.00
H9     H     0.99630   0.92210   0.32000   0.01267  Uiso   1.00
H10    H     0.02760   0.91010   0.42230   0.01267  Uiso   1.00
H11    H     0.95010   0.10030   0.48940   0.01267  Uiso   1.00
H12    H     0.92030   0.11060   0.38500   0.01267  Uiso   1.00
H13    H     0.01940   0.44620   0.18140   0.01267  Uiso   1.00
H14    H     0.91000   0.35640   0.17710   0.01267  Uiso   1.00
H15    H     0.16510   0.23950   0.15830   0.01267  Uiso   1.00
H16    H     0.26790   0.33140   0.16080   0.01267  Uiso   1.00
H17    H     0.56200   0.55200   0.30900   0.01267  Uiso   1.00
H18    H     0.65790   0.64180   0.29710   0.01267  Uiso   1.00
H19    H     0.40900   0.75910   0.35170   0.01267  Uiso   1.00
H20    H     0.31310   0.66880   0.36060   0.01267  Uiso   1.00
H21    H     0.47110   0.01670   0.18140   0.01267  Uiso   1.00
H22    H     0.40040   0.03220   0.08790   0.01267  Uiso   1.00
H23    H     0.65820   0.95620   0.99670   0.01267  Uiso   1.00
H24    H     0.72790   0.94720   0.09170   0.01267  Uiso   1.00
H25    H     0.34850   0.68470   0.19600   0.01267  Uiso   1.00
H26    H     0.25180   0.77210   0.17690   0.01267  Uiso   1.00
H27    H     0.98940   0.67180   0.19820   0.01267  Uiso   1.00
H28    H     0.09290   0.58510   0.21410   0.01267  Uiso   1.00
H29    H     0.46880   0.42370   0.31610   0.01267  Uiso   1.00
H30    H     0.57520   0.33850   0.33130   0.01267  Uiso   1.00
H31    H     0.31720   0.22460   0.32610   0.01267  Uiso   1.00
H32    H     0.21620   0.31250   0.31280   0.01267  Uiso   1.00
H33    H     0.49630   0.57790   0.18000   0.01267  Uiso   1.00
H34    H     0.52760   0.58990   0.07770   0.01267  Uiso   1.00
H35    H     0.45010   0.39970   0.01060   0.01267  Uiso   1.00
H36    H     0.42030   0.38940   0.11500   0.01267  Uiso   1.00
H37    H     0.51940   0.05380   0.31860   0.01267  Uiso   1.00
H38    H     0.41000   0.14360   0.32290   0.01267  Uiso   1.00
H39    H     0.66510   0.26050   0.34170   0.01267  Uiso   1.00
H40    H     0.76790   0.16860   0.33920   0.01267  Uiso   1.00
H41    H     0.06200   0.94800   0.19100   0.01267  Uiso   1.00
H42    H     0.15790   0.85820   0.20290   0.01267  Uiso   1.00
H43    H     0.90900   0.74090   0.14830   0.01267  Uiso   1.00
H44    H     0.81310   0.83120   0.13940   0.01267  Uiso   1.00
H45    H     0.97110   0.48330   0.31860   0.01267  Uiso   1.00
H46    H     0.90040   0.46780   0.41210   0.01267  Uiso   1.00
H47    H     0.15820   0.54380   0.50330   0.01267  Uiso   1.00
H48    H     0.22790   0.55280   0.40830   0.01267  Uiso   1.00
H49    H     0.15150   0.18470   0.69600   0.01267  Uiso   1.00
H50    H     0.24820   0.27210   0.67690   0.01267  Uiso   1.00
H51    H     0.51060   0.17180   0.69820   0.01267  Uiso   1.00
H52    H     0.40710   0.08510   0.71410   0.01267  Uiso   1.00
H53    H     0.03120   0.92370   0.81610   0.01267  Uiso   1.00
H54    H     0.92480   0.83850   0.83130   0.01267  Uiso   1.00
H55    H     0.18280   0.72460   0.82610   0.01267  Uiso   1.00
H56    H     0.28380   0.81250   0.81280   0.01267  Uiso   1.00
H57    H     0.00370   0.07790   0.68000   0.01267  Uiso   1.00
H58    H     0.97240   0.08990   0.57770   0.01267  Uiso   1.00
H59    H     0.04990   0.89970   0.51060   0.01267  Uiso   1.00
H60    H     0.07970   0.88940   0.61500   0.01267  Uiso   1.00
H61    H     0.98060   0.55380   0.81860   0.01267  Uiso   1.00
H62    H     0.09000   0.64360   0.82290   0.01267  Uiso   1.00
H63    H     0.83490   0.76050   0.84170   0.01267  Uiso   1.00
H64    H     0.73210   0.66860   0.83920   0.01267  Uiso   1.00
H65    H     0.43800   0.44800   0.69100   0.01267  Uiso   1.00
H66    H     0.34210   0.35820   0.70290   0.01267  Uiso   1.00
H67    H     0.59100   0.24090   0.64830   0.01267  Uiso   1.00
H68    H     0.68690   0.33120   0.63940   0.01267  Uiso   1.00
H69    H     0.52890   0.98330   0.81860   0.01267  Uiso   1.00
H70    H     0.59960   0.96780   0.91210   0.01267  Uiso   1.00
H71    H     0.34180   0.04380   0.00330   0.01267  Uiso   1.00
H72    H     0.27210   0.05280   0.90830   0.01267  Uiso   1.00
H73    H     0.65150   0.31530   0.80400   0.01267  Uiso   1.00
H74    H     0.74820   0.22790   0.82310   0.01267  Uiso   1.00
H75    H     0.01060   0.32820   0.80180   0.01267  Uiso   1.00
H76    H     0.90710   0.41490   0.78590   0.01267  Uiso   1.00
H77    H     0.53120   0.57630   0.68390   0.01267  Uiso   1.00
H78    H     0.42480   0.66150   0.66870   0.01267  Uiso   1.00
H79    H     0.68280   0.77540   0.67390   0.01267  Uiso   1.00
H80    H     0.78380   0.68750   0.68720   0.01267  Uiso   1.00
H81    H     0.50370   0.42210   0.82000   0.01267  Uiso   1.00
H82    H     0.47240   0.41010   0.92230   0.01267  Uiso   1.00
H83    H     0.54990   0.60030   0.98940   0.01267  Uiso   1.00
H84    H     0.57970   0.61060   0.88500   0.01267  Uiso   1.00
H85    H     0.48060   0.94620   0.68140   0.01267  Uiso   1.00
H86    H     0.59000   0.85640   0.67710   0.01267  Uiso   1.00
H87    H     0.33490   0.73950   0.65830   0.01267  Uiso   1.00
H88    H     0.23210   0.83140   0.66080   0.01267  Uiso   1.00
H89    H     0.93800   0.05200   0.80900   0.01267  Uiso   1.00
H90    H     0.84210   0.14180   0.79710   0.01267  Uiso   1.00
H91    H     0.09100   0.25910   0.85170   0.01267  Uiso   1.00
H92    H     0.18690   0.16880   0.86060   0.01267  Uiso   1.00
H93    H     0.02890   0.51670   0.68140   0.01267  Uiso   1.00
H94    H     0.09960   0.53220   0.58790   0.01267  Uiso   1.00
H95    H     0.84180   0.45620   0.49670   0.01267  Uiso   1.00
H96    H     0.77210   0.44720   0.59170   0.01267  Uiso   1.00
C1     C     0.77440   0.81750   0.30390   0.01267  Uiso   1.00
C2     C     0.71720   0.76570   0.31540   0.01267  Uiso   1.00
C3     C     0.60950   0.76830   0.31580   0.01267  Uiso   1.00
C4     C     0.56330   0.82490   0.30320   0.01267  Uiso   1.00
C5     C     0.62460   0.87590   0.29290   0.01267  Uiso   1.00
C6     C     0.93890   0.11760   0.18200   0.01267  Uiso   1.00
C7     C     0.00190   0.16810   0.17300   0.01267  Uiso   1.00
C8     C     0.95890   0.22920   0.17010   0.01267  Uiso   1.00
C9     C     0.84980   0.23490   0.17580   0.01267  Uiso   1.00
C10    C     0.79000   0.18330   0.18420   0.01267  Uiso   1.00
C11    C     0.98630   0.95860   0.35500   0.01267  Uiso   1.00
C12    C     0.00500   0.95160   0.41580   0.01267  Uiso   1.00
C13    C     0.99170   0.00310   0.46630   0.01267  Uiso   1.00
C14    C     0.95960   0.06320   0.45480   0.01267  Uiso   1.00
C15    C     0.94140   0.06940   0.39290   0.01267  Uiso   1.00
C16    C     0.04830   0.40330   0.17640   0.01267  Uiso   1.00
C17    C     0.98350   0.34990   0.17430   0.01267  Uiso   1.00
C18    C     0.02380   0.28660   0.16820   0.01267  Uiso   1.00
C19    C     0.13300   0.28160   0.16300   0.01267  Uiso   1.00
C20    C     0.19420   0.33600   0.16470   0.01267  Uiso   1.00
C21    C     0.53110   0.59470   0.31680   0.01267  Uiso   1.00
C22    C     0.58730   0.64780   0.31080   0.01267  Uiso   1.00
C23    C     0.54500   0.71100   0.32390   0.01267  Uiso   1.00
C24    C     0.44090   0.71670   0.34240   0.01267  Uiso   1.00
C25    C     0.38420   0.66380   0.34770   0.01267  Uiso   1.00
C26    C     0.51060   0.00500   0.14320   0.01267  Uiso   1.00
C27    C     0.46830   0.01380   0.08750   0.01267  Uiso   1.00
C28    C     0.52240   0.99630   0.03070   0.01267  Uiso   1.00
C29    C     0.61830   0.97040   0.03440   0.01267  Uiso   1.00
C30    C     0.65910   0.96400   0.09070   0.01267  Uiso   1.00
C31    C     0.27440   0.68250   0.19610   0.01267  Uiso   1.00
C32    C     0.21720   0.73430   0.18460   0.01267  Uiso   1.00
C33    C     0.10950   0.73170   0.18420   0.01267  Uiso   1.00
C34    C     0.06330   0.67510   0.19680   0.01267  Uiso   1.00
C35    C     0.12460   0.62410   0.20710   0.01267  Uiso   1.00
C36    C     0.43890   0.38240   0.31800   0.01267  Uiso   1.00
C37    C     0.50190   0.33190   0.32700   0.01267  Uiso   1.00
C38    C     0.45890   0.27080   0.32990   0.01267  Uiso   1.00
C39    C     0.34980   0.26510   0.32420   0.01267  Uiso   1.00
C40    C     0.29000   0.31670   0.31580   0.01267  Uiso   1.00
C41    C     0.48630   0.54140   0.14500   0.01267  Uiso   1.00
C42    C     0.50500   0.54840   0.08420   0.01267  Uiso   1.00
C43    C     0.49170   0.49690   0.03370   0.01267  Uiso   1.00
C44    C     0.45960   0.43680   0.04520   0.01267  Uiso   1.00
C45    C     0.44140   0.43060   0.10710   0.01267  Uiso   1.00
C46    C     0.54830   0.09670   0.32360   0.01267  Uiso   1.00
C47    C     0.48350   0.15010   0.32570   0.01267  Uiso   1.00
C48    C     0.52380   0.21340   0.33180   0.01267  Uiso   1.00
C49    C     0.63300   0.21840   0.33700   0.01267  Uiso   1.00
C50    C     0.69420   0.16400   0.33530   0.01267  Uiso   1.00
C51    C     0.03110   0.90530   0.18320   0.01267  Uiso   1.00
C52    C     0.08730   0.85220   0.18920   0.01267  Uiso   1.00
C53    C     0.04500   0.78900   0.17610   0.01267  Uiso   1.00
C54    C     0.94090   0.78330   0.15760   0.01267  Uiso   1.00
C55    C     0.88420   0.83620   0.15230   0.01267  Uiso   1.00
C56    C     0.01060   0.49500   0.35680   0.01267  Uiso   1.00
C57    C     0.96830   0.48620   0.41250   0.01267  Uiso   1.00
C58    C     0.02240   0.50370   0.46930   0.01267  Uiso   1.00
C59    C     0.11830   0.52960   0.46560   0.01267  Uiso   1.00
C60    C     0.15910   0.53600   0.40930   0.01267  Uiso   1.00
C61    C     0.22560   0.18250   0.69610   0.01267  Uiso   1.00
C62    C     0.28280   0.23430   0.68460   0.01267  Uiso   1.00
C63    C     0.39050   0.23170   0.68420   0.01267  Uiso   1.00
C64    C     0.43670   0.17510   0.69680   0.01267  Uiso   1.00
C65    C     0.37540   0.12410   0.70710   0.01267  Uiso   1.00
C66    C     0.06110   0.88240   0.81800   0.01267  Uiso   1.00
C67    C     0.99810   0.83190   0.82700   0.01267  Uiso   1.00
C68    C     0.04110   0.77080   0.82990   0.01267  Uiso   1.00
C69    C     0.15020   0.76510   0.82420   0.01267  Uiso   1.00
C70    C     0.21000   0.81670   0.81580   0.01267  Uiso   1.00
C71    C     0.01370   0.04140   0.64500   0.01267  Uiso   1.00
C72    C     0.99500   0.04840   0.58420   0.01267  Uiso   1.00
C73    C     0.00830   0.99690   0.53370   0.01267  Uiso   1.00
C74    C     0.04040   0.93680   0.54520   0.01267  Uiso   1.00
C75    C     0.05860   0.93060   0.60710   0.01267  Uiso   1.00
C76    C     0.95170   0.59670   0.82360   0.01267  Uiso   1.00
C77    C     0.01650   0.65010   0.82570   0.01267  Uiso   1.00
C78    C     0.97620   0.71340   0.83180   0.01267  Uiso   1.00
C79    C     0.86700   0.71840   0.83700   0.01267  Uiso   1.00
C80    C     0.80580   0.66400   0.83530   0.01267  Uiso   1.00
C81    C     0.46890   0.40530   0.68320   0.01267  Uiso   1.00
C82    C     0.41270   0.35220   0.68920   0.01267  Uiso   1.00
C83    C     0.45500   0.28900   0.67610   0.01267  Uiso   1.00
C84    C     0.55910   0.28330   0.65760   0.01267  Uiso   1.00
C85    C     0.61580   0.33620   0.65230   0.01267  Uiso   1.00
C86    C     0.48940   0.99500   0.85680   0.01267  Uiso   1.00
C87    C     0.53170   0.98620   0.91250   0.01267  Uiso   1.00
C88    C     0.47760   0.00370   0.96930   0.01267  Uiso   1.00
C89    C     0.38170   0.02960   0.96560   0.01267  Uiso   1.00
C90    C     0.34090   0.03600   0.90930   0.01267  Uiso   1.00
C91    C     0.72560   0.31750   0.80390   0.01267  Uiso   1.00
C92    C     0.78280   0.26570   0.81540   0.01267  Uiso   1.00
C93    C     0.89050   0.26830   0.81580   0.01267  Uiso   1.00
C94    C     0.93670   0.32490   0.80320   0.01267  Uiso   1.00
C95    C     0.87540   0.37590   0.79290   0.01267  Uiso   1.00
C96    C     0.56110   0.61760   0.68200   0.01267  Uiso   1.00
C97    C     0.49810   0.66810   0.67300   0.01267  Uiso   1.00
C98    C     0.54110   0.72920   0.67010   0.01267  Uiso   1.00
C99    C     0.65020   0.73490   0.67580   0.01267  Uiso   1.00
C100   C     0.71000   0.68330   0.68420   0.01267  Uiso   1.00
C101   C     0.51370   0.45860   0.85500   0.01267  Uiso   1.00
C102   C     0.49500   0.45160   0.91580   0.01267  Uiso   1.00
C103   C     0.50830   0.50310   0.96630   0.01267  Uiso   1.00
C104   C     0.54040   0.56320   0.95480   0.01267  Uiso   1.00
C105   C     0.55860   0.56940   0.89290   0.01267  Uiso   1.00
C106   C     0.45170   0.90330   0.67640   0.01267  Uiso   1.00
C107   C     0.51650   0.84990   0.67430   0.01267  Uiso   1.00
C108   C     0.47620   0.78660   0.66820   0.01267  Uiso   1.00
C109   C     0.36700   0.78160   0.66300   0.01267  Uiso   1.00
C110   C     0.30580   0.83600   0.66470   0.01267  Uiso   1.00
C111   C     0.96890   0.09470   0.81680   0.01267  Uiso   1.00
C112   C     0.91270   0.14780   0.81080   0.01267  Uiso   1.00
C113   C     0.95500   0.21100   0.82390   0.01267  Uiso   1.00
C114   C     0.05910   0.21670   0.84240   0.01267  Uiso   1.00
C115   C     0.11580   0.16380   0.84770   0.01267  Uiso   1.00
C116   C     0.98940   0.50500   0.64320   0.01267  Uiso   1.00
C117   C     0.03170   0.51380   0.58750   0.01267  Uiso   1.00
C118   C     0.97760   0.49630   0.53070   0.01267  Uiso   1.00
C119   C     0.88170   0.47040   0.53440   0.01267  Uiso   1.00
C120   C     0.84090   0.46400   0.59070   0.01267  Uiso   1.00
N1     N     0.72800   0.87040   0.29260   0.01267  Uiso   1.00
N2     N     0.83640   0.12640   0.18820   0.01267  Uiso   1.00
N3     N     0.95400   0.01660   0.34480   0.01267  Uiso   1.00
N4     N     0.15070   0.39490   0.17160   0.01267  Uiso   1.00
N5     N     0.42950   0.60350   0.33440   0.01267  Uiso   1.00
N6     N     0.60480   0.98070   0.14450   0.01267  Uiso   1.00
N7     N     0.22800   0.62960   0.20740   0.01267  Uiso   1.00
N8     N     0.33640   0.37360   0.31180   0.01267  Uiso   1.00
N9     N     0.45400   0.48340   0.15520   0.01267  Uiso   1.00
N10    N     0.65070   0.10510   0.32840   0.01267  Uiso   1.00
N11    N     0.92950   0.89650   0.16560   0.01267  Uiso   1.00
N12    N     0.10480   0.51930   0.35550   0.01267  Uiso   1.00
N13    N     0.27200   0.12960   0.70740   0.01267  Uiso   1.00
N14    N     0.16360   0.87360   0.81180   0.01267  Uiso   1.00
N15    N     0.04600   0.98340   0.65520   0.01267  Uiso   1.00
N16    N     0.84930   0.60510   0.82840   0.01267  Uiso   1.00
N17    N     0.57050   0.39650   0.66560   0.01267  Uiso   1.00
N18    N     0.39520   0.01930   0.85550   0.01267  Uiso   1.00
N19    N     0.77200   0.37040   0.79260   0.01267  Uiso   1.00
N20    N     0.66360   0.62640   0.68820   0.01267  Uiso   1.00
N21    N     0.54600   0.51660   0.84480   0.01267  Uiso   1.00
N22    N     0.34930   0.89490   0.67160   0.01267  Uiso   1.00
N23    N     0.07050   0.10350   0.83440   0.01267  Uiso   1.00
N24    N     0.89520   0.48070   0.64450   0.01267  Uiso   1.00
O1     O     0.78780   0.91810   0.28090   0.01267  Uiso   1.00
O2     O     0.77440   0.07820   0.19940   0.01267  Uiso   1.00
O3     O     0.93250   0.02180   0.28540   0.01267  Uiso   1.00
O4     O     0.21270   0.44870   0.17450   0.01267  Uiso   1.00
O5     O     0.37090   0.55010   0.33810   0.01267  Uiso   1.00
O6     O     0.64150   0.97270   0.19970   0.01267  Uiso   1.00
O7     O     0.28780   0.58190   0.21910   0.01267  Uiso   1.00
O8     O     0.27440   0.42180   0.30060   0.01267  Uiso   1.00
O9     O     0.43250   0.47820   0.21460   0.01267  Uiso   1.00
O10    O     0.71270   0.05130   0.32550   0.01267  Uiso   1.00
O11    O     0.87090   0.94990   0.16190   0.01267  Uiso   1.00
O12    O     0.14150   0.52730   0.30030   0.01267  Uiso   1.00
O13    O     0.21220   0.08190   0.71910   0.01267  Uiso   1.00
O14    O     0.22560   0.92180   0.80060   0.01267  Uiso   1.00
O15    O     0.06750   0.97820   0.71460   0.01267  Uiso   1.00
O16    O     0.78730   0.55130   0.82550   0.01267  Uiso   1.00
O17    O     0.62910   0.44990   0.66190   0.01267  Uiso   1.00
O18    O     0.35850   0.02730   0.80030   0.01267  Uiso   1.00
O19    O     0.71220   0.41810   0.78090   0.01267  Uiso   1.00
O20    O     0.72560   0.57820   0.69940   0.01267  Uiso   1.00
O21    O     0.56750   0.52180   0.78540   0.01267  Uiso   1.00
O22    O     0.28730   0.94870   0.67450   0.01267  Uiso   1.00
O23    O     0.12910   0.05010   0.83810   0.01267  Uiso   1.00
O24    O     0.85850   0.47270   0.69970   0.01267  Uiso   1.00
C121   C     0.50360   0.21880   0.07320   0.01267  Uiso   1.00
S1     S     0.50490   0.24749   0.15812   0.01267  Uiso   1.00
O25    O     0.60760   0.27700   0.17200   0.01267  Uiso   1.00
O26    O     0.49940   0.19040   0.18130   0.01267  Uiso   1.00
O27    O     0.42350   0.29540   0.17100   0.01267  Uiso   1.00
F1     F     0.41380   0.18690   0.05620   0.01267  Uiso   1.00
F2     F     0.51110   0.26820   0.04520   0.01267  Uiso   1.00
F3     F     0.57560   0.17460   0.05210   0.01267  Uiso   1.00
C122   C     0.49550   0.79640   0.11730   0.01267  Uiso   1.00
S2     S     0.58470   0.73360   0.13307   0.01267  Uiso   1.00
O28    O     0.67330   0.77220   0.16140   0.01267  Uiso   1.00
O29    O     0.60350   0.69360   0.07050   0.01267  Uiso   1.00
O30    O     0.52620   0.70120   0.17430   0.01267  Uiso   1.00
F4     F     0.46630   0.83720   0.17110   0.01267  Uiso   1.00
F5     F     0.40860   0.76850   0.08840   0.01267  Uiso   1.00
F6     F     0.53830   0.83140   0.08040   0.01267  Uiso   1.00
C123   C     0.32750   0.96530   0.37740   0.01267  Uiso   1.00
S3     S     0.31320   0.94890   0.29559   0.01267  Uiso   1.00
O31    O     0.30830   0.87520   0.28220   0.01267  Uiso   1.00
O32    O     0.40350   0.97290   0.27540   0.01267  Uiso   1.00
O33    O     0.21350   0.97740   0.28440   0.01267  Uiso   1.00
F7     F     0.41510   0.93830   0.39600   0.01267  Uiso   1.00
F8     F     0.32960   0.03480   0.40060   0.01267  Uiso   1.00
F9     F     0.24800   0.94640   0.40920   0.01267  Uiso   1.00
C124   C     0.00360   0.28120   0.42680   0.01267  Uiso   1.00
S4     S     0.00490   0.25251   0.34188   0.01267  Uiso   1.00
O34    O     0.10760   0.22300   0.32800   0.01267  Uiso   1.00
O35    O     0.99940   0.30960   0.31870   0.01267  Uiso   1.00
O36    O     0.92350   0.20460   0.32900   0.01267  Uiso   1.00
F10    F     0.91380   0.31310   0.44380   0.01267  Uiso   1.00
F11    F     0.01110   0.23180   0.45480   0.01267  Uiso   1.00
F12    F     0.07560   0.32540   0.44790   0.01267  Uiso   1.00
C125   C     0.99550   0.70360   0.38270   0.01267  Uiso   1.00
S5     S     0.08470   0.76640   0.36693   0.01267  Uiso   1.00
O37    O     0.17330   0.72780   0.33860   0.01267  Uiso   1.00
O38    O     0.10350   0.80640   0.42950   0.01267  Uiso   1.00
O39    O     0.02620   0.79880   0.32570   0.01267  Uiso   1.00
F13    F     0.96630   0.66280   0.32890   0.01267  Uiso   1.00
F14    F     0.90860   0.73150   0.41160   0.01267  Uiso   1.00
F15    F     0.03830   0.66860   0.41960   0.01267  Uiso   1.00
C126   C     0.82750   0.53470   0.12260   0.01267  Uiso   1.00
S6     S     0.81320   0.55110   0.20441   0.01267  Uiso   1.00
O40    O     0.80830   0.62480   0.21780   0.01267  Uiso   1.00
O41    O     0.90350   0.52710   0.22460   0.01267  Uiso   1.00
O42    O     0.71350   0.52260   0.21560   0.01267  Uiso   1.00
F16    F     0.91510   0.56170   0.10400   0.01267  Uiso   1.00
F17    F     0.82960   0.46520   0.09940   0.01267  Uiso   1.00
F18    F     0.74800   0.55360   0.09080   0.01267  Uiso   1.00
C127   C     0.49640   0.78120   0.92680   0.01267  Uiso   1.00
S7     S     0.49510   0.75251   0.84188   0.01267  Uiso   1.00
O43    O     0.39240   0.72300   0.82800   0.01267  Uiso   1.00
O44    O     0.50060   0.80960   0.81870   0.01267  Uiso   1.00
O45    O     0.57650   0.70460   0.82900   0.01267  Uiso   1.00
F19    F     0.58620   0.81310   0.94380   0.01267  Uiso   1.00
F20    F     0.48890   0.73180   0.95480   0.01267  Uiso   1.00
F21    F     0.42440   0.82540   0.94790   0.01267  Uiso   1.00
C128   C     0.50450   0.20360   0.88270   0.01267  Uiso   1.00
S8     S     0.41530   0.26640   0.86693   0.01267  Uiso   1.00
O46    O     0.32670   0.22780   0.83860   0.01267  Uiso   1.00
O47    O     0.39650   0.30640   0.92950   0.01267  Uiso   1.00
O48    O     0.47380   0.29880   0.82570   0.01267  Uiso   1.00
F22    F     0.53370   0.16280   0.82890   0.01267  Uiso   1.00
F23    F     0.59140   0.23150   0.91160   0.01267  Uiso   1.00
F24    F     0.46170   0.16860   0.91960   0.01267  Uiso   1.00
C129   C     0.67250   0.03470   0.62260   0.01267  Uiso   1.00
S9     S     0.68680   0.05110   0.70441   0.01267  Uiso   1.00
O49    O     0.69170   0.12480   0.71780   0.01267  Uiso   1.00
O50    O     0.59650   0.02710   0.72460   0.01267  Uiso   1.00
O51    O     0.78650   0.02260   0.71560   0.01267  Uiso   1.00
F25    F     0.58490   0.06170   0.60400   0.01267  Uiso   1.00
F26    F     0.67040   0.96520   0.59940   0.01267  Uiso   1.00
F27    F     0.75200   0.05360   0.59080   0.01267  Uiso   1.00
C130   C     0.99640   0.71880   0.57320   0.01267  Uiso   1.00
S10    S     0.99510   0.74749   0.65812   0.01267  Uiso   1.00
O52    O     0.89240   0.77700   0.67200   0.01267  Uiso   1.00
O53    O     0.00060   0.69040   0.68130   0.01267  Uiso   1.00
O54    O     0.07650   0.79540   0.67100   0.01267  Uiso   1.00
F28    F     0.08620   0.68690   0.55620   0.01267  Uiso   1.00
F29    F     0.98890   0.76820   0.54520   0.01267  Uiso   1.00
F30    F     0.92440   0.67460   0.55210   0.01267  Uiso   1.00
C131   C     0.00450   0.29640   0.61730   0.01267  Uiso   1.00
S11    S     0.91530   0.23360   0.63307   0.01267  Uiso   1.00
O55    O     0.82670   0.27220   0.66140   0.01267  Uiso   1.00
O56    O     0.89650   0.19360   0.57050   0.01267  Uiso   1.00
O57    O     0.97380   0.20120   0.67430   0.01267  Uiso   1.00
F31    F     0.03370   0.33720   0.67110   0.01267  Uiso   1.00
F32    F     0.09140   0.26850   0.58840   0.01267  Uiso   1.00
F33    F     0.96170   0.33140   0.58040   0.01267  Uiso   1.00
C132   C     0.17250   0.46530   0.87740   0.01267  Uiso   1.00
S12    S     0.18680   0.44890   0.79559   0.01267  Uiso   1.00
O58    O     0.19170   0.37520   0.78220   0.01267  Uiso   1.00
O59    O     0.09650   0.47290   0.77540   0.01267  Uiso   1.00
O60    O     0.28650   0.47740   0.78440   0.01267  Uiso   1.00
F34    F     0.08490   0.43830   0.89600   0.01267  Uiso   1.00
F35    F     0.17040   0.53480   0.90060   0.01267  Uiso   1.00
F36    F     0.25200   0.44640   0.90920   0.01267  Uiso   1.00
