data_image0
_cell_length_a       10.0476
_cell_length_b       14.9869
_cell_length_c       22.2426
_cell_angle_alpha    90
_cell_angle_beta     90
_cell_angle_gamma    107.586

_symmetry_space_group_name_H-M    P 1
_symmetry_int_tables_number       1

loop_
  _symmetry_equiv_pos_as_xyz
  'x, y, z'

loop_
  _atom_site_label
  _atom_site_occupancy
  _atom_site_fract_x
  _atom_site_fract_y
  _atom_site_fract_z
  _atom_site_thermal_displace_type
  _atom_site_B_iso_or_equiv
  _atom_site_type_symbol
  Er1      1.0000 0.02620  0.49739  0.14140  Biso   1.000  Er
  Er2      1.0000 0.41716  0.24684  0.15621  Biso   1.000  Er
  Er3      1.0000 0.24157  0.90742  0.01384  Biso   1.000  Er
  Er4      1.0000 0.47380  0.00261  0.64140  Biso   1.000  Er
  Er5      1.0000 0.08284  0.25316  0.65621  Biso   1.000  Er
  Er6      1.0000 0.25843  0.59258  0.51384  Biso   1.000  Er
  Er7      1.0000 0.97380  0.50261  0.85860  Biso   1.000  Er
  Er8      1.0000 0.58284  0.75316  0.84379  Biso   1.000  Er
  Er9      1.0000 0.75843  0.09258  0.98616  Biso   1.000  Er
  Er10     1.0000 0.52620  0.99739  0.35860  Biso   1.000  Er
  Er11     1.0000 0.91716  0.74684  0.34379  Biso   1.000  Er
  Er12     1.0000 0.74157  0.40742  0.48616  Biso   1.000  Er
  P1       1.0000 0.45060  0.15444  0.00861  Biso   1.000  P
  P2       1.0000 0.04940  0.34556  0.50861  Biso   1.000  P
  P3       1.0000 0.54940  0.84556  0.99139  Biso   1.000  P
  P4       1.0000 0.95060  0.65444  0.49139  Biso   1.000  P
  H1       1.0000 0.37010  0.31730  0.01050  Biso   1.000  H
  H2       1.0000 0.25420  0.17790  0.96280  Biso   1.000  H
  H3       1.0000 0.37870  0.20180  0.91710  Biso   1.000  H
  H4       1.0000 0.58810  0.34210  0.97320  Biso   1.000  H
  H5       1.0000 0.53320  0.36370  0.91060  Biso   1.000  H
  H6       1.0000 0.53720  0.43050  0.96530  Biso   1.000  H
  H7       1.0000 0.17990  0.31010  0.95140  Biso   1.000  H
  H8       1.0000 0.28610  0.41120  0.95180  Biso   1.000  H
  H9       1.0000 0.28160  0.34450  0.89700  Biso   1.000  H
  H10      1.0000 0.12990  0.18270  0.51050  Biso   1.000  H
  H11      1.0000 0.24580  0.32210  0.46280  Biso   1.000  H
  H12      1.0000 0.12130  0.29820  0.41710  Biso   1.000  H
  H13      1.0000 0.91190  0.15790  0.47320  Biso   1.000  H
  H14      1.0000 0.96680  0.13630  0.41060  Biso   1.000  H
  H15      1.0000 0.96280  0.06950  0.46530  Biso   1.000  H
  H16      1.0000 0.32010  0.18990  0.45140  Biso   1.000  H
  H17      1.0000 0.21390  0.08880  0.45180  Biso   1.000  H
  H18      1.0000 0.21840  0.15550  0.39700  Biso   1.000  H
  H19      1.0000 0.62990  0.68270  0.98950  Biso   1.000  H
  H20      1.0000 0.74580  0.82210  0.03720  Biso   1.000  H
  H21      1.0000 0.62130  0.79820  0.08290  Biso   1.000  H
  H22      1.0000 0.41190  0.65790  0.02680  Biso   1.000  H
  H23      1.0000 0.46680  0.63630  0.08940  Biso   1.000  H
  H24      1.0000 0.46280  0.56950  0.03470  Biso   1.000  H
  H25      1.0000 0.82010  0.68990  0.04860  Biso   1.000  H
  H26      1.0000 0.71390  0.58880  0.04820  Biso   1.000  H
  H27      1.0000 0.71840  0.65550  0.10300  Biso   1.000  H
  H28      1.0000 0.87010  0.81730  0.48950  Biso   1.000  H
  H29      1.0000 0.75420  0.67790  0.53720  Biso   1.000  H
  H30      1.0000 0.87870  0.70180  0.58290  Biso   1.000  H
  H31      1.0000 0.08810  0.84210  0.52680  Biso   1.000  H
  H32      1.0000 0.03320  0.86370  0.58940  Biso   1.000  H
  H33      1.0000 0.03720  0.93050  0.53470  Biso   1.000  H
  H34      1.0000 0.67990  0.81010  0.54860  Biso   1.000  H
  H35      1.0000 0.78610  0.91120  0.54820  Biso   1.000  H
  H36      1.0000 0.78160  0.84450  0.60300  Biso   1.000  H
  C1       1.0000 0.21840  0.37070  0.18120  Biso   1.000  C
  C2       1.0000 0.23990  0.38190  0.11250  Biso   1.000  C
  C3       1.0000 0.97430  0.66400  0.21910  Biso   1.000  C
  C4       1.0000 0.95260  0.58070  0.26360  Biso   1.000  C
  C5       1.0000 0.74810  0.33040  0.16190  Biso   1.000  C
  C6       1.0000 0.69810  0.41610  0.15020  Biso   1.000  C
  C7       1.0000 0.95570  0.44800  0.99890  Biso   1.000  C
  C8       1.0000 0.99040  0.99910  0.03510  Biso   1.000  C
  C9       1.0000 0.35320  0.20980  0.95840  Biso   1.000  C
  C10      1.0000 0.52180  0.36660  0.95340  Biso   1.000  C
  C11      1.0000 0.27190  0.34740  0.93980  Biso   1.000  C
  C12      1.0000 0.28160  0.12930  0.68120  Biso   1.000  C
  C13      1.0000 0.26010  0.11810  0.61250  Biso   1.000  C
  C14      1.0000 0.52570  0.83600  0.71910  Biso   1.000  C
  C15      1.0000 0.54740  0.91930  0.76360  Biso   1.000  C
  C16      1.0000 0.75190  0.16960  0.66190  Biso   1.000  C
  C17      1.0000 0.80190  0.08390  0.65020  Biso   1.000  C
  C18      1.0000 0.54430  0.05200  0.49890  Biso   1.000  C
  C19      1.0000 0.50960  0.50090  0.53510  Biso   1.000  C
  C20      1.0000 0.14680  0.29020  0.45840  Biso   1.000  C
  C21      1.0000 0.97820  0.13340  0.45340  Biso   1.000  C
  C22      1.0000 0.22810  0.15260  0.43980  Biso   1.000  C
  C23      1.0000 0.78160  0.62930  0.81880  Biso   1.000  C
  C24      1.0000 0.76010  0.61810  0.88750  Biso   1.000  C
  C25      1.0000 0.02570  0.33600  0.78090  Biso   1.000  C
  C26      1.0000 0.04740  0.41930  0.73640  Biso   1.000  C
  C27      1.0000 0.25190  0.66960  0.83810  Biso   1.000  C
  C28      1.0000 0.30190  0.58390  0.84980  Biso   1.000  C
  C29      1.0000 0.04430  0.55200  0.00110  Biso   1.000  C
  C30      1.0000 0.00960  0.00090  0.96490  Biso   1.000  C
  C31      1.0000 0.64680  0.79020  0.04160  Biso   1.000  C
  C32      1.0000 0.47820  0.63340  0.04660  Biso   1.000  C
  C33      1.0000 0.72810  0.65260  0.06020  Biso   1.000  C
  C34      1.0000 0.71840  0.87070  0.31880  Biso   1.000  C
  C35      1.0000 0.73990  0.88190  0.38750  Biso   1.000  C
  C36      1.0000 0.47430  0.16400  0.28090  Biso   1.000  C
  C37      1.0000 0.45260  0.08070  0.23640  Biso   1.000  C
  C38      1.0000 0.24810  0.83040  0.33810  Biso   1.000  C
  C39      1.0000 0.19810  0.91610  0.34980  Biso   1.000  C
  C40      1.0000 0.45570  0.94800  0.50110  Biso   1.000  C
  C41      1.0000 0.49040  0.49910  0.46490  Biso   1.000  C
  C42      1.0000 0.85320  0.70980  0.54160  Biso   1.000  C
  C43      1.0000 0.02180  0.86660  0.54660  Biso   1.000  C
  C44      1.0000 0.77190  0.84740  0.56020  Biso   1.000  C
  N1       1.0000 0.37890  0.31050  0.97020  Biso   1.000  N
  N2       1.0000 0.12110  0.18950  0.47020  Biso   1.000  N
  N3       1.0000 0.62110  0.68950  0.02980  Biso   1.000  N
  N4       1.0000 0.87890  0.81050  0.52980  Biso   1.000  N
  O1       1.0000 0.27870  0.32050  0.20840  Biso   1.000  O
  O2       1.0000 0.14190  0.41440  0.20390  Biso   1.000  O
  O3       1.0000 0.18600  0.43530  0.08660  Biso   1.000  O
  O4       1.0000 0.31340  0.33510  0.09030  Biso   1.000  O
  O5       1.0000 0.95180  0.73660  0.23850  Biso   1.000  O
  O6       1.0000 0.01080  0.65070  0.16710  Biso   1.000  O
  O7       1.0000 0.92000  0.59590  0.31700  Biso   1.000  O
  O8       1.0000 0.97010  0.50760  0.24440  Biso   1.000  O
  O9       1.0000 0.56730  0.40080  0.15240  Biso   1.000  O
  O10      1.0000 0.78690  0.49110  0.13960  Biso   1.000  O
  O11      1.0000 0.65680  0.25280  0.16730  Biso   1.000  O
  O12      1.0000 0.87790  0.34500  0.16590  Biso   1.000  O
  O13      1.0000 0.91790  0.40910  0.04800  Biso   1.000  O
  O14      1.0000 0.92950  0.41190  0.94720  Biso   1.000  O
  O15      1.0000 0.06690  0.96300  0.06440  Biso   1.000  O
  O16      1.0000 0.90440  0.03560  0.05490  Biso   1.000  O
  O17      1.0000 0.35660  0.05620  0.01600  Biso   1.000  O
  O18      1.0000 0.58870  0.16090  0.97990  Biso   1.000  O
  O19      1.0000 0.46840  0.21040  0.06570  Biso   1.000  O
  O20      1.0000 0.34810  0.92910  0.91600  Biso   1.000  O
  O21      1.0000 0.10110  0.78150  0.95320  Biso   1.000  O
  O22      1.0000 0.18840  0.14330  0.14310  Biso   1.000  O
  O23      1.0000 0.31460  0.93160  0.11710  Biso   1.000  O
  O24      1.0000 0.11840  0.77630  0.07320  Biso   1.000  O
  O25      1.0000 0.25120  0.60060  0.16990  Biso   1.000  O
  O26      1.0000 0.22130  0.17950  0.70840  Biso   1.000  O
  O27      1.0000 0.35810  0.08560  0.70390  Biso   1.000  O
  O28      1.0000 0.31400  0.06470  0.58660  Biso   1.000  O
  O29      1.0000 0.18660  0.16490  0.59030  Biso   1.000  O
  O30      1.0000 0.54820  0.76340  0.73850  Biso   1.000  O
  O31      1.0000 0.48920  0.84930  0.66710  Biso   1.000  O
  O32      1.0000 0.58000  0.90410  0.81700  Biso   1.000  O
  O33      1.0000 0.52990  0.99240  0.74440  Biso   1.000  O
  O34      1.0000 0.93270  0.09920  0.65240  Biso   1.000  O
  O35      1.0000 0.71310  0.00890  0.63960  Biso   1.000  O
  O36      1.0000 0.84320  0.24720  0.66730  Biso   1.000  O
  O37      1.0000 0.62210  0.15500  0.66590  Biso   1.000  O
  O38      1.0000 0.58210  0.09090  0.54800  Biso   1.000  O
  O39      1.0000 0.57050  0.08810  0.44720  Biso   1.000  O
  O40      1.0000 0.43310  0.53700  0.56440  Biso   1.000  O
  O41      1.0000 0.59560  0.46440  0.55490  Biso   1.000  O
  O42      1.0000 0.14340  0.44380  0.51600  Biso   1.000  O
  O43      1.0000 0.91130  0.33910  0.47990  Biso   1.000  O
  O44      1.0000 0.03160  0.28960  0.56570  Biso   1.000  O
  O45      1.0000 0.15190  0.57090  0.41600  Biso   1.000  O
  O46      1.0000 0.39890  0.71850  0.45320  Biso   1.000  O
  O47      1.0000 0.31160  0.35670  0.64310  Biso   1.000  O
  O48      1.0000 0.18540  0.56840  0.61710  Biso   1.000  O
  O49      1.0000 0.38160  0.72370  0.57320  Biso   1.000  O
  O50      1.0000 0.24880  0.89940  0.66990  Biso   1.000  O
  O51      1.0000 0.72130  0.67950  0.79160  Biso   1.000  O
  O52      1.0000 0.85810  0.58560  0.79610  Biso   1.000  O
  O53      1.0000 0.81400  0.56470  0.91340  Biso   1.000  O
  O54      1.0000 0.68660  0.66490  0.90970  Biso   1.000  O
  O55      1.0000 0.04820  0.26340  0.76150  Biso   1.000  O
  O56      1.0000 0.98920  0.34930  0.83290  Biso   1.000  O
  O57      1.0000 0.08000  0.40410  0.68300  Biso   1.000  O
  O58      1.0000 0.02990  0.49240  0.75560  Biso   1.000  O
  O59      1.0000 0.43270  0.59920  0.84760  Biso   1.000  O
  O60      1.0000 0.21310  0.50890  0.86040  Biso   1.000  O
  O61      1.0000 0.34320  0.74720  0.83270  Biso   1.000  O
  O62      1.0000 0.12210  0.65500  0.83410  Biso   1.000  O
  O63      1.0000 0.08210  0.59090  0.95200  Biso   1.000  O
  O64      1.0000 0.07050  0.58810  0.05280  Biso   1.000  O
  O65      1.0000 0.93310  0.03700  0.93560  Biso   1.000  O
  O66      1.0000 0.09560  0.96440  0.94510  Biso   1.000  O
  O67      1.0000 0.64340  0.94380  0.98400  Biso   1.000  O
  O68      1.0000 0.41130  0.83910  0.02010  Biso   1.000  O
  O69      1.0000 0.53160  0.78960  0.93430  Biso   1.000  O
  O70      1.0000 0.65190  0.07090  0.08400  Biso   1.000  O
  O71      1.0000 0.89890  0.21850  0.04680  Biso   1.000  O
  O72      1.0000 0.81160  0.85670  0.85690  Biso   1.000  O
  O73      1.0000 0.68540  0.06840  0.88290  Biso   1.000  O
  O74      1.0000 0.88160  0.22370  0.92680  Biso   1.000  O
  O75      1.0000 0.74880  0.39940  0.83010  Biso   1.000  O
  O76      1.0000 0.77870  0.82050  0.29160  Biso   1.000  O
  O77      1.0000 0.64190  0.91440  0.29610  Biso   1.000  O
  O78      1.0000 0.68600  0.93530  0.41340  Biso   1.000  O
  O79      1.0000 0.81340  0.83510  0.40970  Biso   1.000  O
  O80      1.0000 0.45180  0.23660  0.26150  Biso   1.000  O
  O81      1.0000 0.51080  0.15070  0.33290  Biso   1.000  O
  O82      1.0000 0.42000  0.09590  0.18300  Biso   1.000  O
  O83      1.0000 0.47010  0.00760  0.25560  Biso   1.000  O
  O84      1.0000 0.06730  0.90080  0.34760  Biso   1.000  O
  O85      1.0000 0.28690  0.99110  0.36040  Biso   1.000  O
  O86      1.0000 0.15680  0.75280  0.33270  Biso   1.000  O
  O87      1.0000 0.37790  0.84500  0.33410  Biso   1.000  O
  O88      1.0000 0.41790  0.90910  0.45200  Biso   1.000  O
  O89      1.0000 0.42950  0.91190  0.55280  Biso   1.000  O
  O90      1.0000 0.56690  0.46300  0.43560  Biso   1.000  O
  O91      1.0000 0.40440  0.53560  0.44510  Biso   1.000  O
  O92      1.0000 0.85660  0.55620  0.48400  Biso   1.000  O
  O93      1.0000 0.08870  0.66090  0.52010  Biso   1.000  O
  O94      1.0000 0.96840  0.71040  0.43430  Biso   1.000  O
  O95      1.0000 0.84810  0.42910  0.58400  Biso   1.000  O
  O96      1.0000 0.60110  0.28150  0.54680  Biso   1.000  O
  O97      1.0000 0.68840  0.64330  0.35690  Biso   1.000  O
  O98      1.0000 0.81460  0.43160  0.38290  Biso   1.000  O
  O99      1.0000 0.61840  0.27630  0.42680  Biso   1.000  O
  O100     1.0000 0.75120  0.10060  0.33010  Biso   1.000  O
