data_image0
_cell_length_a       8.165
_cell_length_b       8.215
_cell_length_c       8.215
_cell_angle_alpha    94.1831
_cell_angle_beta     117.653
_cell_angle_gamma    62.3472

_symmetry_space_group_name_H-M    P 1
_symmetry_int_tables_number       1

loop_
  _symmetry_equiv_pos_as_xyz
  'x, y, z'

loop_
  _atom_site_label
  _atom_site_occupancy
  _atom_site_fract_x
  _atom_site_fract_y
  _atom_site_fract_z
  _atom_site_thermal_displace_type
  _atom_site_B_iso_or_equiv
  _atom_site_type_symbol
  Ho1      1.0000 0.75000  0.06649  0.06649  Biso   1.000  Ho
  Ho2      1.0000 0.25000  0.93351  0.93351  Biso   1.000  Ho
  H1       1.0000 0.97043  0.64062  0.18002  Biso   1.000  H
  H2       1.0000 0.04664  0.70226  0.07902  Biso   1.000  H
  H3       1.0000 0.52957  0.18002  0.64062  Biso   1.000  H
  H4       1.0000 0.45336  0.07902  0.70226  Biso   1.000  H
  H5       1.0000 0.02957  0.35938  0.81998  Biso   1.000  H
  H6       1.0000 0.95336  0.29774  0.92098  Biso   1.000  H
  H7       1.0000 0.47043  0.81998  0.35938  Biso   1.000  H
  H8       1.0000 0.54664  0.92098  0.29774  Biso   1.000  H
  C1       1.0000 0.94358  0.94903  0.50695  Biso   1.000  C
  C2       1.0000 0.55642  0.50695  0.94903  Biso   1.000  C
  C3       1.0000 0.05642  0.05097  0.49305  Biso   1.000  C
  C4       1.0000 0.44358  0.49305  0.05097  Biso   1.000  C
  O1       1.0000 0.80270  0.94558  0.35630  Biso   1.000  O
  O2       1.0000 0.99693  0.12141  0.33273  Biso   1.000  O
  O3       1.0000 0.94924  0.73925  0.10561  Biso   1.000  O
  O4       1.0000 0.69730  0.35630  0.94558  Biso   1.000  O
  O5       1.0000 0.50307  0.33273  0.12141  Biso   1.000  O
  O6       1.0000 0.55076  0.10561  0.73925  Biso   1.000  O
  O7       1.0000 0.19730  0.05442  0.64370  Biso   1.000  O
  O8       1.0000 0.00307  0.87859  0.66727  Biso   1.000  O
  O9       1.0000 0.05076  0.26075  0.89439  Biso   1.000  O
  O10      1.0000 0.30270  0.64370  0.05442  Biso   1.000  O
  O11      1.0000 0.49693  0.66727  0.87859  Biso   1.000  O
  O12      1.0000 0.44924  0.89439  0.26075  Biso   1.000  O
  F1       1.0000 0.00000  0.00000  0.00000  Biso   1.000  F
  F2       1.0000 0.50000  0.00000  0.00000  Biso   1.000  F
