data_image0
_cell_length_a       12.0682
_cell_length_b       12.0682
_cell_length_c       14.614
_cell_angle_alpha    86.1739
_cell_angle_beta     86.1739
_cell_angle_gamma    64.284

_symmetry_space_group_name_H-M    P 1
_symmetry_int_tables_number       1

loop_
  _symmetry_equiv_pos_as_xyz
  'x, y, z'

loop_
  _atom_site_label
  _atom_site_occupancy
  _atom_site_fract_x
  _atom_site_fract_y
  _atom_site_fract_z
  _atom_site_thermal_displace_type
  _atom_site_B_iso_or_equiv
  _atom_site_type_symbol
  K1       1.0000 0.21232  0.21232  0.43504  Biso   1.000  K
  K2       1.0000 0.06132  0.06132  0.59104  Biso   1.000  K
  K3       1.0000 0.78768  0.78768  0.56496  Biso   1.000  K
  K4       1.0000 0.93868  0.93868  0.40896  Biso   1.000  K
  U1       1.0000 0.44362  0.94580  0.21096  Biso   1.000  U
  U2       1.0000 0.05420  0.55638  0.78904  Biso   1.000  U
  U3       1.0000 0.55638  0.05420  0.78904  Biso   1.000  U
  U4       1.0000 0.94580  0.44362  0.21096  Biso   1.000  U
  C1       1.0000 0.22270  0.86690  0.27610  Biso   1.000  C
  C2       1.0000 0.22620  0.94560  0.35250  Biso   1.000  C
  C3       1.0000 0.43530  0.14070  0.59050  Biso   1.000  C
  C4       1.0000 0.38560  0.04760  0.62830  Biso   1.000  C
  C5       1.0000 0.51590  0.05210  0.01390  Biso   1.000  C
  C6       1.0000 0.13310  0.77730  0.72390  Biso   1.000  C
  C7       1.0000 0.05440  0.77380  0.64750  Biso   1.000  C
  C8       1.0000 0.85930  0.56470  0.40950  Biso   1.000  C
  C9       1.0000 0.95240  0.61440  0.37170  Biso   1.000  C
  C10      1.0000 0.94790  0.48410  0.98610  Biso   1.000  C
  C11      1.0000 0.77730  0.13310  0.72390  Biso   1.000  C
  C12      1.0000 0.77380  0.05440  0.64750  Biso   1.000  C
  C13      1.0000 0.56470  0.85930  0.40950  Biso   1.000  C
  C14      1.0000 0.61440  0.95240  0.37170  Biso   1.000  C
  C15      1.0000 0.48410  0.94790  0.98610  Biso   1.000  C
  C16      1.0000 0.86690  0.22270  0.27610  Biso   1.000  C
  C17      1.0000 0.94560  0.22620  0.35250  Biso   1.000  C
  C18      1.0000 0.14070  0.43530  0.59050  Biso   1.000  C
  C19      1.0000 0.04760  0.38560  0.62830  Biso   1.000  C
  C20      1.0000 0.05210  0.51590  0.01390  Biso   1.000  C
  C21      1.0000 0.18800  0.18800  0.14880  Biso   1.000  C
  C22      1.0000 0.24200  0.24200  0.21570  Biso   1.000  C
  C23      1.0000 0.81200  0.81200  0.85120  Biso   1.000  C
  C24      1.0000 0.75800  0.75800  0.78430  Biso   1.000  C
  C25      1.0000 0.65420  0.65420  0.18630  Biso   1.000  C
  C26      1.0000 0.72920  0.72920  0.17400  Biso   1.000  C
  C27      1.0000 0.34580  0.34580  0.81370  Biso   1.000  C
  C28      1.0000 0.27080  0.27080  0.82600  Biso   1.000  C
  O1       1.0000 0.30125  0.85325  0.21040  Biso   1.000  O
  O2       1.0000 0.28620  0.00880  0.33000  Biso   1.000  O
  O3       1.0000 0.17550  0.94250  0.42880  Biso   1.000  O
  O4       1.0000 0.14690  0.82350  0.28260  Biso   1.000  O
  O5       1.0000 0.43795  0.98755  0.70020  Biso   1.000  O
  O6       1.0000 0.48320  0.17440  0.65210  Biso   1.000  O
  O7       1.0000 0.30320  0.03680  0.58920  Biso   1.000  O
  O8       1.0000 0.42680  0.17560  0.50880  Biso   1.000  O
  O9       1.0000 0.25500  0.08100  0.12470  Biso   1.000  O
  O10      1.0000 0.34788  0.17428  0.24120  Biso   1.000  O
  O11      1.0000 0.53912  0.71392  0.19010  Biso   1.000  O
  O12      1.0000 0.66991  0.84351  0.16950  Biso   1.000  O
  O13      1.0000 0.51031  0.06951  0.09790  Biso   1.000  O
  O14      1.0000 0.54388  0.11088  0.95030  Biso   1.000  O
  O15      1.0000 0.14675  0.69875  0.78960  Biso   1.000  O
  O16      1.0000 0.99120  0.71380  0.67000  Biso   1.000  O
  O17      1.0000 0.05750  0.82450  0.57120  Biso   1.000  O
  O18      1.0000 0.17650  0.85310  0.71740  Biso   1.000  O
  O19      1.0000 0.01245  0.56205  0.29980  Biso   1.000  O
  O20      1.0000 0.82560  0.51680  0.34790  Biso   1.000  O
  O21      1.0000 0.96320  0.69680  0.41080  Biso   1.000  O
  O22      1.0000 0.82440  0.57320  0.49120  Biso   1.000  O
  O23      1.0000 0.91900  0.74500  0.87530  Biso   1.000  O
  O24      1.0000 0.82572  0.65212  0.75880  Biso   1.000  O
  O25      1.0000 0.28608  0.46088  0.80990  Biso   1.000  O
  O26      1.0000 0.15649  0.33009  0.83050  Biso   1.000  O
  O27      1.0000 0.93049  0.48969  0.90210  Biso   1.000  O
  O28      1.0000 0.88912  0.45612  0.04970  Biso   1.000  O
  O29      1.0000 0.69875  0.14675  0.78960  Biso   1.000  O
  O30      1.0000 0.71380  0.99120  0.67000  Biso   1.000  O
  O31      1.0000 0.82450  0.05750  0.57120  Biso   1.000  O
  O32      1.0000 0.85310  0.17650  0.71740  Biso   1.000  O
  O33      1.0000 0.56205  0.01245  0.29980  Biso   1.000  O
  O34      1.0000 0.51680  0.82560  0.34790  Biso   1.000  O
  O35      1.0000 0.69680  0.96320  0.41080  Biso   1.000  O
  O36      1.0000 0.57320  0.82440  0.49120  Biso   1.000  O
  O37      1.0000 0.74500  0.91900  0.87530  Biso   1.000  O
  O38      1.0000 0.65212  0.82572  0.75880  Biso   1.000  O
  O39      1.0000 0.46088  0.28608  0.80990  Biso   1.000  O
  O40      1.0000 0.33009  0.15649  0.83050  Biso   1.000  O
  O41      1.0000 0.48969  0.93049  0.90210  Biso   1.000  O
  O42      1.0000 0.45612  0.88912  0.04970  Biso   1.000  O
  O43      1.0000 0.85325  0.30125  0.21040  Biso   1.000  O
  O44      1.0000 0.00880  0.28620  0.33000  Biso   1.000  O
  O45      1.0000 0.94250  0.17550  0.42880  Biso   1.000  O
  O46      1.0000 0.82350  0.14690  0.28260  Biso   1.000  O
  O47      1.0000 0.98755  0.43795  0.70020  Biso   1.000  O
  O48      1.0000 0.17440  0.48320  0.65210  Biso   1.000  O
  O49      1.0000 0.03680  0.30320  0.58920  Biso   1.000  O
  O50      1.0000 0.17560  0.42680  0.50880  Biso   1.000  O
  O51      1.0000 0.08100  0.25500  0.12470  Biso   1.000  O
  O52      1.0000 0.17428  0.34788  0.24120  Biso   1.000  O
  O53      1.0000 0.71392  0.53912  0.19010  Biso   1.000  O
  O54      1.0000 0.84351  0.66991  0.16950  Biso   1.000  O
  O55      1.0000 0.06951  0.51031  0.09790  Biso   1.000  O
  O56      1.0000 0.11088  0.54388  0.95030  Biso   1.000  O
