data_image0
_cell_length_a       9.57919
_cell_length_b       14.1333
_cell_length_c       22.7191
_cell_angle_alpha    78.2965
_cell_angle_beta     77.8297
_cell_angle_gamma    70.1909

_symmetry_space_group_name_H-M    P 1
_symmetry_int_tables_number       1

loop_
  _symmetry_equiv_pos_as_xyz
  'x, y, z'

loop_
  _atom_site_label
  _atom_site_occupancy
  _atom_site_fract_x
  _atom_site_fract_y
  _atom_site_fract_z
  _atom_site_thermal_displace_type
  _atom_site_B_iso_or_equiv
  _atom_site_type_symbol
  Sn1      1.0000 0.61514  0.86501  0.23417  Biso   1.000  Sn
  Sn2      1.0000 0.40501  0.24798  0.49518  Biso   1.000  Sn
  Sn3      1.0000 0.68405  0.18722  0.03440  Biso   1.000  Sn
  Sn4      1.0000 0.28568  0.36501  0.73417  Biso   1.000  Sn
  Sn5      1.0000 0.85183  0.74798  0.99518  Biso   1.000  Sn
  Sn6      1.0000 0.09433  0.68722  0.53440  Biso   1.000  Sn
  H1       1.0000 0.56920  0.01580  0.34520  Biso   1.000  H
  H2       1.0000 0.40160  0.31110  0.27410  Biso   1.000  H
  H3       1.0000 0.44780  0.25840  0.17840  Biso   1.000  H
  H4       1.0000 0.83400  0.94630  0.20070  Biso   1.000  H
  H5       1.0000 0.81650  0.90500  0.14320  Biso   1.000  H
  H6       1.0000 0.97970  0.78350  0.23810  Biso   1.000  H
  H7       1.0000 0.95560  0.73780  0.18320  Biso   1.000  H
  H8       1.0000 0.10440  0.89220  0.16420  Biso   1.000  H
  H9       1.0000 0.08550  0.84160  0.11060  Biso   1.000  H
  H10      1.0000 0.23930  0.68040  0.15780  Biso   1.000  H
  H11      1.0000 0.32740  0.76110  0.12870  Biso   1.000  H
  H12      1.0000 0.27500  0.74360  0.20060  Biso   1.000  H
  H13      1.0000 0.41760  0.84260  0.32920  Biso   1.000  H
  H14      1.0000 0.40340  0.78300  0.27960  Biso   1.000  H
  H15      1.0000 0.26480  0.99480  0.28100  Biso   1.000  H
  H16      1.0000 0.24820  0.93320  0.23240  Biso   1.000  H
  H17      1.0000 0.14280  0.90150  0.35970  Biso   1.000  H
  H18      1.0000 0.13070  0.83590  0.31250  Biso   1.000  H
  H19      1.0000 0.97420  0.99820  0.26380  Biso   1.000  H
  H20      1.0000 0.89970  0.94620  0.32620  Biso   1.000  H
  H21      1.0000 0.96010  0.03890  0.32630  Biso   1.000  H
  H22      1.0000 0.78280  0.52220  0.99240  Biso   1.000  H
  H23      1.0000 0.53370  0.45200  0.15360  Biso   1.000  H
  H24      1.0000 0.54670  0.59430  0.18590  Biso   1.000  H
  H25      1.0000 0.51560  0.38940  0.43400  Biso   1.000  H
  H26      1.0000 0.65230  0.29110  0.44970  Biso   1.000  H
  H27      1.0000 0.48500  0.42450  0.53770  Biso   1.000  H
  H28      1.0000 0.63820  0.33390  0.54550  Biso   1.000  H
  H29      1.0000 0.62120  0.51130  0.45410  Biso   1.000  H
  H30      1.0000 0.77390  0.42270  0.46590  Biso   1.000  H
  H31      1.0000 0.72770  0.46550  0.56810  Biso   1.000  H
  H32      1.0000 0.76520  0.55190  0.51570  Biso   1.000  H
  H33      1.0000 0.59520  0.56360  0.54700  Biso   1.000  H
  H34      1.0000 0.17290  0.19570  0.55250  Biso   1.000  H
  H35      1.0000 0.30260  0.09540  0.53440  Biso   1.000  H
  H36      1.0000 0.24580  0.13230  0.43450  Biso   1.000  H
  H37      1.0000 0.12420  0.23780  0.44880  Biso   1.000  H
  H38      1.0000 0.09240  0.04720  0.50300  Biso   1.000  H
  H39      1.0000 0.96850  0.15490  0.51170  Biso   1.000  H
  H40      1.0000 0.06540  0.06840  0.40200  Biso   1.000  H
  H41      1.0000 0.90190  0.08770  0.44190  Biso   1.000  H
  H42      1.0000 0.95560  0.18200  0.40560  Biso   1.000  H
  H43      1.0000 0.87040  0.77970  0.42110  Biso   1.000  H
  H44      1.0000 0.89010  0.54680  0.33840  Biso   1.000  H
  H45      1.0000 0.05120  0.43650  0.40170  Biso   1.000  H
  H46      1.0000 0.90880  0.07090  0.09070  Biso   1.000  H
  H47      1.0000 0.77500  0.12150  0.14070  Biso   1.000  H
  H48      1.0000 0.84740  0.27560  0.11360  Biso   1.000  H
  H49      1.0000 0.98860  0.21750  0.06810  Biso   1.000  H
  H50      1.0000 0.08210  0.09520  0.15320  Biso   1.000  H
  H51      1.0000 0.94210  0.15500  0.19840  Biso   1.000  H
  H52      1.0000 0.02730  0.29730  0.17850  Biso   1.000  H
  H53      1.0000 0.16880  0.20120  0.19340  Biso   1.000  H
  H54      1.0000 0.15350  0.25150  0.12430  Biso   1.000  H
  H55      1.0000 0.49970  0.16090  0.97390  Biso   1.000  H
  H56      1.0000 0.56570  0.24780  0.93440  Biso   1.000  H
  H57      1.0000 0.39180  0.37150  0.98610  Biso   1.000  H
  H58      1.0000 0.34500  0.28990  0.03950  Biso   1.000  H
  H59      1.0000 0.28200  0.32130  0.91930  Biso   1.000  H
  H60      1.0000 0.23270  0.24190  0.97350  Biso   1.000  H
  H61      1.0000 0.11950  0.45750  0.97210  Biso   1.000  H
  H62      1.0000 0.02740  0.39090  0.95830  Biso   1.000  H
  H63      1.0000 0.06770  0.37700  0.02500  Biso   1.000  H
  H64      1.0000 0.06980  0.51580  0.84520  Biso   1.000  H
  H65      1.0000 0.01320  0.81110  0.77410  Biso   1.000  H
  H66      1.0000 0.11540  0.75840  0.67840  Biso   1.000  H
  H67      1.0000 0.01900  0.44630  0.70070  Biso   1.000  H
  H68      1.0000 0.13530  0.40500  0.64320  Biso   1.000  H
  H69      1.0000 0.99870  0.28350  0.73810  Biso   1.000  H
  H70      1.0000 0.12340  0.23780  0.68320  Biso   1.000  H
  H71      1.0000 0.83920  0.39220  0.66420  Biso   1.000  H
  H72      1.0000 0.96230  0.34160  0.61060  Biso   1.000  H
  H73      1.0000 0.92250  0.18040  0.65780  Biso   1.000  H
  H74      1.0000 0.78280  0.26110  0.62870  Biso   1.000  H
  H75      1.0000 0.78080  0.24360  0.70060  Biso   1.000  H
  H76      1.0000 0.41060  0.34260  0.82920  Biso   1.000  H
  H77      1.0000 0.53400  0.28300  0.77960  Biso   1.000  H
  H78      1.0000 0.45940  0.49480  0.78100  Biso   1.000  H
  H79      1.0000 0.58620  0.43320  0.73240  Biso   1.000  H
  H80      1.0000 0.59600  0.40150  0.85970  Biso   1.000  H
  H81      1.0000 0.72090  0.33590  0.81250  Biso   1.000  H
  H82      1.0000 0.76380  0.49820  0.76380  Biso   1.000  H
  H83      1.0000 0.82790  0.44620  0.82620  Biso   1.000  H
  H84      1.0000 0.67470  0.53890  0.82630  Biso   1.000  H
  H85      1.0000 0.70260  0.02220  0.49240  Biso   1.000  H
  H86      1.0000 0.86070  0.95200  0.65360  Biso   1.000  H
  H87      1.0000 0.67310  0.09430  0.68590  Biso   1.000  H
  H88      1.0000 0.66100  0.88940  0.93400  Biso   1.000  H
  H89      1.0000 0.60690  0.79110  0.94970  Biso   1.000  H
  H90      1.0000 0.55280  0.92450  0.03770  Biso   1.000  H
  H91      1.0000 0.48240  0.83390  0.04550  Biso   1.000  H
  H92      1.0000 0.41340  0.01130  0.95410  Biso   1.000  H
  H93      1.0000 0.33750  0.92270  0.96590  Biso   1.000  H
  H94      1.0000 0.23870  0.96550  0.06810  Biso   1.000  H
  H95      1.0000 0.16720  0.05190  0.01570  Biso   1.000  H
  H96      1.0000 0.29420  0.06360  0.04700  Biso   1.000  H
  H97      1.0000 0.07890  0.69570  0.05250  Biso   1.000  H
  H98      1.0000 0.06760  0.59540  0.03440  Biso   1.000  H
  H99      1.0000 0.18740  0.63230  0.93450  Biso   1.000  H
  H100     1.0000 0.18920  0.73780  0.94880  Biso   1.000  H
  H101     1.0000 0.35740  0.54720  0.00300  Biso   1.000  H
  H102     1.0000 0.36490  0.65490  0.01170  Biso   1.000  H
  H103     1.0000 0.46420  0.56840  0.90200  Biso   1.000  H
  H104     1.0000 0.56850  0.58770  0.94190  Biso   1.000  H
  H105     1.0000 0.45680  0.68200  0.90560  Biso   1.000  H
  H106     1.0000 0.92880  0.27970  0.92110  Biso   1.000  H
  H107     1.0000 0.22470  0.04680  0.83840  Biso   1.000  H
  H108     1.0000 0.11060  0.93650  0.90170  Biso   1.000  H
  H109     1.0000 0.92960  0.57090  0.59070  Biso   1.000  H
  H110     1.0000 0.96280  0.62150  0.64070  Biso   1.000  H
  H111     1.0000 0.76340  0.77560  0.61360  Biso   1.000  H
  H112     1.0000 0.72580  0.71750  0.56810  Biso   1.000  H
  H113     1.0000 0.66950  0.59520  0.65320  Biso   1.000  H
  H114     1.0000 0.70450  0.65500  0.69840  Biso   1.000  H
  H115     1.0000 0.49690  0.79730  0.67850  Biso   1.000  H
  H116     1.0000 0.43660  0.70120  0.69340  Biso   1.000  H
  H117     1.0000 0.47070  0.75150  0.62430  Biso   1.000  H
  H118     1.0000 0.36550  0.66090  0.47390  Biso   1.000  H
  H119     1.0000 0.25210  0.74780  0.43440  Biso   1.000  H
  H120     1.0000 0.25060  0.87150  0.48610  Biso   1.000  H
  H121     1.0000 0.32560  0.78990  0.53950  Biso   1.000  H
  H122     1.0000 0.47740  0.82130  0.41930  Biso   1.000  H
  H123     1.0000 0.55190  0.74190  0.47350  Biso   1.000  H
  H124     1.0000 0.45090  0.95750  0.47210  Biso   1.000  H
  H125     1.0000 0.62340  0.89090  0.45830  Biso   1.000  H
  H126     1.0000 0.53030  0.87700  0.52500  Biso   1.000  H
  C1       1.0000 0.53720  0.06570  0.31170  Biso   1.000  C
  C2       1.0000 0.48740  0.16740  0.31820  Biso   1.000  C
  C3       1.0000 0.44320  0.24120  0.26940  Biso   1.000  C
  C4       1.0000 0.46150  0.20980  0.21400  Biso   1.000  C
  C5       1.0000 0.49980  0.10760  0.21020  Biso   1.000  C
  C6       1.0000 0.50440  0.06860  0.15400  Biso   1.000  C
  C7       1.0000 0.47030  0.19830  0.38030  Biso   1.000  C
  C8       1.0000 0.82330  0.88710  0.18710  Biso   1.000  C
  C9       1.0000 0.96440  0.79900  0.19500  Biso   1.000  C
  C10      1.0000 0.10060  0.82860  0.15360  Biso   1.000  C
  C11      1.0000 0.24860  0.74620  0.16080  Biso   1.000  C
  C12      1.0000 0.40980  0.84860  0.28580  Biso   1.000  C
  C13      1.0000 0.26190  0.92810  0.27510  Biso   1.000  C
  C14      1.0000 0.12950  0.90440  0.31720  Biso   1.000  C
  C15      1.0000 0.97760  0.97840  0.30760  Biso   1.000  C
  C16      1.0000 0.73510  0.53600  0.03220  Biso   1.000  C
  C17      1.0000 0.66010  0.47130  0.06910  Biso   1.000  C
  C18      1.0000 0.58720  0.49410  0.12770  Biso   1.000  C
  C19      1.0000 0.59490  0.57780  0.14660  Biso   1.000  C
  C20      1.0000 0.67300  0.63820  0.10840  Biso   1.000  C
  C21      1.0000 0.68710  0.73020  0.12660  Biso   1.000  C
  C22      1.0000 0.65240  0.37850  0.04870  Biso   1.000  C
  C23      1.0000 0.55420  0.33560  0.46720  Biso   1.000  C
  C24      1.0000 0.58240  0.38680  0.51560  Biso   1.000  C
  C25      1.0000 0.67380  0.46090  0.48570  Biso   1.000  C
  C26      1.0000 0.69210  0.51530  0.53330  Biso   1.000  C
  C27      1.0000 0.24970  0.16680  0.51880  Biso   1.000  C
  C28      1.0000 0.16910  0.16640  0.46660  Biso   1.000  C
  C29      1.0000 0.05080  0.11720  0.48260  Biso   1.000  C
  C30      1.0000 0.98800  0.11350  0.42830  Biso   1.000  C
  C31      1.0000 0.91090  0.71000  0.41600  Biso   1.000  C
  C32      1.0000 0.86830  0.67590  0.37130  Biso   1.000  C
  C33      1.0000 0.92080  0.57200  0.36760  Biso   1.000  C
  C34      1.0000 0.01380  0.50710  0.40470  Biso   1.000  C
  C35      1.0000 0.05440  0.54660  0.44840  Biso   1.000  C
  C36      1.0000 0.16270  0.48000  0.48980  Biso   1.000  C
  C37      1.0000 0.76870  0.74790  0.32810  Biso   1.000  C
  C38      1.0000 0.83360  0.13620  0.10040  Biso   1.000  C
  C39      1.0000 0.91970  0.20820  0.10640  Biso   1.000  C
  C40      1.0000 0.01090  0.16310  0.15990  Biso   1.000  C
  C41      1.0000 0.09820  0.23480  0.16440  Biso   1.000  C
  C42      1.0000 0.52200  0.22350  0.97590  Biso   1.000  C
  C43      1.0000 0.37510  0.30420  0.99500  Biso   1.000  C
  C44      1.0000 0.25050  0.30880  0.96380  Biso   1.000  C
  C45      1.0000 0.10310  0.39080  0.98140  Biso   1.000  C
  C46      1.0000 0.08540  0.56570  0.81170  Biso   1.000  C
  C47      1.0000 0.02700  0.66740  0.81820  Biso   1.000  C
  C48      1.0000 0.04620  0.74120  0.76940  Biso   1.000  C
  C49      1.0000 0.11470  0.70980  0.71400  Biso   1.000  C
  C50      1.0000 0.18240  0.60760  0.71020  Biso   1.000  C
  C51      1.0000 0.27300  0.56860  0.65400  Biso   1.000  C
  C52      1.0000 0.95110  0.69830  0.88030  Biso   1.000  C
  C53      1.0000 0.10250  0.38710  0.68710  Biso   1.000  C
  C54      1.0000 0.04160  0.29900  0.69500  Biso   1.000  C
  C55      1.0000 0.91720  0.32860  0.65360  Biso   1.000  C
  C56      1.0000 0.84440  0.24620  0.66080  Biso   1.000  C
  C57      1.0000 0.45580  0.34860  0.78580  Biso   1.000  C
  C58      1.0000 0.53490  0.42810  0.77510  Biso   1.000  C
  C59      1.0000 0.64890  0.40440  0.81720  Biso   1.000  C
  C60      1.0000 0.73640  0.47840  0.80760  Biso   1.000  C
  C61      1.0000 0.69670  0.03600  0.53220  Biso   1.000  C
  C62      1.0000 0.79950  0.97130  0.56910  Biso   1.000  C
  C63      1.0000 0.79100  0.99410  0.62770  Biso   1.000  C
  C64      1.0000 0.68070  0.07780  0.64660  Biso   1.000  C
  C65      1.0000 0.58040  0.13820  0.60840  Biso   1.000  C
  C66      1.0000 0.45610  0.23020  0.62660  Biso   1.000  C
  C67      1.0000 0.92040  0.87850  0.54870  Biso   1.000  C
  C68      1.0000 0.64300  0.83560  0.96720  Biso   1.000  C
  C69      1.0000 0.51520  0.88680  0.01560  Biso   1.000  C
  C70      1.0000 0.37960  0.96090  0.98570  Biso   1.000  C
  C71      1.0000 0.25930  0.01530  0.03330  Biso   1.000  C
  C72      1.0000 0.06470  0.66680  0.01880  Biso   1.000  C
  C73      1.0000 0.19790  0.66640  0.96660  Biso   1.000  C
  C74      1.0000 0.34940  0.61720  0.98260  Biso   1.000  C
  C75      1.0000 0.47020  0.61350  0.92830  Biso   1.000  C
  C76      1.0000 0.96310  0.21000  0.91600  Biso   1.000  C
  C77      1.0000 0.08450  0.17590  0.87130  Biso   1.000  C
  C78      1.0000 0.13960  0.07200  0.86760  Biso   1.000  C
  C79      1.0000 0.07440  0.00710  0.90470  Biso   1.000  C
  C80      1.0000 0.95060  0.04660  0.94840  Biso   1.000  C
  C81      1.0000 0.86750  0.98000  0.98980  Biso   1.000  C
  C82      1.0000 0.15530  0.24790  0.82810  Biso   1.000  C
  C83      1.0000 0.92980  0.63620  0.60040  Biso   1.000  C
  C84      1.0000 0.76570  0.70820  0.60640  Biso   1.000  C
  C85      1.0000 0.66610  0.66310  0.65990  Biso   1.000  C
  C86      1.0000 0.50260  0.73480  0.66440  Biso   1.000  C
  C87      1.0000 0.27860  0.72350  0.47590  Biso   1.000  C
  C88      1.0000 0.32570  0.80420  0.49500  Biso   1.000  C
  C89      1.0000 0.47690  0.80880  0.46380  Biso   1.000  C
  C90      1.0000 0.52470  0.89080  0.48140  Biso   1.000  C
  N1       1.0000 0.54080  0.03640  0.25840  Biso   1.000  N
  N2       1.0000 0.74120  0.61910  0.05230  Biso   1.000  N
  N3       1.0000 0.00810  0.64640  0.45200  Biso   1.000  N
  N4       1.0000 0.16440  0.53640  0.75840  Biso   1.000  N
  N5       1.0000 0.58740  0.11910  0.55230  Biso   1.000  N
  N6       1.0000 0.89350  0.14640  0.95200  Biso   1.000  N
  O1       1.0000 0.51240  0.97690  0.15790  Biso   1.000  O
  O2       1.0000 0.50210  0.13190  0.10430  Biso   1.000  O
  O3       1.0000 0.38050  0.28270  0.39090  Biso   1.000  O
  O4       1.0000 0.54100  0.13740  0.42100  Biso   1.000  O
  O5       1.0000 0.77040  0.77620  0.09160  Biso   1.000  O
  O6       1.0000 0.61720  0.75110  0.17970  Biso   1.000  O
  O7       1.0000 0.57010  0.33100  0.08240  Biso   1.000  O
  O8       1.0000 0.73690  0.34590  0.00150  Biso   1.000  O
  O9       1.0000 0.20680  0.52120  0.52360  Biso   1.000  O
  O10      1.0000 0.20230  0.38570  0.48790  Biso   1.000  O
  O11      1.0000 0.73390  0.71160  0.28880  Biso   1.000  O
  O12      1.0000 0.72100  0.84250  0.33070  Biso   1.000  O
  O13      1.0000 0.35280  0.47690  0.65790  Biso   1.000  O
  O14      1.0000 0.26170  0.63190  0.60430  Biso   1.000  O
  O15      1.0000 0.94590  0.78270  0.89090  Biso   1.000  O
  O16      1.0000 0.90060  0.63740  0.92100  Biso   1.000  O
  O17      1.0000 0.36180  0.27620  0.59160  Biso   1.000  O
  O18      1.0000 0.45200  0.25110  0.67970  Biso   1.000  O
  O19      1.0000 0.01650  0.83100  0.58240  Biso   1.000  O
  O20      1.0000 0.91570  0.84590  0.50150  Biso   1.000  O
  O21      1.0000 0.74840  0.02120  0.02360  Biso   1.000  O
  O22      1.0000 0.92410  0.88570  0.98790  Biso   1.000  O
  O23      1.0000 0.26570  0.21160  0.78880  Biso   1.000  O
  O24      1.0000 0.10580  0.34250  0.83070  Biso   1.000  O
