data_image0
_cell_length_a       12.0682
_cell_length_b       12.0682
_cell_length_c       14.614
_cell_angle_alpha    86.1739
_cell_angle_beta     86.1739
_cell_angle_gamma    64.284

_symmetry_space_group_name_H-M    P 1
_symmetry_int_tables_number       1

loop_
  _symmetry_equiv_pos_as_xyz
  'x, y, z'

loop_
  _atom_site_label
  _atom_site_occupancy
  _atom_site_fract_x
  _atom_site_fract_y
  _atom_site_fract_z
  _atom_site_thermal_displace_type
  _atom_site_B_iso_or_equiv
  _atom_site_type_symbol
  K1       1.0000 0.06128  0.06128  0.59100  Biso   1.000  K
  K2       1.0000 0.21228  0.21228  0.43500  Biso   1.000  K
  K3       1.0000 0.93872  0.93872  0.40900  Biso   1.000  K
  K4       1.0000 0.78772  0.78772  0.56500  Biso   1.000  K
  U1       1.0000 0.05418  0.55640  0.78904  Biso   1.000  U
  U2       1.0000 0.44360  0.94582  0.21096  Biso   1.000  U
  U3       1.0000 0.94582  0.44360  0.21096  Biso   1.000  U
  U4       1.0000 0.55640  0.05418  0.78904  Biso   1.000  U
  C1       1.0000 0.05230  0.51570  0.01390  Biso   1.000  C
  C2       1.0000 0.04760  0.38560  0.62840  Biso   1.000  C
  C3       1.0000 0.14070  0.43510  0.59060  Biso   1.000  C
  C4       1.0000 0.77350  0.05450  0.64710  Biso   1.000  C
  C5       1.0000 0.77740  0.13300  0.72390  Biso   1.000  C
  C6       1.0000 0.48430  0.94770  0.98610  Biso   1.000  C
  C7       1.0000 0.61440  0.95240  0.37160  Biso   1.000  C
  C8       1.0000 0.56490  0.85930  0.40940  Biso   1.000  C
  C9       1.0000 0.94550  0.22650  0.35290  Biso   1.000  C
  C10      1.0000 0.86700  0.22260  0.27610  Biso   1.000  C
  C11      1.0000 0.94770  0.48430  0.98610  Biso   1.000  C
  C12      1.0000 0.95240  0.61440  0.37160  Biso   1.000  C
  C13      1.0000 0.85930  0.56490  0.40940  Biso   1.000  C
  C14      1.0000 0.22650  0.94550  0.35290  Biso   1.000  C
  C15      1.0000 0.22260  0.86700  0.27610  Biso   1.000  C
  C16      1.0000 0.51570  0.05230  0.01390  Biso   1.000  C
  C17      1.0000 0.38560  0.04760  0.62840  Biso   1.000  C
  C18      1.0000 0.43510  0.14070  0.59060  Biso   1.000  C
  C19      1.0000 0.05450  0.77350  0.64710  Biso   1.000  C
  C20      1.0000 0.13300  0.77740  0.72390  Biso   1.000  C
  C21      1.0000 0.34600  0.34600  0.81380  Biso   1.000  C
  C22      1.0000 0.27080  0.27080  0.82620  Biso   1.000  C
  C23      1.0000 0.65400  0.65400  0.18620  Biso   1.000  C
  C24      1.0000 0.72920  0.72920  0.17380  Biso   1.000  C
  C25      1.0000 0.81190  0.81190  0.85130  Biso   1.000  C
  C26      1.0000 0.75810  0.75810  0.78410  Biso   1.000  C
  C27      1.0000 0.18810  0.18810  0.14870  Biso   1.000  C
  C28      1.0000 0.24190  0.24190  0.21590  Biso   1.000  C
  O1       1.0000 0.85320  0.17660  0.71730  Biso   1.000  O
  O2       1.0000 0.82480  0.05740  0.57170  Biso   1.000  O
  O3       1.0000 0.17540  0.42700  0.50890  Biso   1.000  O
  O4       1.0000 0.03690  0.30330  0.58910  Biso   1.000  O
  O5       1.0000 0.28600  0.46100  0.80980  Biso   1.000  O
  O6       1.0000 0.11130  0.54350  0.95020  Biso   1.000  O
  O7       1.0000 0.06970  0.51010  0.09790  Biso   1.000  O
  O8       1.0000 0.82560  0.65200  0.75880  Biso   1.000  O
  O9       1.0000 0.15660  0.33020  0.83050  Biso   1.000  O
  O10      1.0000 0.98780  0.43760  0.70010  Biso   1.000  O
  O11      1.0000 0.69880  0.14660  0.78960  Biso   1.000  O
  O12      1.0000 0.17420  0.48300  0.65210  Biso   1.000  O
  O13      1.0000 0.91920  0.74500  0.87530  Biso   1.000  O
  O14      1.0000 0.71390  0.99130  0.66990  Biso   1.000  O
  O15      1.0000 0.82340  0.14680  0.28270  Biso   1.000  O
  O16      1.0000 0.94260  0.17520  0.42830  Biso   1.000  O
  O17      1.0000 0.57300  0.82460  0.49110  Biso   1.000  O
  O18      1.0000 0.69670  0.96310  0.41090  Biso   1.000  O
  O19      1.0000 0.53900  0.71400  0.19020  Biso   1.000  O
  O20      1.0000 0.45650  0.88870  0.04980  Biso   1.000  O
  O21      1.0000 0.48990  0.93030  0.90210  Biso   1.000  O
  O22      1.0000 0.34800  0.17440  0.24120  Biso   1.000  O
  O23      1.0000 0.66980  0.84340  0.16950  Biso   1.000  O
  O24      1.0000 0.56240  0.01220  0.29990  Biso   1.000  O
  O25      1.0000 0.85340  0.30120  0.21040  Biso   1.000  O
  O26      1.0000 0.51700  0.82580  0.34790  Biso   1.000  O
  O27      1.0000 0.25500  0.08080  0.12470  Biso   1.000  O
  O28      1.0000 0.00870  0.28610  0.33010  Biso   1.000  O
  O29      1.0000 0.14680  0.82340  0.28270  Biso   1.000  O
  O30      1.0000 0.17520  0.94260  0.42830  Biso   1.000  O
  O31      1.0000 0.82460  0.57300  0.49110  Biso   1.000  O
  O32      1.0000 0.96310  0.69670  0.41090  Biso   1.000  O
  O33      1.0000 0.71400  0.53900  0.19020  Biso   1.000  O
  O34      1.0000 0.88870  0.45650  0.04980  Biso   1.000  O
  O35      1.0000 0.93030  0.48990  0.90210  Biso   1.000  O
  O36      1.0000 0.17440  0.34800  0.24120  Biso   1.000  O
  O37      1.0000 0.84340  0.66980  0.16950  Biso   1.000  O
  O38      1.0000 0.01220  0.56240  0.29990  Biso   1.000  O
  O39      1.0000 0.30120  0.85340  0.21040  Biso   1.000  O
  O40      1.0000 0.82580  0.51700  0.34790  Biso   1.000  O
  O41      1.0000 0.08080  0.25500  0.12470  Biso   1.000  O
  O42      1.0000 0.28610  0.00870  0.33010  Biso   1.000  O
  O43      1.0000 0.17660  0.85320  0.71730  Biso   1.000  O
  O44      1.0000 0.05740  0.82480  0.57170  Biso   1.000  O
  O45      1.0000 0.42700  0.17540  0.50890  Biso   1.000  O
  O46      1.0000 0.30330  0.03690  0.58910  Biso   1.000  O
  O47      1.0000 0.46100  0.28600  0.80980  Biso   1.000  O
  O48      1.0000 0.54350  0.11130  0.95020  Biso   1.000  O
  O49      1.0000 0.51010  0.06970  0.09790  Biso   1.000  O
  O50      1.0000 0.65200  0.82560  0.75880  Biso   1.000  O
  O51      1.0000 0.33020  0.15660  0.83050  Biso   1.000  O
  O52      1.0000 0.43760  0.98780  0.70010  Biso   1.000  O
  O53      1.0000 0.14660  0.69880  0.78960  Biso   1.000  O
  O54      1.0000 0.48300  0.17420  0.65210  Biso   1.000  O
  O55      1.0000 0.74500  0.91920  0.87530  Biso   1.000  O
  O56      1.0000 0.99130  0.71390  0.66990  Biso   1.000  O
