data_image0
_cell_length_a       11.354
_cell_length_b       11.5836
_cell_length_c       16.247
_cell_angle_alpha    105.469
_cell_angle_beta     110.452
_cell_angle_gamma    90

_symmetry_space_group_name_H-M    P 1
_symmetry_int_tables_number       1

loop_
  _symmetry_equiv_pos_as_xyz
  'x, y, z'

loop_
  _atom_site_label
  _atom_site_occupancy
  _atom_site_fract_x
  _atom_site_fract_y
  _atom_site_fract_z
  _atom_site_thermal_displace_type
  _atom_site_B_iso_or_equiv
  _atom_site_type_symbol
  V1       1.0000 0.73512  0.93938  0.28962  Biso   1.000  V
  V2       1.0000 0.51846  0.68140  0.21522  Biso   1.000  V
  V3       1.0000 0.44550  0.56062  0.71038  Biso   1.000  V
  V4       1.0000 0.30324  0.81860  0.78478  Biso   1.000  V
  V5       1.0000 0.26488  0.06062  0.71038  Biso   1.000  V
  V6       1.0000 0.48154  0.31860  0.78478  Biso   1.000  V
  V7       1.0000 0.55450  0.43938  0.28962  Biso   1.000  V
  V8       1.0000 0.69676  0.18140  0.21522  Biso   1.000  V
  Co1      1.0000 1.00000  0.00000  0.50000  Biso   1.000  Co
  Co2      1.0000 0.50000  0.50000  0.50000  Biso   1.000  Co
  Co3      1.0000 0.50000  0.00000  0.00000  Biso   1.000  Co
  Co4      1.0000 0.50000  0.50000  0.00000  Biso   1.000  Co
  H1       1.0000 0.18650  0.86480  0.41620  Biso   1.000  H
  H2       1.0000 0.28040  0.86130  0.31120  Biso   1.000  H
  H3       1.0000 0.09860  0.14580  0.25720  Biso   1.000  H
  H4       1.0000 0.00620  0.13670  0.36060  Biso   1.000  H
  H5       1.0000 0.18620  0.80650  0.55420  Biso   1.000  H
  H6       1.0000 0.18770  0.61480  0.56840  Biso   1.000  H
  H7       1.0000 0.82060  0.55510  0.40980  Biso   1.000  H
  H8       1.0000 0.82980  0.74800  0.39900  Biso   1.000  H
  H9       1.0000 0.39050  0.18060  0.12660  Biso   1.000  H
  H10      1.0000 0.28710  0.18770  0.22660  Biso   1.000  H
  H11      1.0000 0.26450  0.82690  0.15880  Biso   1.000  H
  H12      1.0000 0.37440  0.83160  0.06520  Biso   1.000  H
  H13      1.0000 0.77030  0.63520  0.58380  Biso   1.000  H
  H14      1.0000 0.96920  0.63870  0.68880  Biso   1.000  H
  H15      1.0000 0.84140  0.35420  0.74280  Biso   1.000  H
  H16      1.0000 0.64560  0.36330  0.63940  Biso   1.000  H
  H17      1.0000 0.63200  0.69350  0.44580  Biso   1.000  H
  H18      1.0000 0.61930  0.88520  0.43160  Biso   1.000  H
  H19      1.0000 0.41080  0.94490  0.59020  Biso   1.000  H
  H20      1.0000 0.43080  0.75200  0.60100  Biso   1.000  H
  H21      1.0000 0.26390  0.31940  0.87340  Biso   1.000  H
  H22      1.0000 0.06050  0.31230  0.77340  Biso   1.000  H
  H23      1.0000 0.10570  0.67310  0.84120  Biso   1.000  H
  H24      1.0000 0.30920  0.66840  0.93480  Biso   1.000  H
  H25      1.0000 0.81350  0.13520  0.58380  Biso   1.000  H
  H26      1.0000 0.71960  0.13870  0.68880  Biso   1.000  H
  H27      1.0000 0.90140  0.85420  0.74280  Biso   1.000  H
  H28      1.0000 0.99380  0.86330  0.63940  Biso   1.000  H
  H29      1.0000 0.81380  0.19350  0.44580  Biso   1.000  H
  H30      1.0000 0.81230  0.38520  0.43160  Biso   1.000  H
  H31      1.0000 0.17940  0.44490  0.59020  Biso   1.000  H
  H32      1.0000 0.17020  0.25200  0.60100  Biso   1.000  H
  H33      1.0000 0.60950  0.81940  0.87340  Biso   1.000  H
  H34      1.0000 0.71290  0.81230  0.77340  Biso   1.000  H
  H35      1.0000 0.73550  0.17310  0.84120  Biso   1.000  H
  H36      1.0000 0.62560  0.16840  0.93480  Biso   1.000  H
  H37      1.0000 0.22970  0.36480  0.41620  Biso   1.000  H
  H38      1.0000 0.03080  0.36130  0.31120  Biso   1.000  H
  H39      1.0000 0.15860  0.64580  0.25720  Biso   1.000  H
  H40      1.0000 0.35440  0.63670  0.36060  Biso   1.000  H
  H41      1.0000 0.36800  0.30650  0.55420  Biso   1.000  H
  H42      1.0000 0.38070  0.11480  0.56840  Biso   1.000  H
  H43      1.0000 0.58920  0.05510  0.40980  Biso   1.000  H
  H44      1.0000 0.56920  0.24800  0.39900  Biso   1.000  H
  H45      1.0000 0.73610  0.68060  0.12660  Biso   1.000  H
  H46      1.0000 0.93950  0.68770  0.22660  Biso   1.000  H
  H47      1.0000 0.89430  0.32690  0.15880  Biso   1.000  H
  H48      1.0000 0.69080  0.33160  0.06520  Biso   1.000  H
  C1       1.0000 0.16852  0.92160  0.38364  Biso   1.000  C
  C2       1.0000 0.22632  0.91940  0.32084  Biso   1.000  C
  C3       1.0000 0.20258  0.00520  0.27216  Biso   1.000  C
  C4       1.0000 0.11810  0.08750  0.28840  Biso   1.000  C
  C5       1.0000 0.06332  0.08180  0.35144  Biso   1.000  C
  C6       1.0000 0.11103  0.75590  0.52566  Biso   1.000  C
  C7       1.0000 0.11287  0.64000  0.53494  Biso   1.000  C
  C8       1.0000 0.00181  0.56160  0.49382  Biso   1.000  C
  C9       1.0000 0.89609  0.60490  0.44118  Biso   1.000  C
  C10      1.0000 0.90225  0.72200  0.43490  Biso   1.000  C
  C11      1.0000 0.36554  0.10860  0.13388  Biso   1.000  C
  C12      1.0000 0.30313  0.11390  0.19446  Biso   1.000  C
  C13      1.0000 0.26490  0.00710  0.20620  Biso   1.000  C
  C14      1.0000 0.29071  0.90050  0.15462  Biso   1.000  C
  C15      1.0000 0.35526  0.90390  0.09712  Biso   1.000  C
  C16      1.0000 0.78488  0.57840  0.61636  Biso   1.000  C
  C17      1.0000 0.90548  0.58060  0.67916  Biso   1.000  C
  C18      1.0000 0.93042  0.49480  0.72784  Biso   1.000  C
  C19      1.0000 0.82970  0.41250  0.71160  Biso   1.000  C
  C20      1.0000 0.71188  0.41820  0.64856  Biso   1.000  C
  C21      1.0000 0.58537  0.74410  0.47434  Biso   1.000  C
  C22      1.0000 0.57793  0.86000  0.46506  Biso   1.000  C
  C23      1.0000 0.50799  0.93840  0.50618  Biso   1.000  C
  C24      1.0000 0.45491  0.89510  0.55882  Biso   1.000  C
  C25      1.0000 0.46735  0.77800  0.56510  Biso   1.000  C
  C26      1.0000 0.23166  0.39140  0.86612  Biso   1.000  C
  C27      1.0000 0.10867  0.38610  0.80554  Biso   1.000  C
  C28      1.0000 0.05870  0.49290  0.79380  Biso   1.000  C
  C29      1.0000 0.13609  0.59950  0.84538  Biso   1.000  C
  C30      1.0000 0.25814  0.59610  0.90288  Biso   1.000  C
  C31      1.0000 0.83148  0.07840  0.61636  Biso   1.000  C
  C32      1.0000 0.77368  0.08060  0.67916  Biso   1.000  C
  C33      1.0000 0.79742  0.99480  0.72784  Biso   1.000  C
  C34      1.0000 0.88190  0.91250  0.71160  Biso   1.000  C
  C35      1.0000 0.93668  0.91820  0.64856  Biso   1.000  C
  C36      1.0000 0.88897  0.24410  0.47434  Biso   1.000  C
  C37      1.0000 0.88713  0.36000  0.46506  Biso   1.000  C
  C38      1.0000 0.99819  0.43840  0.50618  Biso   1.000  C
  C39      1.0000 0.10391  0.39510  0.55882  Biso   1.000  C
  C40      1.0000 0.09775  0.27800  0.56510  Biso   1.000  C
  C41      1.0000 0.63446  0.89140  0.86612  Biso   1.000  C
  C42      1.0000 0.69687  0.88610  0.80554  Biso   1.000  C
  C43      1.0000 0.73510  0.99290  0.79380  Biso   1.000  C
  C44      1.0000 0.70929  0.09950  0.84538  Biso   1.000  C
  C45      1.0000 0.64474  0.09610  0.90288  Biso   1.000  C
  C46      1.0000 0.21512  0.42160  0.38364  Biso   1.000  C
  C47      1.0000 0.09452  0.41940  0.32084  Biso   1.000  C
  C48      1.0000 0.06958  0.50520  0.27216  Biso   1.000  C
  C49      1.0000 0.17030  0.58750  0.28840  Biso   1.000  C
  C50      1.0000 0.28812  0.58180  0.35144  Biso   1.000  C
  C51      1.0000 0.41463  0.25590  0.52566  Biso   1.000  C
  C52      1.0000 0.42207  0.14000  0.53494  Biso   1.000  C
  C53      1.0000 0.49201  0.06160  0.49382  Biso   1.000  C
  C54      1.0000 0.54509  0.10490  0.44118  Biso   1.000  C
  C55      1.0000 0.53265  0.22200  0.43490  Biso   1.000  C
  C56      1.0000 0.76834  0.60860  0.13388  Biso   1.000  C
  C57      1.0000 0.89133  0.61390  0.19446  Biso   1.000  C
  C58      1.0000 0.94130  0.50710  0.20620  Biso   1.000  C
  C59      1.0000 0.86391  0.40050  0.15462  Biso   1.000  C
  C60      1.0000 0.74186  0.40390  0.09712  Biso   1.000  C
  N1       1.0000 0.08776  0.00200  0.39992  Biso   1.000  N
  N2       1.0000 0.00765  0.79940  0.47810  Biso   1.000  N
  N3       1.0000 0.39173  0.00590  0.08526  Biso   1.000  N
  N4       1.0000 0.68784  0.49800  0.60008  Biso   1.000  N
  N5       1.0000 0.52955  0.70060  0.52190  Biso   1.000  N
  N6       1.0000 0.30647  0.49410  0.91474  Biso   1.000  N
  N7       1.0000 0.91224  0.99800  0.60008  Biso   1.000  N
  N8       1.0000 0.99235  0.20060  0.52190  Biso   1.000  N
  N9       1.0000 0.60827  0.99410  0.91474  Biso   1.000  N
  N10      1.0000 0.31216  0.50200  0.39992  Biso   1.000  N
  N11      1.0000 0.47045  0.29940  0.47810  Biso   1.000  N
  N12      1.0000 0.69353  0.50590  0.08526  Biso   1.000  N
  O1       1.0000 0.82691  0.97287  0.40062  Biso   1.000  O
  O2       1.0000 0.61463  0.82350  0.26606  Biso   1.000  O
  O3       1.0000 0.81666  0.89490  0.22472  Biso   1.000  O
  O4       1.0000 0.39037  0.69710  0.23754  Biso   1.000  O
  O5       1.0000 0.66397  0.07160  0.26674  Biso   1.000  O
  O6       1.0000 0.62182  0.13710  0.10184  Biso   1.000  O
  O7       1.0000 0.38953  0.13200  0.94626  Biso   1.000  O
  O8       1.0000 0.42629  0.52713  0.59938  Biso   1.000  O
  O9       1.0000 0.34857  0.67650  0.73394  Biso   1.000  O
  O10      1.0000 0.59194  0.60510  0.77528  Biso   1.000  O
  O11      1.0000 0.15283  0.80290  0.76246  Biso   1.000  O
  O12      1.0000 0.39723  0.42840  0.73326  Biso   1.000  O
  O13      1.0000 0.51998  0.36290  0.89816  Biso   1.000  O
  O14      1.0000 0.44327  0.36800  0.05374  Biso   1.000  O
  O15      1.0000 0.17309  0.02713  0.59938  Biso   1.000  O
  O16      1.0000 0.38537  0.17650  0.73394  Biso   1.000  O
  O17      1.0000 0.18334  0.10510  0.77528  Biso   1.000  O
  O18      1.0000 0.60963  0.30290  0.76246  Biso   1.000  O
  O19      1.0000 0.33603  0.92840  0.73326  Biso   1.000  O
  O20      1.0000 0.37818  0.86290  0.89816  Biso   1.000  O
  O21      1.0000 0.61047  0.86800  0.05374  Biso   1.000  O
  O22      1.0000 0.57371  0.47287  0.40062  Biso   1.000  O
  O23      1.0000 0.65143  0.32350  0.26606  Biso   1.000  O
  O24      1.0000 0.40806  0.39490  0.22472  Biso   1.000  O
  O25      1.0000 0.84717  0.19710  0.23754  Biso   1.000  O
  O26      1.0000 0.60277  0.57160  0.26674  Biso   1.000  O
  O27      1.0000 0.48002  0.63710  0.10184  Biso   1.000  O
  O28      1.0000 0.55673  0.63200  0.94626  Biso   1.000  O
