data_image0
_cell_length_a       9.5286
_cell_length_b       10.1451
_cell_length_c       12.5796
_cell_angle_alpha    86.429
_cell_angle_beta     69.606
_cell_angle_gamma    62.338

_symmetry_space_group_name_H-M    "P 1"
_symmetry_int_tables_number       1

loop_
  _symmetry_equiv_pos_as_xyz
  'x, y, z'

loop_
  _atom_site_label
  _atom_site_occupancy
  _atom_site_fract_x
  _atom_site_fract_y
  _atom_site_fract_z
  _atom_site_thermal_displace_type
  _atom_site_B_iso_or_equiv
  _atom_site_type_symbol
  Ga1      1.0000 0.86659  0.91790  0.16374  Biso   1.000  Ga
  Ga2      1.0000 0.89701  0.85395  0.66321  Biso   1.000  Ga
  Mn1      1.0000 0.74674  0.76426  0.43414  Biso   1.000  Mn
  P1       1.0000 0.99558  0.84261  0.88724  Biso   1.000  P
  P2       1.0000 0.88839  0.96537  0.41554  Biso   1.000  P
  P3       1.0000 0.48560  0.01369  0.31756  Biso   1.000  P
  O1       1.0000 0.88360  0.92250  0.00700  Biso   1.000  O
  O2       1.0000 0.12500  0.89720  0.82610  Biso   1.000  O
  O3       1.0000 0.88160  0.85580  0.82240  Biso   1.000  O
  O4       1.0000 0.11140  0.66930  0.88890  Biso   1.000  O
  O5       1.0000 0.04450  0.98470  0.35930  Biso   1.000  O
  O6       1.0000 0.90610  0.85150  0.50240  Biso   1.000  O
  O7       1.0000 0.84360  0.90470  0.32950  Biso   1.000  O
  O8       1.0000 0.73490  0.12230  0.47580  Biso   1.000  O
  O9       1.0000 0.62360  0.01360  0.20800  Biso   1.000  O
  O10      1.0000 0.34410  0.02020  0.27970  Biso   1.000  O
  O11      1.0000 0.42340  0.15040  0.39940  Biso   1.000  O
  O12      1.0000 0.54570  0.86860  0.37310  Biso   1.000  O
  O13      1.0000 0.85280  0.67330  0.67530  Biso   1.000  O
  O14      1.0000 0.14010  0.68490  0.61160  Biso   1.000  O
  O15      1.0000 0.11680  0.78630  0.12620  Biso   1.000  O
  O16      1.0000 0.87350  0.71440  0.16320  Biso   1.000  O
  O17      1.0000 0.28980  0.43820  0.55760  Biso   1.000  O
  O18      1.0000 0.99380  0.42440  0.62850  Biso   1.000  O
  O19      1.0000 0.06230  0.47170  0.11020  Biso   1.000  O
  O20      1.0000 0.31020  0.54640  0.09950  Biso   1.000  O
  C1       1.0000 0.02140  0.60450  0.13020  Biso   1.000  C
  C2       1.0000 0.16390  0.64640  0.11590  Biso   1.000  C
  C3       1.0000 0.98550  0.54900  0.63650  Biso   1.000  C
  C4       1.0000 0.15370  0.55640  0.59690  Biso   1.000  C
  H1       1.0000 0.63940  0.11880  0.51730  Biso   1.000  H
  H2       1.0000 0.08470  0.60260  0.88910  Biso   1.000  H
  Ga3      1.0000 0.13341  0.08210  0.83626  Biso   1.000  Ga
  Ga4      1.0000 0.10299  0.14605  0.33679  Biso   1.000  Ga
  Mn2      1.0000 0.25326  0.23574  0.56586  Biso   1.000  Mn
  P4       1.0000 0.00442  0.15739  0.11276  Biso   1.000  P
  P5       1.0000 0.11161  0.03463  0.58446  Biso   1.000  P
  P6       1.0000 0.51440  0.98631  0.68244  Biso   1.000  P
  O21      1.0000 0.11640  0.07750  0.99300  Biso   1.000  O
  O22      1.0000 0.87500  0.10280  0.17390  Biso   1.000  O
  O23      1.0000 0.11840  0.14420  0.17760  Biso   1.000  O
  O24      1.0000 0.88860  0.33070  0.11110  Biso   1.000  O
  O25      1.0000 0.95550  0.01530  0.64070  Biso   1.000  O
  O26      1.0000 0.09390  0.14850  0.49760  Biso   1.000  O
  O27      1.0000 0.15640  0.09530  0.67050  Biso   1.000  O
  O28      1.0000 0.26510  0.87770  0.52420  Biso   1.000  O
  O29      1.0000 0.37640  0.98640  0.79200  Biso   1.000  O
  O30      1.0000 0.65590  0.97980  0.72030  Biso   1.000  O
  O31      1.0000 0.57660  0.84960  0.60060  Biso   1.000  O
  O32      1.0000 0.45430  0.13140  0.62690  Biso   1.000  O
  O33      1.0000 0.14720  0.32670  0.32470  Biso   1.000  O
  O34      1.0000 0.85990  0.31510  0.38840  Biso   1.000  O
  O35      1.0000 0.88320  0.21370  0.87380  Biso   1.000  O
  O36      1.0000 0.12650  0.28560  0.83680  Biso   1.000  O
  O37      1.0000 0.71020  0.56180  0.44240  Biso   1.000  O
  O38      1.0000 0.00620  0.57560  0.37150  Biso   1.000  O
  O39      1.0000 0.93770  0.52830  0.88980  Biso   1.000  O
  O40      1.0000 0.68980  0.45360  0.90050  Biso   1.000  O
  C5       1.0000 0.97860  0.39550  0.86980  Biso   1.000  C
  C6       1.0000 0.83610  0.35360  0.88410  Biso   1.000  C
  C7       1.0000 0.01450  0.45100  0.36350  Biso   1.000  C
  C8       1.0000 0.84630  0.44360  0.40310  Biso   1.000  C
  H3       1.0000 0.36060  0.88120  0.48270  Biso   1.000  H
  H4       1.0000 0.91530  0.39740  0.11090  Biso   1.000  H
