data_image0
_cell_length_a       6.88
_cell_length_b       14.36
_cell_length_c       15.8
_cell_angle_alpha    90
_cell_angle_beta     101.69
_cell_angle_gamma    90

_symmetry_space_group_name_H-M    P 1
_symmetry_int_tables_number       1

loop_
  _symmetry_equiv_pos_as_xyz
  'x, y, z'

loop_
  _atom_site_label
  _atom_site_occupancy
  _atom_site_fract_x
  _atom_site_fract_y
  _atom_site_fract_z
  _atom_site_thermal_displace_type
  _atom_site_B_iso_or_equiv
  _atom_site_type_symbol
  Sr1      1.0000 0.76629  0.91528  0.54858  Biso   1.000  Sr
  Sr2      1.0000 0.23371  0.41528  0.95142  Biso   1.000  Sr
  Sr3      1.0000 0.23371  0.08472  0.45142  Biso   1.000  Sr
  Sr4      1.0000 0.76629  0.58472  0.04858  Biso   1.000  Sr
  Co1      1.0000 0.77507  0.73730  0.79696  Biso   1.000  Co
  Co2      1.0000 0.22493  0.23730  0.70304  Biso   1.000  Co
  Co3      1.0000 0.22493  0.26270  0.20304  Biso   1.000  Co
  Co4      1.0000 0.77507  0.76270  0.29696  Biso   1.000  Co
  H1       1.0000 0.16450  0.93680  0.84740  Biso   1.000  H
  H2       1.0000 0.29230  0.88410  0.79250  Biso   1.000  H
  H3       1.0000 0.30980  0.54100  0.76660  Biso   1.000  H
  H4       1.0000 0.51050  0.53800  0.73520  Biso   1.000  H
  H5       1.0000 0.83550  0.43680  0.65260  Biso   1.000  H
  H6       1.0000 0.70770  0.38410  0.70750  Biso   1.000  H
  H7       1.0000 0.69020  0.04100  0.73340  Biso   1.000  H
  H8       1.0000 0.48950  0.03800  0.76480  Biso   1.000  H
  H9       1.0000 0.83550  0.06320  0.15260  Biso   1.000  H
  H10      1.0000 0.70770  0.11590  0.20750  Biso   1.000  H
  H11      1.0000 0.69020  0.45900  0.23340  Biso   1.000  H
  H12      1.0000 0.48950  0.46200  0.26480  Biso   1.000  H
  H13      1.0000 0.16450  0.56320  0.34740  Biso   1.000  H
  H14      1.0000 0.29230  0.61590  0.29250  Biso   1.000  H
  H15      1.0000 0.30980  0.95900  0.26660  Biso   1.000  H
  H16      1.0000 0.51050  0.96200  0.23520  Biso   1.000  H
  C1       1.0000 0.00560  0.89140  0.73460  Biso   1.000  C
  C2       1.0000 0.16900  0.88110  0.81320  Biso   1.000  C
  C3       1.0000 0.19090  0.80150  0.87520  Biso   1.000  C
  C4       1.0000 0.37460  0.66390  0.71510  Biso   1.000  C
  C5       1.0000 0.43090  0.57540  0.76630  Biso   1.000  C
  C6       1.0000 0.54320  0.58350  0.85920  Biso   1.000  C
  C7       1.0000 0.99440  0.39140  0.76540  Biso   1.000  C
  C8       1.0000 0.83100  0.38110  0.68680  Biso   1.000  C
  C9       1.0000 0.80910  0.30150  0.62480  Biso   1.000  C
  C10      1.0000 0.62540  0.16390  0.78490  Biso   1.000  C
  C11      1.0000 0.56910  0.07540  0.73370  Biso   1.000  C
  C12      1.0000 0.45680  0.08350  0.64080  Biso   1.000  C
  C13      1.0000 0.99440  0.10860  0.26540  Biso   1.000  C
  C14      1.0000 0.83100  0.11890  0.18680  Biso   1.000  C
  C15      1.0000 0.80910  0.19850  0.12480  Biso   1.000  C
  C16      1.0000 0.62540  0.33610  0.28490  Biso   1.000  C
  C17      1.0000 0.56910  0.42460  0.23370  Biso   1.000  C
  C18      1.0000 0.45680  0.41650  0.14080  Biso   1.000  C
  C19      1.0000 0.00560  0.60860  0.23460  Biso   1.000  C
  C20      1.0000 0.16900  0.61890  0.31320  Biso   1.000  C
  C21      1.0000 0.19090  0.69850  0.37520  Biso   1.000  C
  C22      1.0000 0.37460  0.83610  0.21510  Biso   1.000  C
  C23      1.0000 0.43090  0.92460  0.26630  Biso   1.000  C
  C24      1.0000 0.54320  0.91650  0.35920  Biso   1.000  C
  O1       1.0000 0.68260  0.84130  0.87310  Biso   1.000  O
  O2       1.0000 0.87520  0.62440  0.72960  Biso   1.000  O
  O3       1.0000 0.88620  0.08440  0.51230  Biso   1.000  O
  O4       1.0000 0.89900  0.74630  0.54610  Biso   1.000  O
  O5       1.0000 0.45420  0.81940  0.56280  Biso   1.000  O
  O6       1.0000 0.86320  0.83590  0.71700  Biso   1.000  O
  O7       1.0000 0.02220  0.95940  0.68720  Biso   1.000  O
  O8       1.0000 0.05170  0.74420  0.87460  Biso   1.000  O
  O9       1.0000 0.35070  0.79840  0.92790  Biso   1.000  O
  O10      1.0000 0.49530  0.73070  0.72160  Biso   1.000  O
  O11      1.0000 0.20890  0.66620  0.66590  Biso   1.000  O
  O12      1.0000 0.68520  0.63930  0.87910  Biso   1.000  O
  O13      1.0000 0.49110  0.53020  0.91270  Biso   1.000  O
  O14      1.0000 0.31740  0.34130  0.62690  Biso   1.000  O
  O15      1.0000 0.12480  0.12440  0.77040  Biso   1.000  O
  O16      1.0000 0.11380  0.58440  0.98770  Biso   1.000  O
  O17      1.0000 0.10100  0.24630  0.95390  Biso   1.000  O
  O18      1.0000 0.54580  0.31940  0.93720  Biso   1.000  O
  O19      1.0000 0.13680  0.33590  0.78300  Biso   1.000  O
  O20      1.0000 0.97780  0.45940  0.81280  Biso   1.000  O
  O21      1.0000 0.94830  0.24420  0.62540  Biso   1.000  O
  O22      1.0000 0.64930  0.29840  0.57210  Biso   1.000  O
  O23      1.0000 0.50470  0.23070  0.77840  Biso   1.000  O
  O24      1.0000 0.79110  0.16620  0.83410  Biso   1.000  O
  O25      1.0000 0.31480  0.13930  0.62090  Biso   1.000  O
  O26      1.0000 0.50890  0.03020  0.58730  Biso   1.000  O
  O27      1.0000 0.31740  0.15870  0.12690  Biso   1.000  O
  O28      1.0000 0.12480  0.37560  0.27040  Biso   1.000  O
  O29      1.0000 0.11380  0.91560  0.48770  Biso   1.000  O
  O30      1.0000 0.10100  0.25370  0.45390  Biso   1.000  O
  O31      1.0000 0.54580  0.18060  0.43720  Biso   1.000  O
  O32      1.0000 0.13680  0.16410  0.28300  Biso   1.000  O
  O33      1.0000 0.97780  0.04060  0.31280  Biso   1.000  O
  O34      1.0000 0.94830  0.25580  0.12540  Biso   1.000  O
  O35      1.0000 0.64930  0.20160  0.07210  Biso   1.000  O
  O36      1.0000 0.50470  0.26930  0.27840  Biso   1.000  O
  O37      1.0000 0.79110  0.33380  0.33410  Biso   1.000  O
  O38      1.0000 0.31480  0.36070  0.12090  Biso   1.000  O
  O39      1.0000 0.50890  0.46980  0.08730  Biso   1.000  O
  O40      1.0000 0.68260  0.65870  0.37310  Biso   1.000  O
  O41      1.0000 0.87520  0.87560  0.22960  Biso   1.000  O
  O42      1.0000 0.88620  0.41560  0.01230  Biso   1.000  O
  O43      1.0000 0.89900  0.75370  0.04610  Biso   1.000  O
  O44      1.0000 0.45420  0.68060  0.06280  Biso   1.000  O
  O45      1.0000 0.86320  0.66410  0.21700  Biso   1.000  O
  O46      1.0000 0.02220  0.54060  0.18720  Biso   1.000  O
  O47      1.0000 0.05170  0.75580  0.37460  Biso   1.000  O
  O48      1.0000 0.35070  0.70160  0.42790  Biso   1.000  O
  O49      1.0000 0.49530  0.76930  0.22160  Biso   1.000  O
  O50      1.0000 0.20890  0.83380  0.16590  Biso   1.000  O
  O51      1.0000 0.68520  0.86070  0.37910  Biso   1.000  O
  O52      1.0000 0.49110  0.96980  0.41270  Biso   1.000  O
