data_image0
_cell_length_a       6.7745
_cell_length_b       14.22
_cell_length_c       15.629
_cell_angle_alpha    90
_cell_angle_beta     101.1
_cell_angle_gamma    90

_symmetry_space_group_name_H-M    P 1
_symmetry_int_tables_number       1

loop_
  _symmetry_equiv_pos_as_xyz
  'x, y, z'

loop_
  _atom_site_label
  _atom_site_occupancy
  _atom_site_fract_x
  _atom_site_fract_y
  _atom_site_fract_z
  _atom_site_thermal_displace_type
  _atom_site_B_iso_or_equiv
  _atom_site_type_symbol
  Sr1      1.0000 0.23083  0.58473  0.45173  Biso   1.000  Sr
  Sr2      1.0000 0.76917  0.08473  0.04827  Biso   1.000  Sr
  Sr3      1.0000 0.76917  0.41527  0.54827  Biso   1.000  Sr
  Sr4      1.0000 0.23083  0.91527  0.95173  Biso   1.000  Sr
  Ni1      1.0000 0.22202  0.73529  0.70571  Biso   1.000  Ni
  Ni2      1.0000 0.77798  0.23529  0.79429  Biso   1.000  Ni
  Ni3      1.0000 0.77798  0.26471  0.29429  Biso   1.000  Ni
  Ni4      1.0000 0.22202  0.76471  0.20571  Biso   1.000  Ni
  H1       1.0000 0.49110  0.53700  0.76800  Biso   1.000  H
  H2       1.0000 0.69430  0.54160  0.73500  Biso   1.000  H
  H3       1.0000 0.71440  0.60000  0.19580  Biso   1.000  H
  H4       1.0000 0.87250  0.56390  0.14350  Biso   1.000  H
  H5       1.0000 0.41680  0.82180  0.61010  Biso   1.000  H
  H6       1.0000 0.27650  0.89370  0.61950  Biso   1.000  H
  H7       1.0000 0.02370  0.63710  0.79580  Biso   1.000  H
  H8       1.0000 0.12060  0.57570  0.74580  Biso   1.000  H
  H9       1.0000 0.54170  0.70270  0.38700  Biso   1.000  H
  H10      1.0000 0.58320  0.71480  0.47880  Biso   1.000  H
  H11      1.0000 0.99800  0.77020  0.41990  Biso   1.000  H
  H12      1.0000 0.10600  0.77740  0.50670  Biso   1.000  H
  H13      1.0000 0.08140  0.37770  0.44560  Biso   1.000  H
  H14      1.0000 0.22490  0.40140  0.52130  Biso   1.000  H
  H15      1.0000 0.50890  0.03700  0.73200  Biso   1.000  H
  H16      1.0000 0.30570  0.04160  0.76500  Biso   1.000  H
  H17      1.0000 0.28560  0.10000  0.30420  Biso   1.000  H
  H18      1.0000 0.12750  0.06390  0.35650  Biso   1.000  H
  H19      1.0000 0.58320  0.32180  0.88990  Biso   1.000  H
  H20      1.0000 0.72350  0.39370  0.88050  Biso   1.000  H
  H21      1.0000 0.97630  0.13710  0.70420  Biso   1.000  H
  H22      1.0000 0.87940  0.07570  0.75420  Biso   1.000  H
  H23      1.0000 0.45830  0.20270  0.11300  Biso   1.000  H
  H24      1.0000 0.41680  0.21480  0.02120  Biso   1.000  H
  H25      1.0000 0.00200  0.27020  0.08010  Biso   1.000  H
  H26      1.0000 0.89400  0.27740  0.99330  Biso   1.000  H
  H27      1.0000 0.91860  0.87770  0.05440  Biso   1.000  H
  H28      1.0000 0.77510  0.90140  0.97870  Biso   1.000  H
  H29      1.0000 0.50890  0.46300  0.23200  Biso   1.000  H
  H30      1.0000 0.30570  0.45840  0.26500  Biso   1.000  H
  H31      1.0000 0.28560  0.40000  0.80420  Biso   1.000  H
  H32      1.0000 0.12750  0.43610  0.85650  Biso   1.000  H
  H33      1.0000 0.58320  0.17820  0.38990  Biso   1.000  H
  H34      1.0000 0.72350  0.10630  0.38050  Biso   1.000  H
  H35      1.0000 0.97630  0.36290  0.20420  Biso   1.000  H
  H36      1.0000 0.87940  0.42430  0.25420  Biso   1.000  H
  H37      1.0000 0.45830  0.29730  0.61300  Biso   1.000  H
  H38      1.0000 0.41680  0.28520  0.52120  Biso   1.000  H
  H39      1.0000 0.00200  0.22980  0.58010  Biso   1.000  H
  H40      1.0000 0.89400  0.22260  0.49330  Biso   1.000  H
  H41      1.0000 0.91860  0.62230  0.55440  Biso   1.000  H
  H42      1.0000 0.77510  0.59860  0.47870  Biso   1.000  H
  H43      1.0000 0.49110  0.96300  0.26800  Biso   1.000  H
  H44      1.0000 0.69430  0.95840  0.23500  Biso   1.000  H
  H45      1.0000 0.71440  0.90000  0.69580  Biso   1.000  H
  H46      1.0000 0.87250  0.93610  0.64350  Biso   1.000  H
  H47      1.0000 0.41680  0.67820  0.11010  Biso   1.000  H
  H48      1.0000 0.27650  0.60630  0.11950  Biso   1.000  H
  H49      1.0000 0.02370  0.86290  0.29580  Biso   1.000  H
  H50      1.0000 0.12060  0.92430  0.24580  Biso   1.000  H
  H51      1.0000 0.54170  0.79730  0.88700  Biso   1.000  H
  H52      1.0000 0.58320  0.78520  0.97880  Biso   1.000  H
  H53      1.0000 0.99800  0.72980  0.91990  Biso   1.000  H
  H54      1.0000 0.10600  0.72260  0.00670  Biso   1.000  H
  H55      1.0000 0.08140  0.12230  0.94560  Biso   1.000  H
  H56      1.0000 0.22490  0.09860  0.02130  Biso   1.000  H
  C1       1.0000 0.45690  0.58360  0.64370  Biso   1.000  C
  C2       1.0000 0.57030  0.57540  0.73590  Biso   1.000  C
  C3       1.0000 0.62350  0.66550  0.78640  Biso   1.000  C
  C4       1.0000 0.99650  0.60730  0.26370  Biso   1.000  C
  C5       1.0000 0.84350  0.61450  0.18090  Biso   1.000  C
  C6       1.0000 0.81250  0.70120  0.12520  Biso   1.000  C
  C7       1.0000 0.54310  0.08360  0.85630  Biso   1.000  C
  C8       1.0000 0.42970  0.07540  0.76410  Biso   1.000  C
  C9       1.0000 0.37650  0.16550  0.71360  Biso   1.000  C
  C10      1.0000 0.00350  0.10730  0.23630  Biso   1.000  C
  C11      1.0000 0.15650  0.11450  0.31910  Biso   1.000  C
  C12      1.0000 0.18750  0.20120  0.37480  Biso   1.000  C
  C13      1.0000 0.54310  0.41640  0.35630  Biso   1.000  C
  C14      1.0000 0.42970  0.42460  0.26410  Biso   1.000  C
  C15      1.0000 0.37650  0.33450  0.21360  Biso   1.000  C
  C16      1.0000 0.00350  0.39270  0.73630  Biso   1.000  C
  C17      1.0000 0.15650  0.38550  0.81910  Biso   1.000  C
  C18      1.0000 0.18750  0.29880  0.87480  Biso   1.000  C
  C19      1.0000 0.45690  0.91640  0.14370  Biso   1.000  C
  C20      1.0000 0.57030  0.92460  0.23590  Biso   1.000  C
  C21      1.0000 0.62350  0.83450  0.28640  Biso   1.000  C
  C22      1.0000 0.99650  0.89270  0.76370  Biso   1.000  C
  C23      1.0000 0.84350  0.88550  0.68090  Biso   1.000  C
  C24      1.0000 0.81250  0.79880  0.62520  Biso   1.000  C
  O1       1.0000 0.30990  0.64013  0.62355  Biso   1.000  O
  O2       1.0000 0.50630  0.53042  0.58789  Biso   1.000  O
  O3       1.0000 0.79100  0.66560  0.83750  Biso   1.000  O
  O4       1.0000 0.50060  0.73100  0.78045  Biso   1.000  O
  O5       1.0000 0.13540  0.66635  0.28471  Biso   1.000  O
  O6       1.0000 0.97900  0.53826  0.31083  Biso   1.000  O
  O7       1.0000 0.94610  0.76060  0.12803  Biso   1.000  O
  O8       1.0000 0.64710  0.70650  0.07290  Biso   1.000  O
  O9       1.0000 0.31820  0.83810  0.63260  Biso   1.000  O
  O10      1.0000 0.12940  0.62606  0.77554  Biso   1.000  O
  O11      1.0000 0.54530  0.67747  0.43632  Biso   1.000  O
  O12      1.0000 0.10320  0.75485  0.45627  Biso   1.000  O
  O13      1.0000 0.11450  0.41616  0.48759  Biso   1.000  O
  O14      1.0000 0.69010  0.14013  0.87645  Biso   1.000  O
  O15      1.0000 0.49370  0.03042  0.91211  Biso   1.000  O
  O16      1.0000 0.20900  0.16560  0.66250  Biso   1.000  O
  O17      1.0000 0.49940  0.23100  0.71955  Biso   1.000  O
  O18      1.0000 0.86460  0.16635  0.21529  Biso   1.000  O
  O19      1.0000 0.02100  0.03826  0.18917  Biso   1.000  O
  O20      1.0000 0.05390  0.26060  0.37197  Biso   1.000  O
  O21      1.0000 0.35290  0.20650  0.42710  Biso   1.000  O
  O22      1.0000 0.68180  0.33810  0.86740  Biso   1.000  O
  O23      1.0000 0.87060  0.12606  0.72446  Biso   1.000  O
  O24      1.0000 0.45470  0.17747  0.06368  Biso   1.000  O
  O25      1.0000 0.89680  0.25485  0.04373  Biso   1.000  O
  O26      1.0000 0.88550  0.91616  0.01241  Biso   1.000  O
  O27      1.0000 0.69010  0.35987  0.37645  Biso   1.000  O
  O28      1.0000 0.49370  0.46958  0.41211  Biso   1.000  O
  O29      1.0000 0.20900  0.33440  0.16250  Biso   1.000  O
  O30      1.0000 0.49940  0.26900  0.21955  Biso   1.000  O
  O31      1.0000 0.86460  0.33365  0.71529  Biso   1.000  O
  O32      1.0000 0.02100  0.46174  0.68917  Biso   1.000  O
  O33      1.0000 0.05390  0.23940  0.87197  Biso   1.000  O
  O34      1.0000 0.35290  0.29350  0.92710  Biso   1.000  O
  O35      1.0000 0.68180  0.16190  0.36740  Biso   1.000  O
  O36      1.0000 0.87060  0.37394  0.22446  Biso   1.000  O
  O37      1.0000 0.45470  0.32253  0.56368  Biso   1.000  O
  O38      1.0000 0.89680  0.24515  0.54373  Biso   1.000  O
  O39      1.0000 0.88550  0.58384  0.51241  Biso   1.000  O
  O40      1.0000 0.30990  0.85987  0.12355  Biso   1.000  O
  O41      1.0000 0.50630  0.96958  0.08789  Biso   1.000  O
  O42      1.0000 0.79100  0.83440  0.33750  Biso   1.000  O
  O43      1.0000 0.50060  0.76900  0.28045  Biso   1.000  O
  O44      1.0000 0.13540  0.83365  0.78471  Biso   1.000  O
  O45      1.0000 0.97900  0.96174  0.81083  Biso   1.000  O
  O46      1.0000 0.94610  0.73940  0.62803  Biso   1.000  O
  O47      1.0000 0.64710  0.79350  0.57290  Biso   1.000  O
  O48      1.0000 0.31820  0.66190  0.13260  Biso   1.000  O
  O49      1.0000 0.12940  0.87394  0.27554  Biso   1.000  O
  O50      1.0000 0.54530  0.82253  0.93632  Biso   1.000  O
  O51      1.0000 0.10320  0.74515  0.95627  Biso   1.000  O
  O52      1.0000 0.11450  0.08384  0.98759  Biso   1.000  O
