data_image0
_cell_length_a       8.0135
_cell_length_b       17.658
_cell_length_c       13.8841
_cell_angle_alpha    90
_cell_angle_beta     90
_cell_angle_gamma    90

_symmetry_space_group_name_H-M    "P 1"
_symmetry_int_tables_number       1

loop_
  _symmetry_equiv_pos_as_xyz
  'x, y, z'

loop_
  _atom_site_label
  _atom_site_occupancy
  _atom_site_fract_x
  _atom_site_fract_y
  _atom_site_fract_z
  _atom_site_thermal_displace_type
  _atom_site_B_iso_or_equiv
  _atom_site_type_symbol
  H1       1.0000 0.06460  0.20520  0.85440  Biso   1.000  H
  H2       1.0000 0.77240  0.20490  0.83220  Biso   1.000  H
  C1       1.0000 0.91640  0.31040  0.65810  Biso   1.000  C
  H3       1.0000 0.90760  0.36110  0.67810  Biso   1.000  H
  N1       1.0000 0.96270  0.28890  0.57170  Biso   1.000  N
  C2       1.0000 0.09980  0.39513  0.36400  Biso   1.000  C
  H4       1.0000 0.21160  0.40870  0.37510  Biso   1.000  H
  N2       1.0000 0.05200  0.33498  0.31578  Biso   1.000  N
  N3       1.0000 0.87810  0.33564  0.31542  Biso   1.000  N
  C3       1.0000 0.83160  0.39616  0.36360  Biso   1.000  C
  H5       1.0000 0.72020  0.41050  0.37430  Biso   1.000  H
  N4       1.0000 0.96620  0.43494  0.39549  Biso   1.000  N
  C4       1.0000 0.96730  0.50669  0.44900  Biso   1.000  C
  H6       1.0000 0.85390  0.52740  0.45190  Biso   1.000  H
  H7       1.0000 0.03860  0.54350  0.41580  Biso   1.000  H
  H8       1.0000 0.43540  0.79480  0.35440  Biso   1.000  H
  H9       1.0000 0.72760  0.79510  0.33220  Biso   1.000  H
  C5       1.0000 0.58360  0.68960  0.15810  Biso   1.000  C
  H10      1.0000 0.59240  0.63890  0.17810  Biso   1.000  H
  N5       1.0000 0.53730  0.71110  0.07170  Biso   1.000  N
  C6       1.0000 0.40020  0.60487  0.86400  Biso   1.000  C
  H11      1.0000 0.28840  0.59130  0.87510  Biso   1.000  H
  N6       1.0000 0.44800  0.66502  0.81578  Biso   1.000  N
  N7       1.0000 0.62190  0.66436  0.81542  Biso   1.000  N
  C7       1.0000 0.66840  0.60384  0.86360  Biso   1.000  C
  H12      1.0000 0.77980  0.58950  0.87430  Biso   1.000  H
  N8       1.0000 0.53380  0.56506  0.89549  Biso   1.000  N
  C8       1.0000 0.53270  0.49331  0.94900  Biso   1.000  C
  H13      1.0000 0.64610  0.47260  0.95190  Biso   1.000  H
  H14      1.0000 0.46140  0.45650  0.91580  Biso   1.000  H
  H15      1.0000 0.93540  0.70520  0.14560  Biso   1.000  H
  H16      1.0000 0.22760  0.70490  0.16780  Biso   1.000  H
  C9       1.0000 0.08360  0.81040  0.34190  Biso   1.000  C
  H17      1.0000 0.09240  0.86110  0.32190  Biso   1.000  H
  N9       1.0000 0.03730  0.78890  0.42830  Biso   1.000  N
  C10      1.0000 0.90020  0.89513  0.63600  Biso   1.000  C
  H18      1.0000 0.78840  0.90870  0.62490  Biso   1.000  H
  N10      1.0000 0.94800  0.83498  0.68422  Biso   1.000  N
  N11      1.0000 0.12190  0.83564  0.68458  Biso   1.000  N
  C11      1.0000 0.16840  0.89616  0.63640  Biso   1.000  C
  H19      1.0000 0.27980  0.91050  0.62570  Biso   1.000  H
  N12      1.0000 0.03380  0.93494  0.60451  Biso   1.000  N
  C12      1.0000 0.03270  0.00669  0.55100  Biso   1.000  C
  H20      1.0000 0.14610  0.02740  0.54810  Biso   1.000  H
  H21      1.0000 0.96140  0.04350  0.58420  Biso   1.000  H
  H22      1.0000 0.56460  0.29480  0.64560  Biso   1.000  H
  H23      1.0000 0.27240  0.29510  0.66780  Biso   1.000  H
  C13      1.0000 0.41640  0.18960  0.84190  Biso   1.000  C
  H24      1.0000 0.40760  0.13890  0.82190  Biso   1.000  H
  N13      1.0000 0.46270  0.21110  0.92830  Biso   1.000  N
  C14      1.0000 0.59980  0.10487  0.13600  Biso   1.000  C
  H25      1.0000 0.71160  0.09130  0.12490  Biso   1.000  H
  N14      1.0000 0.55200  0.16502  0.18422  Biso   1.000  N
  N15      1.0000 0.37810  0.16436  0.18458  Biso   1.000  N
  C15      1.0000 0.33160  0.10384  0.13640  Biso   1.000  C
  H26      1.0000 0.22020  0.08950  0.12570  Biso   1.000  H
  N16      1.0000 0.46620  0.06506  0.10451  Biso   1.000  N
  C16      1.0000 0.46730  0.99331  0.05100  Biso   1.000  C
  H27      1.0000 0.35390  0.97260  0.04810  Biso   1.000  H
  H28      1.0000 0.53860  0.95650  0.08420  Biso   1.000  H
  H29      1.0000 0.93540  0.79480  0.14560  Biso   1.000  H
  H30      1.0000 0.22760  0.79510  0.16780  Biso   1.000  H
  C17      1.0000 0.08360  0.68960  0.34190  Biso   1.000  C
  H31      1.0000 0.09240  0.63890  0.32190  Biso   1.000  H
  N17      1.0000 0.03730  0.71110  0.42830  Biso   1.000  N
  C18      1.0000 0.90020  0.60487  0.63600  Biso   1.000  C
  H32      1.0000 0.78840  0.59130  0.62490  Biso   1.000  H
  N18      1.0000 0.94800  0.66502  0.68422  Biso   1.000  N
  N19      1.0000 0.12190  0.66436  0.68458  Biso   1.000  N
  C19      1.0000 0.16840  0.60384  0.63640  Biso   1.000  C
  H33      1.0000 0.27980  0.58950  0.62570  Biso   1.000  H
  N20      1.0000 0.03380  0.56506  0.60451  Biso   1.000  N
  C20      1.0000 0.03270  0.49331  0.55100  Biso   1.000  C
  H34      1.0000 0.14610  0.47260  0.54810  Biso   1.000  H
  H35      1.0000 0.96140  0.45650  0.58420  Biso   1.000  H
  H36      1.0000 0.56460  0.20520  0.64560  Biso   1.000  H
  H37      1.0000 0.27240  0.20490  0.66780  Biso   1.000  H
  C21      1.0000 0.41640  0.31040  0.84190  Biso   1.000  C
  H38      1.0000 0.40760  0.36110  0.82190  Biso   1.000  H
  N21      1.0000 0.46270  0.28890  0.92830  Biso   1.000  N
  C22      1.0000 0.59980  0.39513  0.13600  Biso   1.000  C
  H39      1.0000 0.71160  0.40870  0.12490  Biso   1.000  H
  N22      1.0000 0.55200  0.33498  0.18422  Biso   1.000  N
  N23      1.0000 0.37810  0.33564  0.18458  Biso   1.000  N
  C23      1.0000 0.33160  0.39616  0.13640  Biso   1.000  C
  H40      1.0000 0.22020  0.41050  0.12570  Biso   1.000  H
  N24      1.0000 0.46620  0.43494  0.10451  Biso   1.000  N
  C24      1.0000 0.46730  0.50669  0.05100  Biso   1.000  C
  H41      1.0000 0.35390  0.52740  0.04810  Biso   1.000  H
  H42      1.0000 0.53860  0.54350  0.08420  Biso   1.000  H
  H43      1.0000 0.06460  0.29480  0.85440  Biso   1.000  H
  H44      1.0000 0.77240  0.29510  0.83220  Biso   1.000  H
  C25      1.0000 0.91640  0.18960  0.65810  Biso   1.000  C
  H45      1.0000 0.90760  0.13890  0.67810  Biso   1.000  H
  N25      1.0000 0.96270  0.21110  0.57170  Biso   1.000  N
  C26      1.0000 0.09980  0.10487  0.36400  Biso   1.000  C
  H46      1.0000 0.21160  0.09130  0.37510  Biso   1.000  H
  N26      1.0000 0.05200  0.16502  0.31578  Biso   1.000  N
  N27      1.0000 0.87810  0.16436  0.31542  Biso   1.000  N
  C27      1.0000 0.83160  0.10384  0.36360  Biso   1.000  C
  H47      1.0000 0.72020  0.08950  0.37430  Biso   1.000  H
  N28      1.0000 0.96620  0.06506  0.39549  Biso   1.000  N
  C28      1.0000 0.96730  0.99331  0.44900  Biso   1.000  C
  H48      1.0000 0.85390  0.97260  0.45190  Biso   1.000  H
  H49      1.0000 0.03860  0.95650  0.41580  Biso   1.000  H
  H50      1.0000 0.43540  0.70520  0.35440  Biso   1.000  H
  H51      1.0000 0.72760  0.70490  0.33220  Biso   1.000  H
  C29      1.0000 0.58360  0.81040  0.15810  Biso   1.000  C
  H52      1.0000 0.59240  0.86110  0.17810  Biso   1.000  H
  N29      1.0000 0.53730  0.78890  0.07170  Biso   1.000  N
  C30      1.0000 0.40020  0.89513  0.86400  Biso   1.000  C
  H53      1.0000 0.28840  0.90870  0.87510  Biso   1.000  H
  N30      1.0000 0.44800  0.83498  0.81578  Biso   1.000  N
  N31      1.0000 0.62190  0.83564  0.81542  Biso   1.000  N
  C31      1.0000 0.66840  0.89616  0.86360  Biso   1.000  C
  H54      1.0000 0.77980  0.91050  0.87430  Biso   1.000  H
  N32      1.0000 0.53380  0.93494  0.89549  Biso   1.000  N
  C32      1.0000 0.53270  0.00669  0.94900  Biso   1.000  C
  H55      1.0000 0.64610  0.02740  0.95190  Biso   1.000  H
  H56      1.0000 0.46140  0.04350  0.91580  Biso   1.000  H
  Zn1      1.0000 0.21439  0.25000  0.25202  Biso   1.000  Zn
  C33      1.0000 0.10470  0.25000  0.04050  Biso   1.000  C
  H57      1.0000 0.21790  0.25000  0.02270  Biso   1.000  H
  N33      1.0000 0.05150  0.25000  0.12810  Biso   1.000  N
  N34      1.0000 0.87640  0.25000  0.12370  Biso   1.000  N
  C34      1.0000 0.83720  0.25000  0.03270  Biso   1.000  C
  H58      1.0000 0.72760  0.25000  0.00870  Biso   1.000  H
  N35      1.0000 0.97640  0.25000  0.97780  Biso   1.000  N
  C35      1.0000 0.99970  0.25000  0.87260  Biso   1.000  C
  C36      1.0000 0.83840  0.25000  0.81660  Biso   1.000  C
  N36      1.0000 0.88320  0.25000  0.71440  Biso   1.000  N
  Zn2      1.0000 0.28561  0.75000  0.75202  Biso   1.000  Zn
  C37      1.0000 0.39530  0.75000  0.54050  Biso   1.000  C
  H59      1.0000 0.28210  0.75000  0.52270  Biso   1.000  H
  N37      1.0000 0.44850  0.75000  0.62810  Biso   1.000  N
  N38      1.0000 0.62360  0.75000  0.62370  Biso   1.000  N
  C38      1.0000 0.66280  0.75000  0.53270  Biso   1.000  C
  H60      1.0000 0.77240  0.75000  0.50870  Biso   1.000  H
  N39      1.0000 0.52360  0.75000  0.47780  Biso   1.000  N
  C39      1.0000 0.50030  0.75000  0.37260  Biso   1.000  C
  C40      1.0000 0.66160  0.75000  0.31660  Biso   1.000  C
  N40      1.0000 0.61680  0.75000  0.21440  Biso   1.000  N
  Zn3      1.0000 0.78561  0.75000  0.74798  Biso   1.000  Zn
  C41      1.0000 0.89530  0.75000  0.95950  Biso   1.000  C
  H61      1.0000 0.78210  0.75000  0.97730  Biso   1.000  H
  N41      1.0000 0.94850  0.75000  0.87190  Biso   1.000  N
  N42      1.0000 0.12360  0.75000  0.87630  Biso   1.000  N
  C42      1.0000 0.16280  0.75000  0.96730  Biso   1.000  C
  H62      1.0000 0.27240  0.75000  0.99130  Biso   1.000  H
  N43      1.0000 0.02360  0.75000  0.02220  Biso   1.000  N
  C43      1.0000 0.00030  0.75000  0.12740  Biso   1.000  C
  C44      1.0000 0.16160  0.75000  0.18340  Biso   1.000  C
  N44      1.0000 0.11680  0.75000  0.28560  Biso   1.000  N
  Zn4      1.0000 0.71439  0.25000  0.24798  Biso   1.000  Zn
  C45      1.0000 0.60470  0.25000  0.45950  Biso   1.000  C
  H63      1.0000 0.71790  0.25000  0.47730  Biso   1.000  H
  N45      1.0000 0.55150  0.25000  0.37190  Biso   1.000  N
  N46      1.0000 0.37640  0.25000  0.37630  Biso   1.000  N
  C46      1.0000 0.33720  0.25000  0.46730  Biso   1.000  C
  H64      1.0000 0.22760  0.25000  0.49130  Biso   1.000  H
  N47      1.0000 0.47640  0.25000  0.52220  Biso   1.000  N
  C47      1.0000 0.49970  0.25000  0.62740  Biso   1.000  C
  C48      1.0000 0.33840  0.25000  0.68340  Biso   1.000  C
  N48      1.0000 0.38320  0.25000  0.78560  Biso   1.000  N
