data_image0
_cell_length_a       19.739
_cell_length_b       19.739
_cell_length_c       7.4768
_cell_angle_alpha    90
_cell_angle_beta     90
_cell_angle_gamma    90

_symmetry_space_group_name_H-M    "P 1"
_symmetry_int_tables_number       1

loop_
  _symmetry_equiv_pos_as_xyz
  'x, y, z'

loop_
  _atom_site_label
  _atom_site_occupancy
  _atom_site_fract_x
  _atom_site_fract_y
  _atom_site_fract_z
  _atom_site_thermal_displace_type
  _atom_site_B_iso_or_equiv
  _atom_site_type_symbol
  Zn1      1.0000 0.00000  0.00000  0.00000  Biso   1.000  Zn
  Si1      1.0000 0.00000  0.00000  0.50000  Biso   1.000  Si
  F1       1.0000 0.00000  0.00000  0.27150  Biso   1.000  F
  F2       1.0000 0.00000  0.00000  0.72850  Biso   1.000  F
  F3       1.0000 0.05982  0.05982  0.50000  Biso   1.000  F
  F4       1.0000 0.94018  0.94018  0.50000  Biso   1.000  F
  F5       1.0000 0.94018  0.05982  0.50000  Biso   1.000  F
  F6       1.0000 0.05982  0.94018  0.50000  Biso   1.000  F
  O1       1.0000 0.32170  0.11490  0.00000  Biso   1.000  O
  C1       1.0000 0.35460  0.06250  0.00000  Biso   1.000  C
  C2       1.0000 0.42970  0.06280  0.00000  Biso   1.000  C
  C3       1.0000 0.46420  0.12110  0.00000  Biso   1.000  C
  H1       1.0000 0.44040  0.16290  0.00000  Biso   1.000  H
  O2       1.0000 0.67830  0.88510  0.00000  Biso   1.000  O
  C4       1.0000 0.64540  0.93750  0.00000  Biso   1.000  C
  C5       1.0000 0.57030  0.93720  0.00000  Biso   1.000  C
  C6       1.0000 0.53580  0.87890  0.00000  Biso   1.000  C
  H2       1.0000 0.55960  0.83710  0.00000  Biso   1.000  H
  O3       1.0000 0.88510  0.32170  0.00000  Biso   1.000  O
  C7       1.0000 0.93750  0.35460  0.00000  Biso   1.000  C
  C8       1.0000 0.93720  0.42970  0.00000  Biso   1.000  C
  C9       1.0000 0.87890  0.46420  0.00000  Biso   1.000  C
  H3       1.0000 0.83710  0.44040  0.00000  Biso   1.000  H
  O4       1.0000 0.11490  0.67830  0.00000  Biso   1.000  O
  C10      1.0000 0.06250  0.64540  0.00000  Biso   1.000  C
  C11      1.0000 0.06280  0.57030  0.00000  Biso   1.000  C
  C12      1.0000 0.12110  0.53580  0.00000  Biso   1.000  C
  H4       1.0000 0.16290  0.55960  0.00000  Biso   1.000  H
  O5       1.0000 0.67830  0.11490  0.00000  Biso   1.000  O
  C13      1.0000 0.64540  0.06250  0.00000  Biso   1.000  C
  C14      1.0000 0.57030  0.06280  0.00000  Biso   1.000  C
  C15      1.0000 0.53580  0.12110  0.00000  Biso   1.000  C
  H5       1.0000 0.55960  0.16290  0.00000  Biso   1.000  H
  O6       1.0000 0.32170  0.88510  0.00000  Biso   1.000  O
  C16      1.0000 0.35460  0.93750  0.00000  Biso   1.000  C
  C17      1.0000 0.42970  0.93720  0.00000  Biso   1.000  C
  C18      1.0000 0.46420  0.87890  0.00000  Biso   1.000  C
  H6       1.0000 0.44040  0.83710  0.00000  Biso   1.000  H
  O7       1.0000 0.11490  0.32170  0.00000  Biso   1.000  O
  C19      1.0000 0.06250  0.35460  0.00000  Biso   1.000  C
  C20      1.0000 0.06280  0.42970  0.00000  Biso   1.000  C
  C21      1.0000 0.12110  0.46420  0.00000  Biso   1.000  C
  H7       1.0000 0.16290  0.44040  0.00000  Biso   1.000  H
  O8       1.0000 0.88510  0.67830  0.00000  Biso   1.000  O
  C22      1.0000 0.93750  0.64540  0.00000  Biso   1.000  C
  C23      1.0000 0.93720  0.57030  0.00000  Biso   1.000  C
  C24      1.0000 0.87890  0.53580  0.00000  Biso   1.000  C
  H8       1.0000 0.83710  0.55960  0.00000  Biso   1.000  H
  N1       1.0000 0.10960  0.00000  0.00000  Biso   1.000  N
  N2       1.0000 0.32260  0.00000  0.00000  Biso   1.000  N
  C25      1.0000 0.24910  0.00000  0.00000  Biso   1.000  C
  C26      1.0000 0.46430  0.00000  0.00000  Biso   1.000  C
  N3       1.0000 0.89040  0.00000  0.00000  Biso   1.000  N
  N4       1.0000 0.67740  0.00000  0.00000  Biso   1.000  N
  C27      1.0000 0.75090  0.00000  0.00000  Biso   1.000  C
  C28      1.0000 0.53570  0.00000  0.00000  Biso   1.000  C
  N5       1.0000 0.00000  0.10960  0.00000  Biso   1.000  N
  N6       1.0000 0.00000  0.32260  0.00000  Biso   1.000  N
  C29      1.0000 0.00000  0.24910  0.00000  Biso   1.000  C
  C30      1.0000 0.00000  0.46430  0.00000  Biso   1.000  C
  N7       1.0000 0.00000  0.89040  0.00000  Biso   1.000  N
  N8       1.0000 0.00000  0.67740  0.00000  Biso   1.000  N
  C31      1.0000 0.00000  0.75090  0.00000  Biso   1.000  C
  C32      1.0000 0.00000  0.53570  0.00000  Biso   1.000  C
  C33      1.0000 0.14450  0.00000  0.85380  Biso   1.000  C
  H9       1.0000 0.12050  0.00000  0.74370  Biso   1.000  H
  C34      1.0000 0.21410  0.00000  0.84720  Biso   1.000  C
  H10      1.0000 0.23690  0.00000  0.73540  Biso   1.000  H
  C35      1.0000 0.85550  0.00000  0.85380  Biso   1.000  C
  H11      1.0000 0.87950  0.00000  0.74370  Biso   1.000  H
  C36      1.0000 0.78590  0.00000  0.84720  Biso   1.000  C
  H12      1.0000 0.76310  0.00000  0.73540  Biso   1.000  H
  C37      1.0000 0.00000  0.14450  0.85380  Biso   1.000  C
  H13      1.0000 0.00000  0.12050  0.74370  Biso   1.000  H
  C38      1.0000 0.00000  0.21410  0.84720  Biso   1.000  C
  H14      1.0000 0.00000  0.23690  0.73540  Biso   1.000  H
  C39      1.0000 0.00000  0.85550  0.85380  Biso   1.000  C
  H15      1.0000 0.00000  0.87950  0.74370  Biso   1.000  H
  C40      1.0000 0.00000  0.78590  0.84720  Biso   1.000  C
  H16      1.0000 0.00000  0.76310  0.73540  Biso   1.000  H
  C41      1.0000 0.85550  0.00000  0.14620  Biso   1.000  C
  H17      1.0000 0.87950  0.00000  0.25630  Biso   1.000  H
  C42      1.0000 0.78590  0.00000  0.15280  Biso   1.000  C
  H18      1.0000 0.76310  0.00000  0.26460  Biso   1.000  H
  C43      1.0000 0.14450  0.00000  0.14620  Biso   1.000  C
  H19      1.0000 0.12050  0.00000  0.25630  Biso   1.000  H
  C44      1.0000 0.21410  0.00000  0.15280  Biso   1.000  C
  H20      1.0000 0.23690  0.00000  0.26460  Biso   1.000  H
  C45      1.0000 0.00000  0.14450  0.14620  Biso   1.000  C
  H21      1.0000 0.00000  0.12050  0.25630  Biso   1.000  H
  C46      1.0000 0.00000  0.21410  0.15280  Biso   1.000  C
  H22      1.0000 0.00000  0.23690  0.26460  Biso   1.000  H
  C47      1.0000 0.00000  0.85550  0.14620  Biso   1.000  C
  H23      1.0000 0.00000  0.87950  0.25630  Biso   1.000  H
  C48      1.0000 0.00000  0.78590  0.15280  Biso   1.000  C
  H24      1.0000 0.00000  0.76310  0.26460  Biso   1.000  H
