data_image0
_cell_length_a       30.753
_cell_length_b       15.7285
_cell_length_c       22.119
_cell_angle_alpha    90
_cell_angle_beta     133.118
_cell_angle_gamma    90

_symmetry_space_group_name_H-M    "P 1"
_symmetry_int_tables_number       1

loop_
  _symmetry_equiv_pos_as_xyz
  'x, y, z'

loop_
  _atom_site_label
  _atom_site_occupancy
  _atom_site_fract_x
  _atom_site_fract_y
  _atom_site_fract_z
  _atom_site_thermal_displace_type
  _atom_site_B_iso_or_equiv
  _atom_site_type_symbol
  Ce1      1.0000 0.89005  0.63692  0.32743  Biso   1.000  Ce
  Ce2      1.0000 0.83061  0.62847  0.98577  Biso   1.000  Ce
  N1       1.0000 0.83860  0.49640  0.24270  Biso   1.000  N
  N2       1.0000 0.63340  0.73140  0.03540  Biso   1.000  N
  O1       1.0000 0.86550  0.52720  0.38150  Biso   1.000  O
  O2       1.0000 0.82610  0.40260  0.37390  Biso   1.000  O
  O3       1.0000 0.87580  0.61540  0.20330  Biso   1.000  O
  O4       1.0000 0.84050  0.54680  0.09040  Biso   1.000  O
  O5       1.0000 0.74760  0.76620  0.12740  Biso   1.000  O
  O6       1.0000 0.77700  0.65080  0.20580  Biso   1.000  O
  O7       1.0000 0.55940  0.85370  0.93110  Biso   1.000  O
  O8       1.0000 0.48100  0.78200  0.88780  Biso   1.000  O
  O9       1.0000 0.83920  0.70460  0.37000  Biso   1.000  O
  H1       1.0000 0.83970  0.75830  0.36610  Biso   1.000  H
  H2       1.0000 0.80340  0.68850  0.34100  Biso   1.000  H
  O10      1.0000 0.96830  0.63200  0.48950  Biso   1.000  O
  H3       1.0000 0.96760  0.67570  0.51140  Biso   1.000  H
  H4       1.0000 0.96590  0.58690  0.50820  Biso   1.000  H
  O11      1.0000 0.97340  0.52250  0.37770  Biso   1.000  O
  H5       1.0000 0.95880  0.48220  0.34290  Biso   1.000  H
  H6       1.0000 0.00170  0.54550  0.38500  Biso   1.000  H
  O12      1.0000 0.86520  0.78190  0.26120  Biso   1.000  O
  H7       1.0000 0.82780  0.79060  0.22510  Biso   1.000  H
  H8       1.0000 0.88210  0.82110  0.29740  Biso   1.000  H
  O13      1.0000 0.87750  0.48330  0.01400  Biso   1.000  O
  H9       1.0000 0.86520  0.45860  0.97050  Biso   1.000  H
  H10      1.0000 0.87460  0.45060  0.04170  Biso   1.000  H
  O14      1.0000 0.74780  0.52900  0.88850  Biso   1.000  O
  H11      1.0000 0.72200  0.53000  0.89210  Biso   1.000  H
  H12      1.0000 0.75980  0.47850  0.89420  Biso   1.000  H
  O15      1.0000 0.74500  0.66060  0.97860  Biso   1.000  O
  H13      1.0000 0.75100  0.70560  0.00470  Biso   1.000  H
  H14      1.0000 0.73800  0.61910  0.99560  Biso   1.000  H
  O16      1.0000 0.86610  0.73360  0.10540  Biso   1.000  O
  H15      1.0000 0.84210  0.77510  0.08650  Biso   1.000  H
  H16      1.0000 0.90090  0.75250  0.13140  Biso   1.000  H
  C1       1.0000 0.83860  0.46000  0.34630  Biso   1.000  C
  C2       1.0000 0.81500  0.44280  0.26180  Biso   1.000  C
  C3       1.0000 0.77560  0.38200  0.20830  Biso   1.000  C
  H17      1.0000 0.76030  0.34580  0.22330  Biso   1.000  H
  C4       1.0000 0.75730  0.37270  0.13120  Biso   1.000  C
  H18      1.0000 0.72750  0.33470  0.09180  Biso   1.000  H
  C5       1.0000 0.78620  0.42350  0.11650  Biso   1.000  C
  H19      1.0000 0.77890  0.41530  0.06860  Biso   1.000  H
  C6       1.0000 0.82590  0.48650  0.17220  Biso   1.000  C
  C7       1.0000 0.84890  0.55190  0.15360  Biso   1.000  C
  C8       1.0000 0.73750  0.69850  0.14670  Biso   1.000  C
  C9       1.0000 0.67450  0.67630  0.09590  Biso   1.000  C
  C10      1.0000 0.65580  0.60000  0.10580  Biso   1.000  C
  H20      1.0000 0.68340  0.56030  0.14560  Biso   1.000  H
  C11      1.0000 0.59580  0.58610  0.05520  Biso   1.000  C
  H21      1.0000 0.58280  0.53600  0.06080  Biso   1.000  H
  C12      1.0000 0.55330  0.64610  0.99480  Biso   1.000  C
  H22      1.0000 0.51250  0.63760  0.96070  Biso   1.000  H
  C13      1.0000 0.57660  0.71910  0.98970  Biso   1.000  C
  C14      1.0000 0.53520  0.78980  0.93070  Biso   1.000  C
  Ce3      1.0000 0.39005  0.13692  0.32743  Biso   1.000  Ce
  Ce4      1.0000 0.33061  0.12847  0.98577  Biso   1.000  Ce
  N3       1.0000 0.33860  0.99640  0.24270  Biso   1.000  N
  N4       1.0000 0.13340  0.23140  0.03540  Biso   1.000  N
  O17      1.0000 0.36550  0.02720  0.38150  Biso   1.000  O
  O18      1.0000 0.32610  0.90260  0.37390  Biso   1.000  O
  O19      1.0000 0.37580  0.11540  0.20330  Biso   1.000  O
  O20      1.0000 0.34050  0.04680  0.09040  Biso   1.000  O
  O21      1.0000 0.24760  0.26620  0.12740  Biso   1.000  O
  O22      1.0000 0.27700  0.15080  0.20580  Biso   1.000  O
  O23      1.0000 0.05940  0.35370  0.93110  Biso   1.000  O
  O24      1.0000 0.98100  0.28200  0.88780  Biso   1.000  O
  O25      1.0000 0.33920  0.20460  0.37000  Biso   1.000  O
  H23      1.0000 0.33970  0.25830  0.36610  Biso   1.000  H
  H24      1.0000 0.30340  0.18850  0.34100  Biso   1.000  H
  O26      1.0000 0.46830  0.13200  0.48950  Biso   1.000  O
  H25      1.0000 0.46760  0.17570  0.51140  Biso   1.000  H
  H26      1.0000 0.46590  0.08690  0.50820  Biso   1.000  H
  O27      1.0000 0.47340  0.02250  0.37770  Biso   1.000  O
  H27      1.0000 0.45880  0.98220  0.34290  Biso   1.000  H
  H28      1.0000 0.50170  0.04550  0.38500  Biso   1.000  H
  O28      1.0000 0.36520  0.28190  0.26120  Biso   1.000  O
  H29      1.0000 0.32780  0.29060  0.22510  Biso   1.000  H
  H30      1.0000 0.38210  0.32110  0.29740  Biso   1.000  H
  O29      1.0000 0.37750  0.98330  0.01400  Biso   1.000  O
  H31      1.0000 0.36520  0.95860  0.97050  Biso   1.000  H
  H32      1.0000 0.37460  0.95060  0.04170  Biso   1.000  H
  O30      1.0000 0.24780  0.02900  0.88850  Biso   1.000  O
  H33      1.0000 0.22200  0.03000  0.89210  Biso   1.000  H
  H34      1.0000 0.25980  0.97850  0.89420  Biso   1.000  H
  O31      1.0000 0.24500  0.16060  0.97860  Biso   1.000  O
  H35      1.0000 0.25100  0.20560  0.00470  Biso   1.000  H
  H36      1.0000 0.23800  0.11910  0.99560  Biso   1.000  H
  O32      1.0000 0.36610  0.23360  0.10540  Biso   1.000  O
  H37      1.0000 0.34210  0.27510  0.08650  Biso   1.000  H
  H38      1.0000 0.40090  0.25250  0.13140  Biso   1.000  H
  C15      1.0000 0.33860  0.96000  0.34630  Biso   1.000  C
  C16      1.0000 0.31500  0.94280  0.26180  Biso   1.000  C
  C17      1.0000 0.27560  0.88200  0.20830  Biso   1.000  C
  H39      1.0000 0.26030  0.84580  0.22330  Biso   1.000  H
  C18      1.0000 0.25730  0.87270  0.13120  Biso   1.000  C
  H40      1.0000 0.22750  0.83470  0.09180  Biso   1.000  H
  C19      1.0000 0.28620  0.92350  0.11650  Biso   1.000  C
  H41      1.0000 0.27890  0.91530  0.06860  Biso   1.000  H
  C20      1.0000 0.32590  0.98650  0.17220  Biso   1.000  C
  C21      1.0000 0.34890  0.05190  0.15360  Biso   1.000  C
  C22      1.0000 0.23750  0.19850  0.14670  Biso   1.000  C
  C23      1.0000 0.17450  0.17630  0.09590  Biso   1.000  C
  C24      1.0000 0.15580  0.10000  0.10580  Biso   1.000  C
  H42      1.0000 0.18340  0.06030  0.14560  Biso   1.000  H
  C25      1.0000 0.09580  0.08610  0.05520  Biso   1.000  C
  H43      1.0000 0.08280  0.03600  0.06080  Biso   1.000  H
  C26      1.0000 0.05330  0.14610  0.99480  Biso   1.000  C
  H44      1.0000 0.01250  0.13760  0.96070  Biso   1.000  H
  C27      1.0000 0.07660  0.21910  0.98970  Biso   1.000  C
  C28      1.0000 0.03520  0.28980  0.93070  Biso   1.000  C
  Ce5      1.0000 0.10995  0.63692  0.17257  Biso   1.000  Ce
  Ce6      1.0000 0.16939  0.62847  0.51423  Biso   1.000  Ce
  N5       1.0000 0.16140  0.49640  0.25730  Biso   1.000  N
  N6       1.0000 0.36660  0.73140  0.46460  Biso   1.000  N
  O33      1.0000 0.13450  0.52720  0.11850  Biso   1.000  O
  O34      1.0000 0.17390  0.40260  0.12610  Biso   1.000  O
  O35      1.0000 0.12420  0.61540  0.29670  Biso   1.000  O
  O36      1.0000 0.15950  0.54680  0.40960  Biso   1.000  O
  O37      1.0000 0.25240  0.76620  0.37260  Biso   1.000  O
  O38      1.0000 0.22300  0.65080  0.29420  Biso   1.000  O
  O39      1.0000 0.44060  0.85370  0.56890  Biso   1.000  O
  O40      1.0000 0.51900  0.78200  0.61220  Biso   1.000  O
  O41      1.0000 0.16080  0.70460  0.13000  Biso   1.000  O
  H45      1.0000 0.16030  0.75830  0.13390  Biso   1.000  H
  H46      1.0000 0.19660  0.68850  0.15900  Biso   1.000  H
  O42      1.0000 0.03170  0.63200  0.01050  Biso   1.000  O
  H47      1.0000 0.03240  0.67570  0.98860  Biso   1.000  H
  H48      1.0000 0.03410  0.58690  0.99180  Biso   1.000  H
  O43      1.0000 0.02660  0.52250  0.12230  Biso   1.000  O
  H49      1.0000 0.04120  0.48220  0.15710  Biso   1.000  H
  H50      1.0000 0.99830  0.54550  0.11500  Biso   1.000  H
  O44      1.0000 0.13480  0.78190  0.23880  Biso   1.000  O
  H51      1.0000 0.17220  0.79060  0.27490  Biso   1.000  H
  H52      1.0000 0.11790  0.82110  0.20260  Biso   1.000  H
  O45      1.0000 0.12250  0.48330  0.48600  Biso   1.000  O
  H53      1.0000 0.13480  0.45860  0.52950  Biso   1.000  H
  H54      1.0000 0.12540  0.45060  0.45830  Biso   1.000  H
  O46      1.0000 0.25220  0.52900  0.61150  Biso   1.000  O
  H55      1.0000 0.27800  0.53000  0.60790  Biso   1.000  H
  H56      1.0000 0.24020  0.47850  0.60580  Biso   1.000  H
  O47      1.0000 0.25500  0.66060  0.52140  Biso   1.000  O
  H57      1.0000 0.24900  0.70560  0.49530  Biso   1.000  H
  H58      1.0000 0.26200  0.61910  0.50440  Biso   1.000  H
  O48      1.0000 0.13390  0.73360  0.39460  Biso   1.000  O
  H59      1.0000 0.15790  0.77510  0.41350  Biso   1.000  H
  H60      1.0000 0.09910  0.75250  0.36860  Biso   1.000  H
  C29      1.0000 0.16140  0.46000  0.15370  Biso   1.000  C
  C30      1.0000 0.18500  0.44280  0.23820  Biso   1.000  C
  C31      1.0000 0.22440  0.38200  0.29170  Biso   1.000  C
  H61      1.0000 0.23970  0.34580  0.27670  Biso   1.000  H
  C32      1.0000 0.24270  0.37270  0.36880  Biso   1.000  C
  H62      1.0000 0.27250  0.33470  0.40820  Biso   1.000  H
  C33      1.0000 0.21380  0.42350  0.38350  Biso   1.000  C
  H63      1.0000 0.22110  0.41530  0.43140  Biso   1.000  H
  C34      1.0000 0.17410  0.48650  0.32780  Biso   1.000  C
  C35      1.0000 0.15110  0.55190  0.34640  Biso   1.000  C
  C36      1.0000 0.26250  0.69850  0.35330  Biso   1.000  C
  C37      1.0000 0.32550  0.67630  0.40410  Biso   1.000  C
  C38      1.0000 0.34420  0.60000  0.39420  Biso   1.000  C
  H64      1.0000 0.31660  0.56030  0.35440  Biso   1.000  H
  C39      1.0000 0.40420  0.58610  0.44480  Biso   1.000  C
  H65      1.0000 0.41720  0.53600  0.43920  Biso   1.000  H
  C40      1.0000 0.44670  0.64610  0.50520  Biso   1.000  C
  H66      1.0000 0.48750  0.63760  0.53930  Biso   1.000  H
  C41      1.0000 0.42340  0.71910  0.51030  Biso   1.000  C
  C42      1.0000 0.46480  0.78980  0.56930  Biso   1.000  C
  Ce7      1.0000 0.60995  0.13692  0.17257  Biso   1.000  Ce
  Ce8      1.0000 0.66939  0.12847  0.51423  Biso   1.000  Ce
  N7       1.0000 0.66140  0.99640  0.25730  Biso   1.000  N
  N8       1.0000 0.86660  0.23140  0.46460  Biso   1.000  N
  O49      1.0000 0.63450  0.02720  0.11850  Biso   1.000  O
  O50      1.0000 0.67390  0.90260  0.12610  Biso   1.000  O
  O51      1.0000 0.62420  0.11540  0.29670  Biso   1.000  O
  O52      1.0000 0.65950  0.04680  0.40960  Biso   1.000  O
  O53      1.0000 0.75240  0.26620  0.37260  Biso   1.000  O
  O54      1.0000 0.72300  0.15080  0.29420  Biso   1.000  O
  O55      1.0000 0.94060  0.35370  0.56890  Biso   1.000  O
  O56      1.0000 0.01900  0.28200  0.61220  Biso   1.000  O
  O57      1.0000 0.66080  0.20460  0.13000  Biso   1.000  O
  H67      1.0000 0.66030  0.25830  0.13390  Biso   1.000  H
  H68      1.0000 0.69660  0.18850  0.15900  Biso   1.000  H
  O58      1.0000 0.53170  0.13200  0.01050  Biso   1.000  O
  H69      1.0000 0.53240  0.17570  0.98860  Biso   1.000  H
  H70      1.0000 0.53410  0.08690  0.99180  Biso   1.000  H
  O59      1.0000 0.52660  0.02250  0.12230  Biso   1.000  O
  H71      1.0000 0.54120  0.98220  0.15710  Biso   1.000  H
  H72      1.0000 0.49830  0.04550  0.11500  Biso   1.000  H
  O60      1.0000 0.63480  0.28190  0.23880  Biso   1.000  O
  H73      1.0000 0.67220  0.29060  0.27490  Biso   1.000  H
  H74      1.0000 0.61790  0.32110  0.20260  Biso   1.000  H
  O61      1.0000 0.62250  0.98330  0.48600  Biso   1.000  O
  H75      1.0000 0.63480  0.95860  0.52950  Biso   1.000  H
  H76      1.0000 0.62540  0.95060  0.45830  Biso   1.000  H
  O62      1.0000 0.75220  0.02900  0.61150  Biso   1.000  O
  H77      1.0000 0.77800  0.03000  0.60790  Biso   1.000  H
  H78      1.0000 0.74020  0.97850  0.60580  Biso   1.000  H
  O63      1.0000 0.75500  0.16060  0.52140  Biso   1.000  O
  H79      1.0000 0.74900  0.20560  0.49530  Biso   1.000  H
  H80      1.0000 0.76200  0.11910  0.50440  Biso   1.000  H
  O64      1.0000 0.63390  0.23360  0.39460  Biso   1.000  O
  H81      1.0000 0.65790  0.27510  0.41350  Biso   1.000  H
  H82      1.0000 0.59910  0.25250  0.36860  Biso   1.000  H
  C43      1.0000 0.66140  0.96000  0.15370  Biso   1.000  C
  C44      1.0000 0.68500  0.94280  0.23820  Biso   1.000  C
  C45      1.0000 0.72440  0.88200  0.29170  Biso   1.000  C
  H83      1.0000 0.73970  0.84580  0.27670  Biso   1.000  H
  C46      1.0000 0.74270  0.87270  0.36880  Biso   1.000  C
  H84      1.0000 0.77250  0.83470  0.40820  Biso   1.000  H
  C47      1.0000 0.71380  0.92350  0.38350  Biso   1.000  C
  H85      1.0000 0.72110  0.91530  0.43140  Biso   1.000  H
  C48      1.0000 0.67410  0.98650  0.32780  Biso   1.000  C
  C49      1.0000 0.65110  0.05190  0.34640  Biso   1.000  C
  C50      1.0000 0.76250  0.19850  0.35330  Biso   1.000  C
  C51      1.0000 0.82550  0.17630  0.40410  Biso   1.000  C
  C52      1.0000 0.84420  0.10000  0.39420  Biso   1.000  C
  H86      1.0000 0.81660  0.06030  0.35440  Biso   1.000  H
  C53      1.0000 0.90420  0.08610  0.44480  Biso   1.000  C
  H87      1.0000 0.91720  0.03600  0.43920  Biso   1.000  H
  C54      1.0000 0.94670  0.14610  0.50520  Biso   1.000  C
  H88      1.0000 0.98750  0.13760  0.53930  Biso   1.000  H
  C55      1.0000 0.92340  0.21910  0.51030  Biso   1.000  C
  C56      1.0000 0.96480  0.28980  0.56930  Biso   1.000  C
  Ce9      1.0000 0.10995  0.36308  0.67257  Biso   1.000  Ce
  Ce10     1.0000 0.16939  0.37153  0.01423  Biso   1.000  Ce
  N9       1.0000 0.16140  0.50360  0.75730  Biso   1.000  N
  N10      1.0000 0.36660  0.26860  0.96460  Biso   1.000  N
  O65      1.0000 0.13450  0.47280  0.61850  Biso   1.000  O
  O66      1.0000 0.17390  0.59740  0.62610  Biso   1.000  O
  O67      1.0000 0.12420  0.38460  0.79670  Biso   1.000  O
  O68      1.0000 0.15950  0.45320  0.90960  Biso   1.000  O
  O69      1.0000 0.25240  0.23380  0.87260  Biso   1.000  O
  O70      1.0000 0.22300  0.34920  0.79420  Biso   1.000  O
  O71      1.0000 0.44060  0.14630  0.06890  Biso   1.000  O
  O72      1.0000 0.51900  0.21800  0.11220  Biso   1.000  O
  O73      1.0000 0.16080  0.29540  0.63000  Biso   1.000  O
  H89      1.0000 0.16030  0.24170  0.63390  Biso   1.000  H
  H90      1.0000 0.19660  0.31150  0.65900  Biso   1.000  H
  O74      1.0000 0.03170  0.36800  0.51050  Biso   1.000  O
  H91      1.0000 0.03240  0.32430  0.48860  Biso   1.000  H
  H92      1.0000 0.03410  0.41310  0.49180  Biso   1.000  H
  O75      1.0000 0.02660  0.47750  0.62230  Biso   1.000  O
  H93      1.0000 0.04120  0.51780  0.65710  Biso   1.000  H
  H94      1.0000 0.99830  0.45450  0.61500  Biso   1.000  H
  O76      1.0000 0.13480  0.21810  0.73880  Biso   1.000  O
  H95      1.0000 0.17220  0.20940  0.77490  Biso   1.000  H
  H96      1.0000 0.11790  0.17890  0.70260  Biso   1.000  H
  O77      1.0000 0.12250  0.51670  0.98600  Biso   1.000  O
  H97      1.0000 0.13480  0.54140  0.02950  Biso   1.000  H
  H98      1.0000 0.12540  0.54940  0.95830  Biso   1.000  H
  O78      1.0000 0.25220  0.47100  0.11150  Biso   1.000  O
  H99      1.0000 0.27800  0.47000  0.10790  Biso   1.000  H
  H100     1.0000 0.24020  0.52150  0.10580  Biso   1.000  H
  O79      1.0000 0.25500  0.33940  0.02140  Biso   1.000  O
  H101     1.0000 0.24900  0.29440  0.99530  Biso   1.000  H
  H102     1.0000 0.26200  0.38090  0.00440  Biso   1.000  H
  O80      1.0000 0.13390  0.26640  0.89460  Biso   1.000  O
  H103     1.0000 0.15790  0.22490  0.91350  Biso   1.000  H
  H104     1.0000 0.09910  0.24750  0.86860  Biso   1.000  H
  C57      1.0000 0.16140  0.54000  0.65370  Biso   1.000  C
  C58      1.0000 0.18500  0.55720  0.73820  Biso   1.000  C
  C59      1.0000 0.22440  0.61800  0.79170  Biso   1.000  C
  H105     1.0000 0.23970  0.65420  0.77670  Biso   1.000  H
  C60      1.0000 0.24270  0.62730  0.86880  Biso   1.000  C
  H106     1.0000 0.27250  0.66530  0.90820  Biso   1.000  H
  C61      1.0000 0.21380  0.57650  0.88350  Biso   1.000  C
  H107     1.0000 0.22110  0.58470  0.93140  Biso   1.000  H
  C62      1.0000 0.17410  0.51350  0.82780  Biso   1.000  C
  C63      1.0000 0.15110  0.44810  0.84640  Biso   1.000  C
  C64      1.0000 0.26250  0.30150  0.85330  Biso   1.000  C
  C65      1.0000 0.32550  0.32370  0.90410  Biso   1.000  C
  C66      1.0000 0.34420  0.40000  0.89420  Biso   1.000  C
  H108     1.0000 0.31660  0.43970  0.85440  Biso   1.000  H
  C67      1.0000 0.40420  0.41390  0.94480  Biso   1.000  C
  H109     1.0000 0.41720  0.46400  0.93920  Biso   1.000  H
  C68      1.0000 0.44670  0.35390  0.00520  Biso   1.000  C
  H110     1.0000 0.48750  0.36240  0.03930  Biso   1.000  H
  C69      1.0000 0.42340  0.28090  0.01030  Biso   1.000  C
  C70      1.0000 0.46480  0.21020  0.06930  Biso   1.000  C
  Ce11     1.0000 0.60995  0.86308  0.67257  Biso   1.000  Ce
  Ce12     1.0000 0.66939  0.87153  0.01423  Biso   1.000  Ce
  N11      1.0000 0.66140  0.00360  0.75730  Biso   1.000  N
  N12      1.0000 0.86660  0.76860  0.96460  Biso   1.000  N
  O81      1.0000 0.63450  0.97280  0.61850  Biso   1.000  O
  O82      1.0000 0.67390  0.09740  0.62610  Biso   1.000  O
  O83      1.0000 0.62420  0.88460  0.79670  Biso   1.000  O
  O84      1.0000 0.65950  0.95320  0.90960  Biso   1.000  O
  O85      1.0000 0.75240  0.73380  0.87260  Biso   1.000  O
  O86      1.0000 0.72300  0.84920  0.79420  Biso   1.000  O
  O87      1.0000 0.94060  0.64630  0.06890  Biso   1.000  O
  O88      1.0000 0.01900  0.71800  0.11220  Biso   1.000  O
  O89      1.0000 0.66080  0.79540  0.63000  Biso   1.000  O
  H111     1.0000 0.66030  0.74170  0.63390  Biso   1.000  H
  H112     1.0000 0.69660  0.81150  0.65900  Biso   1.000  H
  O90      1.0000 0.53170  0.86800  0.51050  Biso   1.000  O
  H113     1.0000 0.53240  0.82430  0.48860  Biso   1.000  H
  H114     1.0000 0.53410  0.91310  0.49180  Biso   1.000  H
  O91      1.0000 0.52660  0.97750  0.62230  Biso   1.000  O
  H115     1.0000 0.54120  0.01780  0.65710  Biso   1.000  H
  H116     1.0000 0.49830  0.95450  0.61500  Biso   1.000  H
  O92      1.0000 0.63480  0.71810  0.73880  Biso   1.000  O
  H117     1.0000 0.67220  0.70940  0.77490  Biso   1.000  H
  H118     1.0000 0.61790  0.67890  0.70260  Biso   1.000  H
  O93      1.0000 0.62250  0.01670  0.98600  Biso   1.000  O
  H119     1.0000 0.63480  0.04140  0.02950  Biso   1.000  H
  H120     1.0000 0.62540  0.04940  0.95830  Biso   1.000  H
  O94      1.0000 0.75220  0.97100  0.11150  Biso   1.000  O
  H121     1.0000 0.77800  0.97000  0.10790  Biso   1.000  H
  H122     1.0000 0.74020  0.02150  0.10580  Biso   1.000  H
  O95      1.0000 0.75500  0.83940  0.02140  Biso   1.000  O
  H123     1.0000 0.74900  0.79440  0.99530  Biso   1.000  H
  H124     1.0000 0.76200  0.88090  0.00440  Biso   1.000  H
  O96      1.0000 0.63390  0.76640  0.89460  Biso   1.000  O
  H125     1.0000 0.65790  0.72490  0.91350  Biso   1.000  H
  H126     1.0000 0.59910  0.74750  0.86860  Biso   1.000  H
  C71      1.0000 0.66140  0.04000  0.65370  Biso   1.000  C
  C72      1.0000 0.68500  0.05720  0.73820  Biso   1.000  C
  C73      1.0000 0.72440  0.11800  0.79170  Biso   1.000  C
  H127     1.0000 0.73970  0.15420  0.77670  Biso   1.000  H
  C74      1.0000 0.74270  0.12730  0.86880  Biso   1.000  C
  H128     1.0000 0.77250  0.16530  0.90820  Biso   1.000  H
  C75      1.0000 0.71380  0.07650  0.88350  Biso   1.000  C
  H129     1.0000 0.72110  0.08470  0.93140  Biso   1.000  H
  C76      1.0000 0.67410  0.01350  0.82780  Biso   1.000  C
  C77      1.0000 0.65110  0.94810  0.84640  Biso   1.000  C
  C78      1.0000 0.76250  0.80150  0.85330  Biso   1.000  C
  C79      1.0000 0.82550  0.82370  0.90410  Biso   1.000  C
  C80      1.0000 0.84420  0.90000  0.89420  Biso   1.000  C
  H130     1.0000 0.81660  0.93970  0.85440  Biso   1.000  H
  C81      1.0000 0.90420  0.91390  0.94480  Biso   1.000  C
  H131     1.0000 0.91720  0.96400  0.93920  Biso   1.000  H
  C82      1.0000 0.94670  0.85390  0.00520  Biso   1.000  C
  H132     1.0000 0.98750  0.86240  0.03930  Biso   1.000  H
  C83      1.0000 0.92340  0.78090  0.01030  Biso   1.000  C
  C84      1.0000 0.96480  0.71020  0.06930  Biso   1.000  C
  Ce13     1.0000 0.89005  0.36308  0.82743  Biso   1.000  Ce
  Ce14     1.0000 0.83061  0.37153  0.48577  Biso   1.000  Ce
  N13      1.0000 0.83860  0.50360  0.74270  Biso   1.000  N
  N14      1.0000 0.63340  0.26860  0.53540  Biso   1.000  N
  O97      1.0000 0.86550  0.47280  0.88150  Biso   1.000  O
  O98      1.0000 0.82610  0.59740  0.87390  Biso   1.000  O
  O99      1.0000 0.87580  0.38460  0.70330  Biso   1.000  O
  O100     1.0000 0.84050  0.45320  0.59040  Biso   1.000  O
  O101     1.0000 0.74760  0.23380  0.62740  Biso   1.000  O
  O102     1.0000 0.77700  0.34920  0.70580  Biso   1.000  O
  O103     1.0000 0.55940  0.14630  0.43110  Biso   1.000  O
  O104     1.0000 0.48100  0.21800  0.38780  Biso   1.000  O
  O105     1.0000 0.83920  0.29540  0.87000  Biso   1.000  O
  H133     1.0000 0.83970  0.24170  0.86610  Biso   1.000  H
  H134     1.0000 0.80340  0.31150  0.84100  Biso   1.000  H
  O106     1.0000 0.96830  0.36800  0.98950  Biso   1.000  O
  H135     1.0000 0.96760  0.32430  0.01140  Biso   1.000  H
  H136     1.0000 0.96590  0.41310  0.00820  Biso   1.000  H
  O107     1.0000 0.97340  0.47750  0.87770  Biso   1.000  O
  H137     1.0000 0.95880  0.51780  0.84290  Biso   1.000  H
  H138     1.0000 0.00170  0.45450  0.88500  Biso   1.000  H
  O108     1.0000 0.86520  0.21810  0.76120  Biso   1.000  O
  H139     1.0000 0.82780  0.20940  0.72510  Biso   1.000  H
  H140     1.0000 0.88210  0.17890  0.79740  Biso   1.000  H
  O109     1.0000 0.87750  0.51670  0.51400  Biso   1.000  O
  H141     1.0000 0.86520  0.54140  0.47050  Biso   1.000  H
  H142     1.0000 0.87460  0.54940  0.54170  Biso   1.000  H
  O110     1.0000 0.74780  0.47100  0.38850  Biso   1.000  O
  H143     1.0000 0.72200  0.47000  0.39210  Biso   1.000  H
  H144     1.0000 0.75980  0.52150  0.39420  Biso   1.000  H
  O111     1.0000 0.74500  0.33940  0.47860  Biso   1.000  O
  H145     1.0000 0.75100  0.29440  0.50470  Biso   1.000  H
  H146     1.0000 0.73800  0.38090  0.49560  Biso   1.000  H
  O112     1.0000 0.86610  0.26640  0.60540  Biso   1.000  O
  H147     1.0000 0.84210  0.22490  0.58650  Biso   1.000  H
  H148     1.0000 0.90090  0.24750  0.63140  Biso   1.000  H
  C85      1.0000 0.83860  0.54000  0.84630  Biso   1.000  C
  C86      1.0000 0.81500  0.55720  0.76180  Biso   1.000  C
  C87      1.0000 0.77560  0.61800  0.70830  Biso   1.000  C
  H149     1.0000 0.76030  0.65420  0.72330  Biso   1.000  H
  C88      1.0000 0.75730  0.62730  0.63120  Biso   1.000  C
  H150     1.0000 0.72750  0.66530  0.59180  Biso   1.000  H
  C89      1.0000 0.78620  0.57650  0.61650  Biso   1.000  C
  H151     1.0000 0.77890  0.58470  0.56860  Biso   1.000  H
  C90      1.0000 0.82590  0.51350  0.67220  Biso   1.000  C
  C91      1.0000 0.84890  0.44810  0.65360  Biso   1.000  C
  C92      1.0000 0.73750  0.30150  0.64670  Biso   1.000  C
  C93      1.0000 0.67450  0.32370  0.59590  Biso   1.000  C
  C94      1.0000 0.65580  0.40000  0.60580  Biso   1.000  C
  H152     1.0000 0.68340  0.43970  0.64560  Biso   1.000  H
  C95      1.0000 0.59580  0.41390  0.55520  Biso   1.000  C
  H153     1.0000 0.58280  0.46400  0.56080  Biso   1.000  H
  C96      1.0000 0.55330  0.35390  0.49480  Biso   1.000  C
  H154     1.0000 0.51250  0.36240  0.46070  Biso   1.000  H
  C97      1.0000 0.57660  0.28090  0.48970  Biso   1.000  C
  C98      1.0000 0.53520  0.21020  0.43070  Biso   1.000  C
  Ce15     1.0000 0.39005  0.86308  0.82743  Biso   1.000  Ce
  Ce16     1.0000 0.33061  0.87153  0.48577  Biso   1.000  Ce
  N15      1.0000 0.33860  0.00360  0.74270  Biso   1.000  N
  N16      1.0000 0.13340  0.76860  0.53540  Biso   1.000  N
  O113     1.0000 0.36550  0.97280  0.88150  Biso   1.000  O
  O114     1.0000 0.32610  0.09740  0.87390  Biso   1.000  O
  O115     1.0000 0.37580  0.88460  0.70330  Biso   1.000  O
  O116     1.0000 0.34050  0.95320  0.59040  Biso   1.000  O
  O117     1.0000 0.24760  0.73380  0.62740  Biso   1.000  O
  O118     1.0000 0.27700  0.84920  0.70580  Biso   1.000  O
  O119     1.0000 0.05940  0.64630  0.43110  Biso   1.000  O
  O120     1.0000 0.98100  0.71800  0.38780  Biso   1.000  O
  O121     1.0000 0.33920  0.79540  0.87000  Biso   1.000  O
  H155     1.0000 0.33970  0.74170  0.86610  Biso   1.000  H
  H156     1.0000 0.30340  0.81150  0.84100  Biso   1.000  H
  O122     1.0000 0.46830  0.86800  0.98950  Biso   1.000  O
  H157     1.0000 0.46760  0.82430  0.01140  Biso   1.000  H
  H158     1.0000 0.46590  0.91310  0.00820  Biso   1.000  H
  O123     1.0000 0.47340  0.97750  0.87770  Biso   1.000  O
  H159     1.0000 0.45880  0.01780  0.84290  Biso   1.000  H
  H160     1.0000 0.50170  0.95450  0.88500  Biso   1.000  H
  O124     1.0000 0.36520  0.71810  0.76120  Biso   1.000  O
  H161     1.0000 0.32780  0.70940  0.72510  Biso   1.000  H
  H162     1.0000 0.38210  0.67890  0.79740  Biso   1.000  H
  O125     1.0000 0.37750  0.01670  0.51400  Biso   1.000  O
  H163     1.0000 0.36520  0.04140  0.47050  Biso   1.000  H
  H164     1.0000 0.37460  0.04940  0.54170  Biso   1.000  H
  O126     1.0000 0.24780  0.97100  0.38850  Biso   1.000  O
  H165     1.0000 0.22200  0.97000  0.39210  Biso   1.000  H
  H166     1.0000 0.25980  0.02150  0.39420  Biso   1.000  H
  O127     1.0000 0.24500  0.83940  0.47860  Biso   1.000  O
  H167     1.0000 0.25100  0.79440  0.50470  Biso   1.000  H
  H168     1.0000 0.23800  0.88090  0.49560  Biso   1.000  H
  O128     1.0000 0.36610  0.76640  0.60540  Biso   1.000  O
  H169     1.0000 0.34210  0.72490  0.58650  Biso   1.000  H
  H170     1.0000 0.40090  0.74750  0.63140  Biso   1.000  H
  C99      1.0000 0.33860  0.04000  0.84630  Biso   1.000  C
  C100     1.0000 0.31500  0.05720  0.76180  Biso   1.000  C
  C101     1.0000 0.27560  0.11800  0.70830  Biso   1.000  C
  H171     1.0000 0.26030  0.15420  0.72330  Biso   1.000  H
  C102     1.0000 0.25730  0.12730  0.63120  Biso   1.000  C
  H172     1.0000 0.22750  0.16530  0.59180  Biso   1.000  H
  C103     1.0000 0.28620  0.07650  0.61650  Biso   1.000  C
  H173     1.0000 0.27890  0.08470  0.56860  Biso   1.000  H
  C104     1.0000 0.32590  0.01350  0.67220  Biso   1.000  C
  C105     1.0000 0.34890  0.94810  0.65360  Biso   1.000  C
  C106     1.0000 0.23750  0.80150  0.64670  Biso   1.000  C
  C107     1.0000 0.17450  0.82370  0.59590  Biso   1.000  C
  C108     1.0000 0.15580  0.90000  0.60580  Biso   1.000  C
  H174     1.0000 0.18340  0.93970  0.64560  Biso   1.000  H
  C109     1.0000 0.09580  0.91390  0.55520  Biso   1.000  C
  H175     1.0000 0.08280  0.96400  0.56080  Biso   1.000  H
  C110     1.0000 0.05330  0.85390  0.49480  Biso   1.000  C
  H176     1.0000 0.01250  0.86240  0.46070  Biso   1.000  H
  C111     1.0000 0.07660  0.78090  0.48970  Biso   1.000  C
  C112     1.0000 0.03520  0.71020  0.43070  Biso   1.000  C
