data_image0
_cell_length_a       30.514
_cell_length_b       15.6715
_cell_length_c       22.003
_cell_angle_alpha    90
_cell_angle_beta     133.025
_cell_angle_gamma    90

_symmetry_space_group_name_H-M    "P 1"
_symmetry_int_tables_number       1

loop_
  _symmetry_equiv_pos_as_xyz
  'x, y, z'

loop_
  _atom_site_label
  _atom_site_occupancy
  _atom_site_fract_x
  _atom_site_fract_y
  _atom_site_fract_z
  _atom_site_thermal_displace_type
  _atom_site_B_iso_or_equiv
  _atom_site_type_symbol
  Nd1      1.0000 0.89001  0.63619  0.32591  Biso   1.000  Nd
  Nd2      1.0000 0.83078  0.62795  0.98548  Biso   1.000  Nd
  N1       1.0000 0.83810  0.49740  0.24180  Biso   1.000  N
  N2       1.0000 0.63400  0.73420  0.03580  Biso   1.000  N
  O1       1.0000 0.86690  0.53030  0.38280  Biso   1.000  O
  O2       1.0000 0.82810  0.40410  0.37550  Biso   1.000  O
  O3       1.0000 0.87620  0.61540  0.20340  Biso   1.000  O
  O4       1.0000 0.84040  0.54750  0.08880  Biso   1.000  O
  O5       1.0000 0.74900  0.76870  0.12910  Biso   1.000  O
  O6       1.0000 0.77720  0.65310  0.20410  Biso   1.000  O
  O7       1.0000 0.56000  0.85580  0.93030  Biso   1.000  O
  O8       1.0000 0.48100  0.78480  0.88800  Biso   1.000  O
  O9       1.0000 0.84120  0.70420  0.36850  Biso   1.000  O
  H1       1.0000 0.85690  0.75060  0.37130  Biso   1.000  H
  H2       1.0000 0.80340  0.71140  0.33340  Biso   1.000  H
  O10      1.0000 0.96780  0.63260  0.48710  Biso   1.000  O
  H3       1.0000 0.96430  0.67470  0.50800  Biso   1.000  H
  H4       1.0000 0.96730  0.58590  0.50630  Biso   1.000  H
  O11      1.0000 0.97240  0.52240  0.37670  Biso   1.000  O
  H5       1.0000 0.97390  0.48650  0.34920  Biso   1.000  H
  H6       1.0000 0.99420  0.56470  0.38720  Biso   1.000  H
  O12      1.0000 0.86750  0.78100  0.26360  Biso   1.000  O
  H7       1.0000 0.83080  0.79500  0.23250  Biso   1.000  H
  H8       1.0000 0.88620  0.80230  0.31130  Biso   1.000  H
  O13      1.0000 0.87550  0.48150  0.01170  Biso   1.000  O
  H9       1.0000 0.90020  0.46710  0.06260  Biso   1.000  H
  H10      1.0000 0.89060  0.47460  0.99090  Biso   1.000  H
  O14      1.0000 0.74910  0.52870  0.89020  Biso   1.000  O
  H11      1.0000 0.71160  0.53710  0.85160  Biso   1.000  H
  H12      1.0000 0.75440  0.47720  0.90600  Biso   1.000  H
  O15      1.0000 0.74650  0.66050  0.98020  Biso   1.000  O
  H13      1.0000 0.75280  0.70600  0.00620  Biso   1.000  H
  H14      1.0000 0.73950  0.61920  0.99760  Biso   1.000  H
  O16      1.0000 0.86590  0.73350  0.10340  Biso   1.000  O
  H15      1.0000 0.84560  0.77820  0.07660  Biso   1.000  H
  H16      1.0000 0.90050  0.74050  0.12100  Biso   1.000  H
  C1       1.0000 0.83800  0.46050  0.34710  Biso   1.000  C
  C2       1.0000 0.81470  0.44440  0.26170  Biso   1.000  C
  C3       1.0000 0.77470  0.38180  0.20820  Biso   1.000  C
  H17      1.0000 0.75940  0.34550  0.22340  Biso   1.000  H
  C4       1.0000 0.75720  0.37260  0.13240  Biso   1.000  C
  H18      1.0000 0.72740  0.33430  0.09290  Biso   1.000  H
  C5       1.0000 0.78720  0.42480  0.11710  Biso   1.000  C
  H19      1.0000 0.78060  0.41600  0.06960  Biso   1.000  H
  C6       1.0000 0.82590  0.48830  0.17260  Biso   1.000  C
  C7       1.0000 0.84940  0.55360  0.15340  Biso   1.000  C
  C8       1.0000 0.73770  0.69910  0.14680  Biso   1.000  C
  C9       1.0000 0.67380  0.67810  0.09320  Biso   1.000  C
  C10      1.0000 0.65560  0.60120  0.10560  Biso   1.000  C
  H20      1.0000 0.68350  0.56250  0.14700  Biso   1.000  H
  C11      1.0000 0.59440  0.58700  0.05320  Biso   1.000  C
  H21      1.0000 0.58090  0.53620  0.05750  Biso   1.000  H
  C12      1.0000 0.55280  0.64750  0.99440  Biso   1.000  C
  H22      1.0000 0.51180  0.63970  0.96080  Biso   1.000  H
  C13      1.0000 0.57650  0.72110  0.98860  Biso   1.000  C
  C14      1.0000 0.53570  0.79250  0.92910  Biso   1.000  C
  Nd3      1.0000 0.39001  0.13619  0.32591  Biso   1.000  Nd
  Nd4      1.0000 0.33078  0.12795  0.98548  Biso   1.000  Nd
  N3       1.0000 0.33810  0.99740  0.24180  Biso   1.000  N
  N4       1.0000 0.13400  0.23420  0.03580  Biso   1.000  N
  O17      1.0000 0.36690  0.03030  0.38280  Biso   1.000  O
  O18      1.0000 0.32810  0.90410  0.37550  Biso   1.000  O
  O19      1.0000 0.37620  0.11540  0.20340  Biso   1.000  O
  O20      1.0000 0.34040  0.04750  0.08880  Biso   1.000  O
  O21      1.0000 0.24900  0.26870  0.12910  Biso   1.000  O
  O22      1.0000 0.27720  0.15310  0.20410  Biso   1.000  O
  O23      1.0000 0.06000  0.35580  0.93030  Biso   1.000  O
  O24      1.0000 0.98100  0.28480  0.88800  Biso   1.000  O
  O25      1.0000 0.34120  0.20420  0.36850  Biso   1.000  O
  H23      1.0000 0.35690  0.25060  0.37130  Biso   1.000  H
  H24      1.0000 0.30340  0.21140  0.33340  Biso   1.000  H
  O26      1.0000 0.46780  0.13260  0.48710  Biso   1.000  O
  H25      1.0000 0.46430  0.17470  0.50800  Biso   1.000  H
  H26      1.0000 0.46730  0.08590  0.50630  Biso   1.000  H
  O27      1.0000 0.47240  0.02240  0.37670  Biso   1.000  O
  H27      1.0000 0.47390  0.98650  0.34920  Biso   1.000  H
  H28      1.0000 0.49420  0.06470  0.38720  Biso   1.000  H
  O28      1.0000 0.36750  0.28100  0.26360  Biso   1.000  O
  H29      1.0000 0.33080  0.29500  0.23250  Biso   1.000  H
  H30      1.0000 0.38620  0.30230  0.31130  Biso   1.000  H
  O29      1.0000 0.37550  0.98150  0.01170  Biso   1.000  O
  H31      1.0000 0.40020  0.96710  0.06260  Biso   1.000  H
  H32      1.0000 0.39060  0.97460  0.99090  Biso   1.000  H
  O30      1.0000 0.24910  0.02870  0.89020  Biso   1.000  O
  H33      1.0000 0.21160  0.03710  0.85160  Biso   1.000  H
  H34      1.0000 0.25440  0.97720  0.90600  Biso   1.000  H
  O31      1.0000 0.24650  0.16050  0.98020  Biso   1.000  O
  H35      1.0000 0.25280  0.20600  0.00620  Biso   1.000  H
  H36      1.0000 0.23950  0.11920  0.99760  Biso   1.000  H
  O32      1.0000 0.36590  0.23350  0.10340  Biso   1.000  O
  H37      1.0000 0.34560  0.27820  0.07660  Biso   1.000  H
  H38      1.0000 0.40050  0.24050  0.12100  Biso   1.000  H
  C15      1.0000 0.33800  0.96050  0.34710  Biso   1.000  C
  C16      1.0000 0.31470  0.94440  0.26170  Biso   1.000  C
  C17      1.0000 0.27470  0.88180  0.20820  Biso   1.000  C
  H39      1.0000 0.25940  0.84550  0.22340  Biso   1.000  H
  C18      1.0000 0.25720  0.87260  0.13240  Biso   1.000  C
  H40      1.0000 0.22740  0.83430  0.09290  Biso   1.000  H
  C19      1.0000 0.28720  0.92480  0.11710  Biso   1.000  C
  H41      1.0000 0.28060  0.91600  0.06960  Biso   1.000  H
  C20      1.0000 0.32590  0.98830  0.17260  Biso   1.000  C
  C21      1.0000 0.34940  0.05360  0.15340  Biso   1.000  C
  C22      1.0000 0.23770  0.19910  0.14680  Biso   1.000  C
  C23      1.0000 0.17380  0.17810  0.09320  Biso   1.000  C
  C24      1.0000 0.15560  0.10120  0.10560  Biso   1.000  C
  H42      1.0000 0.18350  0.06250  0.14700  Biso   1.000  H
  C25      1.0000 0.09440  0.08700  0.05320  Biso   1.000  C
  H43      1.0000 0.08090  0.03620  0.05750  Biso   1.000  H
  C26      1.0000 0.05280  0.14750  0.99440  Biso   1.000  C
  H44      1.0000 0.01180  0.13970  0.96080  Biso   1.000  H
  C27      1.0000 0.07650  0.22110  0.98860  Biso   1.000  C
  C28      1.0000 0.03570  0.29250  0.92910  Biso   1.000  C
  Nd5      1.0000 0.10999  0.63619  0.17409  Biso   1.000  Nd
  Nd6      1.0000 0.16922  0.62795  0.51452  Biso   1.000  Nd
  N5       1.0000 0.16190  0.49740  0.25820  Biso   1.000  N
  N6       1.0000 0.36600  0.73420  0.46420  Biso   1.000  N
  O33      1.0000 0.13310  0.53030  0.11720  Biso   1.000  O
  O34      1.0000 0.17190  0.40410  0.12450  Biso   1.000  O
  O35      1.0000 0.12380  0.61540  0.29660  Biso   1.000  O
  O36      1.0000 0.15960  0.54750  0.41120  Biso   1.000  O
  O37      1.0000 0.25100  0.76870  0.37090  Biso   1.000  O
  O38      1.0000 0.22280  0.65310  0.29590  Biso   1.000  O
  O39      1.0000 0.44000  0.85580  0.56970  Biso   1.000  O
  O40      1.0000 0.51900  0.78480  0.61200  Biso   1.000  O
  O41      1.0000 0.15880  0.70420  0.13150  Biso   1.000  O
  H45      1.0000 0.14310  0.75060  0.12870  Biso   1.000  H
  H46      1.0000 0.19660  0.71140  0.16660  Biso   1.000  H
  O42      1.0000 0.03220  0.63260  0.01290  Biso   1.000  O
  H47      1.0000 0.03570  0.67470  0.99200  Biso   1.000  H
  H48      1.0000 0.03270  0.58590  0.99370  Biso   1.000  H
  O43      1.0000 0.02760  0.52240  0.12330  Biso   1.000  O
  H49      1.0000 0.02610  0.48650  0.15080  Biso   1.000  H
  H50      1.0000 0.00580  0.56470  0.11280  Biso   1.000  H
  O44      1.0000 0.13250  0.78100  0.23640  Biso   1.000  O
  H51      1.0000 0.16920  0.79500  0.26750  Biso   1.000  H
  H52      1.0000 0.11380  0.80230  0.18870  Biso   1.000  H
  O45      1.0000 0.12450  0.48150  0.48830  Biso   1.000  O
  H53      1.0000 0.09980  0.46710  0.43740  Biso   1.000  H
  H54      1.0000 0.10940  0.47460  0.50910  Biso   1.000  H
  O46      1.0000 0.25090  0.52870  0.60980  Biso   1.000  O
  H55      1.0000 0.28840  0.53710  0.64840  Biso   1.000  H
  H56      1.0000 0.24560  0.47720  0.59400  Biso   1.000  H
  O47      1.0000 0.25350  0.66050  0.51980  Biso   1.000  O
  H57      1.0000 0.24720  0.70600  0.49380  Biso   1.000  H
  H58      1.0000 0.26050  0.61920  0.50240  Biso   1.000  H
  O48      1.0000 0.13410  0.73350  0.39660  Biso   1.000  O
  H59      1.0000 0.15440  0.77820  0.42340  Biso   1.000  H
  H60      1.0000 0.09950  0.74050  0.37900  Biso   1.000  H
  C29      1.0000 0.16200  0.46050  0.15290  Biso   1.000  C
  C30      1.0000 0.18530  0.44440  0.23830  Biso   1.000  C
  C31      1.0000 0.22530  0.38180  0.29180  Biso   1.000  C
  H61      1.0000 0.24060  0.34550  0.27660  Biso   1.000  H
  C32      1.0000 0.24280  0.37260  0.36760  Biso   1.000  C
  H62      1.0000 0.27260  0.33430  0.40710  Biso   1.000  H
  C33      1.0000 0.21280  0.42480  0.38290  Biso   1.000  C
  H63      1.0000 0.21940  0.41600  0.43040  Biso   1.000  H
  C34      1.0000 0.17410  0.48830  0.32740  Biso   1.000  C
  C35      1.0000 0.15060  0.55360  0.34660  Biso   1.000  C
  C36      1.0000 0.26230  0.69910  0.35320  Biso   1.000  C
  C37      1.0000 0.32620  0.67810  0.40680  Biso   1.000  C
  C38      1.0000 0.34440  0.60120  0.39440  Biso   1.000  C
  H64      1.0000 0.31650  0.56250  0.35300  Biso   1.000  H
  C39      1.0000 0.40560  0.58700  0.44680  Biso   1.000  C
  H65      1.0000 0.41910  0.53620  0.44250  Biso   1.000  H
  C40      1.0000 0.44720  0.64750  0.50560  Biso   1.000  C
  H66      1.0000 0.48820  0.63970  0.53920  Biso   1.000  H
  C41      1.0000 0.42350  0.72110  0.51140  Biso   1.000  C
  C42      1.0000 0.46430  0.79250  0.57090  Biso   1.000  C
  Nd7      1.0000 0.60999  0.13619  0.17409  Biso   1.000  Nd
  Nd8      1.0000 0.66922  0.12795  0.51452  Biso   1.000  Nd
  N7       1.0000 0.66190  0.99740  0.25820  Biso   1.000  N
  N8       1.0000 0.86600  0.23420  0.46420  Biso   1.000  N
  O49      1.0000 0.63310  0.03030  0.11720  Biso   1.000  O
  O50      1.0000 0.67190  0.90410  0.12450  Biso   1.000  O
  O51      1.0000 0.62380  0.11540  0.29660  Biso   1.000  O
  O52      1.0000 0.65960  0.04750  0.41120  Biso   1.000  O
  O53      1.0000 0.75100  0.26870  0.37090  Biso   1.000  O
  O54      1.0000 0.72280  0.15310  0.29590  Biso   1.000  O
  O55      1.0000 0.94000  0.35580  0.56970  Biso   1.000  O
  O56      1.0000 0.01900  0.28480  0.61200  Biso   1.000  O
  O57      1.0000 0.65880  0.20420  0.13150  Biso   1.000  O
  H67      1.0000 0.64310  0.25060  0.12870  Biso   1.000  H
  H68      1.0000 0.69660  0.21140  0.16660  Biso   1.000  H
  O58      1.0000 0.53220  0.13260  0.01290  Biso   1.000  O
  H69      1.0000 0.53570  0.17470  0.99200  Biso   1.000  H
  H70      1.0000 0.53270  0.08590  0.99370  Biso   1.000  H
  O59      1.0000 0.52760  0.02240  0.12330  Biso   1.000  O
  H71      1.0000 0.52610  0.98650  0.15080  Biso   1.000  H
  H72      1.0000 0.50580  0.06470  0.11280  Biso   1.000  H
  O60      1.0000 0.63250  0.28100  0.23640  Biso   1.000  O
  H73      1.0000 0.66920  0.29500  0.26750  Biso   1.000  H
  H74      1.0000 0.61380  0.30230  0.18870  Biso   1.000  H
  O61      1.0000 0.62450  0.98150  0.48830  Biso   1.000  O
  H75      1.0000 0.59980  0.96710  0.43740  Biso   1.000  H
  H76      1.0000 0.60940  0.97460  0.50910  Biso   1.000  H
  O62      1.0000 0.75090  0.02870  0.60980  Biso   1.000  O
  H77      1.0000 0.78840  0.03710  0.64840  Biso   1.000  H
  H78      1.0000 0.74560  0.97720  0.59400  Biso   1.000  H
  O63      1.0000 0.75350  0.16050  0.51980  Biso   1.000  O
  H79      1.0000 0.74720  0.20600  0.49380  Biso   1.000  H
  H80      1.0000 0.76050  0.11920  0.50240  Biso   1.000  H
  O64      1.0000 0.63410  0.23350  0.39660  Biso   1.000  O
  H81      1.0000 0.65440  0.27820  0.42340  Biso   1.000  H
  H82      1.0000 0.59950  0.24050  0.37900  Biso   1.000  H
  C43      1.0000 0.66200  0.96050  0.15290  Biso   1.000  C
  C44      1.0000 0.68530  0.94440  0.23830  Biso   1.000  C
  C45      1.0000 0.72530  0.88180  0.29180  Biso   1.000  C
  H83      1.0000 0.74060  0.84550  0.27660  Biso   1.000  H
  C46      1.0000 0.74280  0.87260  0.36760  Biso   1.000  C
  H84      1.0000 0.77260  0.83430  0.40710  Biso   1.000  H
  C47      1.0000 0.71280  0.92480  0.38290  Biso   1.000  C
  H85      1.0000 0.71940  0.91600  0.43040  Biso   1.000  H
  C48      1.0000 0.67410  0.98830  0.32740  Biso   1.000  C
  C49      1.0000 0.65060  0.05360  0.34660  Biso   1.000  C
  C50      1.0000 0.76230  0.19910  0.35320  Biso   1.000  C
  C51      1.0000 0.82620  0.17810  0.40680  Biso   1.000  C
  C52      1.0000 0.84440  0.10120  0.39440  Biso   1.000  C
  H86      1.0000 0.81650  0.06250  0.35300  Biso   1.000  H
  C53      1.0000 0.90560  0.08700  0.44680  Biso   1.000  C
  H87      1.0000 0.91910  0.03620  0.44250  Biso   1.000  H
  C54      1.0000 0.94720  0.14750  0.50560  Biso   1.000  C
  H88      1.0000 0.98820  0.13970  0.53920  Biso   1.000  H
  C55      1.0000 0.92350  0.22110  0.51140  Biso   1.000  C
  C56      1.0000 0.96430  0.29250  0.57090  Biso   1.000  C
  Nd9      1.0000 0.10999  0.36381  0.67409  Biso   1.000  Nd
  Nd10     1.0000 0.16922  0.37205  0.01452  Biso   1.000  Nd
  N9       1.0000 0.16190  0.50260  0.75820  Biso   1.000  N
  N10      1.0000 0.36600  0.26580  0.96420  Biso   1.000  N
  O65      1.0000 0.13310  0.46970  0.61720  Biso   1.000  O
  O66      1.0000 0.17190  0.59590  0.62450  Biso   1.000  O
  O67      1.0000 0.12380  0.38460  0.79660  Biso   1.000  O
  O68      1.0000 0.15960  0.45250  0.91120  Biso   1.000  O
  O69      1.0000 0.25100  0.23130  0.87090  Biso   1.000  O
  O70      1.0000 0.22280  0.34690  0.79590  Biso   1.000  O
  O71      1.0000 0.44000  0.14420  0.06970  Biso   1.000  O
  O72      1.0000 0.51900  0.21520  0.11200  Biso   1.000  O
  O73      1.0000 0.15880  0.29580  0.63150  Biso   1.000  O
  H89      1.0000 0.14310  0.24940  0.62870  Biso   1.000  H
  H90      1.0000 0.19660  0.28860  0.66660  Biso   1.000  H
  O74      1.0000 0.03220  0.36740  0.51290  Biso   1.000  O
  H91      1.0000 0.03570  0.32530  0.49200  Biso   1.000  H
  H92      1.0000 0.03270  0.41410  0.49370  Biso   1.000  H
  O75      1.0000 0.02760  0.47760  0.62330  Biso   1.000  O
  H93      1.0000 0.02610  0.51350  0.65080  Biso   1.000  H
  H94      1.0000 0.00580  0.43530  0.61280  Biso   1.000  H
  O76      1.0000 0.13250  0.21900  0.73640  Biso   1.000  O
  H95      1.0000 0.16920  0.20500  0.76750  Biso   1.000  H
  H96      1.0000 0.11380  0.19770  0.68870  Biso   1.000  H
  O77      1.0000 0.12450  0.51850  0.98830  Biso   1.000  O
  H97      1.0000 0.09980  0.53290  0.93740  Biso   1.000  H
  H98      1.0000 0.10940  0.52540  0.00910  Biso   1.000  H
  O78      1.0000 0.25090  0.47130  0.10980  Biso   1.000  O
  H99      1.0000 0.28840  0.46290  0.14840  Biso   1.000  H
  H100     1.0000 0.24560  0.52280  0.09400  Biso   1.000  H
  O79      1.0000 0.25350  0.33950  0.01980  Biso   1.000  O
  H101     1.0000 0.24720  0.29400  0.99380  Biso   1.000  H
  H102     1.0000 0.26050  0.38080  0.00240  Biso   1.000  H
  O80      1.0000 0.13410  0.26650  0.89660  Biso   1.000  O
  H103     1.0000 0.15440  0.22180  0.92340  Biso   1.000  H
  H104     1.0000 0.09950  0.25950  0.87900  Biso   1.000  H
  C57      1.0000 0.16200  0.53950  0.65290  Biso   1.000  C
  C58      1.0000 0.18530  0.55560  0.73830  Biso   1.000  C
  C59      1.0000 0.22530  0.61820  0.79180  Biso   1.000  C
  H105     1.0000 0.24060  0.65450  0.77660  Biso   1.000  H
  C60      1.0000 0.24280  0.62740  0.86760  Biso   1.000  C
  H106     1.0000 0.27260  0.66570  0.90710  Biso   1.000  H
  C61      1.0000 0.21280  0.57520  0.88290  Biso   1.000  C
  H107     1.0000 0.21940  0.58400  0.93040  Biso   1.000  H
  C62      1.0000 0.17410  0.51170  0.82740  Biso   1.000  C
  C63      1.0000 0.15060  0.44640  0.84660  Biso   1.000  C
  C64      1.0000 0.26230  0.30090  0.85320  Biso   1.000  C
  C65      1.0000 0.32620  0.32190  0.90680  Biso   1.000  C
  C66      1.0000 0.34440  0.39880  0.89440  Biso   1.000  C
  H108     1.0000 0.31650  0.43750  0.85300  Biso   1.000  H
  C67      1.0000 0.40560  0.41300  0.94680  Biso   1.000  C
  H109     1.0000 0.41910  0.46380  0.94250  Biso   1.000  H
  C68      1.0000 0.44720  0.35250  0.00560  Biso   1.000  C
  H110     1.0000 0.48820  0.36030  0.03920  Biso   1.000  H
  C69      1.0000 0.42350  0.27890  0.01140  Biso   1.000  C
  C70      1.0000 0.46430  0.20750  0.07090  Biso   1.000  C
  Nd11     1.0000 0.60999  0.86381  0.67409  Biso   1.000  Nd
  Nd12     1.0000 0.66922  0.87205  0.01452  Biso   1.000  Nd
  N11      1.0000 0.66190  0.00260  0.75820  Biso   1.000  N
  N12      1.0000 0.86600  0.76580  0.96420  Biso   1.000  N
  O81      1.0000 0.63310  0.96970  0.61720  Biso   1.000  O
  O82      1.0000 0.67190  0.09590  0.62450  Biso   1.000  O
  O83      1.0000 0.62380  0.88460  0.79660  Biso   1.000  O
  O84      1.0000 0.65960  0.95250  0.91120  Biso   1.000  O
  O85      1.0000 0.75100  0.73130  0.87090  Biso   1.000  O
  O86      1.0000 0.72280  0.84690  0.79590  Biso   1.000  O
  O87      1.0000 0.94000  0.64420  0.06970  Biso   1.000  O
  O88      1.0000 0.01900  0.71520  0.11200  Biso   1.000  O
  O89      1.0000 0.65880  0.79580  0.63150  Biso   1.000  O
  H111     1.0000 0.64310  0.74940  0.62870  Biso   1.000  H
  H112     1.0000 0.69660  0.78860  0.66660  Biso   1.000  H
  O90      1.0000 0.53220  0.86740  0.51290  Biso   1.000  O
  H113     1.0000 0.53570  0.82530  0.49200  Biso   1.000  H
  H114     1.0000 0.53270  0.91410  0.49370  Biso   1.000  H
  O91      1.0000 0.52760  0.97760  0.62330  Biso   1.000  O
  H115     1.0000 0.52610  0.01350  0.65080  Biso   1.000  H
  H116     1.0000 0.50580  0.93530  0.61280  Biso   1.000  H
  O92      1.0000 0.63250  0.71900  0.73640  Biso   1.000  O
  H117     1.0000 0.66920  0.70500  0.76750  Biso   1.000  H
  H118     1.0000 0.61380  0.69770  0.68870  Biso   1.000  H
  O93      1.0000 0.62450  0.01850  0.98830  Biso   1.000  O
  H119     1.0000 0.59980  0.03290  0.93740  Biso   1.000  H
  H120     1.0000 0.60940  0.02540  0.00910  Biso   1.000  H
  O94      1.0000 0.75090  0.97130  0.10980  Biso   1.000  O
  H121     1.0000 0.78840  0.96290  0.14840  Biso   1.000  H
  H122     1.0000 0.74560  0.02280  0.09400  Biso   1.000  H
  O95      1.0000 0.75350  0.83950  0.01980  Biso   1.000  O
  H123     1.0000 0.74720  0.79400  0.99380  Biso   1.000  H
  H124     1.0000 0.76050  0.88080  0.00240  Biso   1.000  H
  O96      1.0000 0.63410  0.76650  0.89660  Biso   1.000  O
  H125     1.0000 0.65440  0.72180  0.92340  Biso   1.000  H
  H126     1.0000 0.59950  0.75950  0.87900  Biso   1.000  H
  C71      1.0000 0.66200  0.03950  0.65290  Biso   1.000  C
  C72      1.0000 0.68530  0.05560  0.73830  Biso   1.000  C
  C73      1.0000 0.72530  0.11820  0.79180  Biso   1.000  C
  H127     1.0000 0.74060  0.15450  0.77660  Biso   1.000  H
  C74      1.0000 0.74280  0.12740  0.86760  Biso   1.000  C
  H128     1.0000 0.77260  0.16570  0.90710  Biso   1.000  H
  C75      1.0000 0.71280  0.07520  0.88290  Biso   1.000  C
  H129     1.0000 0.71940  0.08400  0.93040  Biso   1.000  H
  C76      1.0000 0.67410  0.01170  0.82740  Biso   1.000  C
  C77      1.0000 0.65060  0.94640  0.84660  Biso   1.000  C
  C78      1.0000 0.76230  0.80090  0.85320  Biso   1.000  C
  C79      1.0000 0.82620  0.82190  0.90680  Biso   1.000  C
  C80      1.0000 0.84440  0.89880  0.89440  Biso   1.000  C
  H130     1.0000 0.81650  0.93750  0.85300  Biso   1.000  H
  C81      1.0000 0.90560  0.91300  0.94680  Biso   1.000  C
  H131     1.0000 0.91910  0.96380  0.94250  Biso   1.000  H
  C82      1.0000 0.94720  0.85250  0.00560  Biso   1.000  C
  H132     1.0000 0.98820  0.86030  0.03920  Biso   1.000  H
  C83      1.0000 0.92350  0.77890  0.01140  Biso   1.000  C
  C84      1.0000 0.96430  0.70750  0.07090  Biso   1.000  C
  Nd13     1.0000 0.89001  0.36381  0.82591  Biso   1.000  Nd
  Nd14     1.0000 0.83078  0.37205  0.48548  Biso   1.000  Nd
  N13      1.0000 0.83810  0.50260  0.74180  Biso   1.000  N
  N14      1.0000 0.63400  0.26580  0.53580  Biso   1.000  N
  O97      1.0000 0.86690  0.46970  0.88280  Biso   1.000  O
  O98      1.0000 0.82810  0.59590  0.87550  Biso   1.000  O
  O99      1.0000 0.87620  0.38460  0.70340  Biso   1.000  O
  O100     1.0000 0.84040  0.45250  0.58880  Biso   1.000  O
  O101     1.0000 0.74900  0.23130  0.62910  Biso   1.000  O
  O102     1.0000 0.77720  0.34690  0.70410  Biso   1.000  O
  O103     1.0000 0.56000  0.14420  0.43030  Biso   1.000  O
  O104     1.0000 0.48100  0.21520  0.38800  Biso   1.000  O
  O105     1.0000 0.84120  0.29580  0.86850  Biso   1.000  O
  H133     1.0000 0.85690  0.24940  0.87130  Biso   1.000  H
  H134     1.0000 0.80340  0.28860  0.83340  Biso   1.000  H
  O106     1.0000 0.96780  0.36740  0.98710  Biso   1.000  O
  H135     1.0000 0.96430  0.32530  0.00800  Biso   1.000  H
  H136     1.0000 0.96730  0.41410  0.00630  Biso   1.000  H
  O107     1.0000 0.97240  0.47760  0.87670  Biso   1.000  O
  H137     1.0000 0.97390  0.51350  0.84920  Biso   1.000  H
  H138     1.0000 0.99420  0.43530  0.88720  Biso   1.000  H
  O108     1.0000 0.86750  0.21900  0.76360  Biso   1.000  O
  H139     1.0000 0.83080  0.20500  0.73250  Biso   1.000  H
  H140     1.0000 0.88620  0.19770  0.81130  Biso   1.000  H
  O109     1.0000 0.87550  0.51850  0.51170  Biso   1.000  O
  H141     1.0000 0.90020  0.53290  0.56260  Biso   1.000  H
  H142     1.0000 0.89060  0.52540  0.49090  Biso   1.000  H
  O110     1.0000 0.74910  0.47130  0.39020  Biso   1.000  O
  H143     1.0000 0.71160  0.46290  0.35160  Biso   1.000  H
  H144     1.0000 0.75440  0.52280  0.40600  Biso   1.000  H
  O111     1.0000 0.74650  0.33950  0.48020  Biso   1.000  O
  H145     1.0000 0.75280  0.29400  0.50620  Biso   1.000  H
  H146     1.0000 0.73950  0.38080  0.49760  Biso   1.000  H
  O112     1.0000 0.86590  0.26650  0.60340  Biso   1.000  O
  H147     1.0000 0.84560  0.22180  0.57660  Biso   1.000  H
  H148     1.0000 0.90050  0.25950  0.62100  Biso   1.000  H
  C85      1.0000 0.83800  0.53950  0.84710  Biso   1.000  C
  C86      1.0000 0.81470  0.55560  0.76170  Biso   1.000  C
  C87      1.0000 0.77470  0.61820  0.70820  Biso   1.000  C
  H149     1.0000 0.75940  0.65450  0.72340  Biso   1.000  H
  C88      1.0000 0.75720  0.62740  0.63240  Biso   1.000  C
  H150     1.0000 0.72740  0.66570  0.59290  Biso   1.000  H
  C89      1.0000 0.78720  0.57520  0.61710  Biso   1.000  C
  H151     1.0000 0.78060  0.58400  0.56960  Biso   1.000  H
  C90      1.0000 0.82590  0.51170  0.67260  Biso   1.000  C
  C91      1.0000 0.84940  0.44640  0.65340  Biso   1.000  C
  C92      1.0000 0.73770  0.30090  0.64680  Biso   1.000  C
  C93      1.0000 0.67380  0.32190  0.59320  Biso   1.000  C
  C94      1.0000 0.65560  0.39880  0.60560  Biso   1.000  C
  H152     1.0000 0.68350  0.43750  0.64700  Biso   1.000  H
  C95      1.0000 0.59440  0.41300  0.55320  Biso   1.000  C
  H153     1.0000 0.58090  0.46380  0.55750  Biso   1.000  H
  C96      1.0000 0.55280  0.35250  0.49440  Biso   1.000  C
  H154     1.0000 0.51180  0.36030  0.46080  Biso   1.000  H
  C97      1.0000 0.57650  0.27890  0.48860  Biso   1.000  C
  C98      1.0000 0.53570  0.20750  0.42910  Biso   1.000  C
  Nd15     1.0000 0.39001  0.86381  0.82591  Biso   1.000  Nd
  Nd16     1.0000 0.33078  0.87205  0.48548  Biso   1.000  Nd
  N15      1.0000 0.33810  0.00260  0.74180  Biso   1.000  N
  N16      1.0000 0.13400  0.76580  0.53580  Biso   1.000  N
  O113     1.0000 0.36690  0.96970  0.88280  Biso   1.000  O
  O114     1.0000 0.32810  0.09590  0.87550  Biso   1.000  O
  O115     1.0000 0.37620  0.88460  0.70340  Biso   1.000  O
  O116     1.0000 0.34040  0.95250  0.58880  Biso   1.000  O
  O117     1.0000 0.24900  0.73130  0.62910  Biso   1.000  O
  O118     1.0000 0.27720  0.84690  0.70410  Biso   1.000  O
  O119     1.0000 0.06000  0.64420  0.43030  Biso   1.000  O
  O120     1.0000 0.98100  0.71520  0.38800  Biso   1.000  O
  O121     1.0000 0.34120  0.79580  0.86850  Biso   1.000  O
  H155     1.0000 0.35690  0.74940  0.87130  Biso   1.000  H
  H156     1.0000 0.30340  0.78860  0.83340  Biso   1.000  H
  O122     1.0000 0.46780  0.86740  0.98710  Biso   1.000  O
  H157     1.0000 0.46430  0.82530  0.00800  Biso   1.000  H
  H158     1.0000 0.46730  0.91410  0.00630  Biso   1.000  H
  O123     1.0000 0.47240  0.97760  0.87670  Biso   1.000  O
  H159     1.0000 0.47390  0.01350  0.84920  Biso   1.000  H
  H160     1.0000 0.49420  0.93530  0.88720  Biso   1.000  H
  O124     1.0000 0.36750  0.71900  0.76360  Biso   1.000  O
  H161     1.0000 0.33080  0.70500  0.73250  Biso   1.000  H
  H162     1.0000 0.38620  0.69770  0.81130  Biso   1.000  H
  O125     1.0000 0.37550  0.01850  0.51170  Biso   1.000  O
  H163     1.0000 0.40020  0.03290  0.56260  Biso   1.000  H
  H164     1.0000 0.39060  0.02540  0.49090  Biso   1.000  H
  O126     1.0000 0.24910  0.97130  0.39020  Biso   1.000  O
  H165     1.0000 0.21160  0.96290  0.35160  Biso   1.000  H
  H166     1.0000 0.25440  0.02280  0.40600  Biso   1.000  H
  O127     1.0000 0.24650  0.83950  0.48020  Biso   1.000  O
  H167     1.0000 0.25280  0.79400  0.50620  Biso   1.000  H
  H168     1.0000 0.23950  0.88080  0.49760  Biso   1.000  H
  O128     1.0000 0.36590  0.76650  0.60340  Biso   1.000  O
  H169     1.0000 0.34560  0.72180  0.57660  Biso   1.000  H
  H170     1.0000 0.40050  0.75950  0.62100  Biso   1.000  H
  C99      1.0000 0.33800  0.03950  0.84710  Biso   1.000  C
  C100     1.0000 0.31470  0.05560  0.76170  Biso   1.000  C
  C101     1.0000 0.27470  0.11820  0.70820  Biso   1.000  C
  H171     1.0000 0.25940  0.15450  0.72340  Biso   1.000  H
  C102     1.0000 0.25720  0.12740  0.63240  Biso   1.000  C
  H172     1.0000 0.22740  0.16570  0.59290  Biso   1.000  H
  C103     1.0000 0.28720  0.07520  0.61710  Biso   1.000  C
  H173     1.0000 0.28060  0.08400  0.56960  Biso   1.000  H
  C104     1.0000 0.32590  0.01170  0.67260  Biso   1.000  C
  C105     1.0000 0.34940  0.94640  0.65340  Biso   1.000  C
  C106     1.0000 0.23770  0.80090  0.64680  Biso   1.000  C
  C107     1.0000 0.17380  0.82190  0.59320  Biso   1.000  C
  C108     1.0000 0.15560  0.89880  0.60560  Biso   1.000  C
  H174     1.0000 0.18350  0.93750  0.64700  Biso   1.000  H
  C109     1.0000 0.09440  0.91300  0.55320  Biso   1.000  C
  H175     1.0000 0.08090  0.96380  0.55750  Biso   1.000  H
  C110     1.0000 0.05280  0.85250  0.49440  Biso   1.000  C
  H176     1.0000 0.01180  0.86030  0.46080  Biso   1.000  H
  C111     1.0000 0.07650  0.77890  0.48860  Biso   1.000  C
  C112     1.0000 0.03570  0.70750  0.42910  Biso   1.000  C
