data_image0
_cell_length_a       30.863
_cell_length_b       15.7425
_cell_length_c       22.192
_cell_angle_alpha    90
_cell_angle_beta     133.173
_cell_angle_gamma    90

_symmetry_space_group_name_H-M    "P 1"
_symmetry_int_tables_number       1

loop_
  _symmetry_equiv_pos_as_xyz
  'x, y, z'

loop_
  _atom_site_label
  _atom_site_occupancy
  _atom_site_fract_x
  _atom_site_fract_y
  _atom_site_fract_z
  _atom_site_thermal_displace_type
  _atom_site_B_iso_or_equiv
  _atom_site_type_symbol
  La1      1.0000 0.89008  0.86284  0.32831  Biso   1.000  La
  La2      1.0000 0.83052  0.12895  0.48594  Biso   1.000  La
  N1       1.0000 0.83790  0.00410  0.24190  Biso   1.000  N
  N2       1.0000 0.13320  0.73080  0.53590  Biso   1.000  N
  O1       1.0000 0.87570  0.88580  0.20330  Biso   1.000  O
  O2       1.0000 0.84090  0.95490  0.09110  Biso   1.000  O
  O3       1.0000 0.86630  0.97390  0.38280  Biso   1.000  O
  O4       1.0000 0.82530  0.09840  0.37240  Biso   1.000  O
  O5       1.0000 0.05960  0.85210  0.43160  Biso   1.000  O
  O6       1.0000 0.98080  0.78080  0.38980  Biso   1.000  O
  O7       1.0000 0.24710  0.76450  0.62670  Biso   1.000  O
  O8       1.0000 0.27610  0.65040  0.70580  Biso   1.000  O
  O9       1.0000 0.97400  0.97590  0.37640  Biso   1.000  O
  H1       1.0000 0.97690  0.01470  0.40560  Biso   1.000  H
  H2       1.0000 0.00760  0.95150  0.40480  Biso   1.000  H
  O10      1.0000 0.86450  0.71720  0.26190  Biso   1.000  O
  H3       1.0000 0.88130  0.67780  0.29770  Biso   1.000  H
  H4       1.0000 0.82720  0.70890  0.22580  Biso   1.000  H
  O11      1.0000 0.96930  0.87070  0.49240  Biso   1.000  O
  H5       1.0000 0.97510  0.82260  0.51420  Biso   1.000  H
  H6       1.0000 0.95630  0.90730  0.50490  Biso   1.000  H
  O12      1.0000 0.83930  0.79400  0.37100  Biso   1.000  O
  H7       1.0000 0.86410  0.78240  0.42230  Biso   1.000  H
  H8       1.0000 0.81200  0.82550  0.35920  Biso   1.000  H
  O13      1.0000 0.86720  0.23440  0.60620  Biso   1.000  O
  H9       1.0000 0.87270  0.20590  0.64350  Biso   1.000  H
  H10      1.0000 0.83940  0.26960  0.58670  Biso   1.000  H
  O14      1.0000 0.87780  0.98200  0.51430  Biso   1.000  O
  H11      1.0000 0.86610  0.95780  0.47100  Biso   1.000  H
  H12      1.0000 0.87400  0.94910  0.54080  Biso   1.000  H
  O15      1.0000 0.74530  0.02790  0.38600  Biso   1.000  O
  H13      1.0000 0.71980  0.02880  0.38980  Biso   1.000  H
  H14      1.0000 0.75710  0.97720  0.39130  Biso   1.000  H
  O16      1.0000 0.74480  0.16110  0.47970  Biso   1.000  O
  H15      1.0000 0.73790  0.12060  0.49750  Biso   1.000  H
  H16      1.0000 0.71290  0.17720  0.43230  Biso   1.000  H
  C1       1.0000 0.84980  0.94780  0.15480  Biso   1.000  C
  C2       1.0000 0.82520  0.01320  0.17190  Biso   1.000  C
  C3       1.0000 0.78650  0.07570  0.11670  Biso   1.000  C
  H17      1.0000 0.77870  0.08280  0.06840  Biso   1.000  H
  C4       1.0000 0.75880  0.12870  0.13260  Biso   1.000  C
  H18      1.0000 0.73070  0.16880  0.09430  Biso   1.000  H
  C5       1.0000 0.77500  0.11880  0.20740  Biso   1.000  C
  H19      1.0000 0.75900  0.15420  0.22150  Biso   1.000  H
  C6       1.0000 0.81480  0.05680  0.26110  Biso   1.000  C
  C7       1.0000 0.83720  0.04250  0.34570  Biso   1.000  C
  C8       1.0000 0.03500  0.78870  0.43100  Biso   1.000  C
  C9       1.0000 0.07620  0.71840  0.48920  Biso   1.000  C
  C10      1.0000 0.05400  0.64500  0.49690  Biso   1.000  C
  H20      1.0000 0.01340  0.63770  0.46450  Biso   1.000  H
  C11      1.0000 0.09440  0.58410  0.55410  Biso   1.000  C
  H21      1.0000 0.08100  0.53350  0.55830  Biso   1.000  H
  C12      1.0000 0.15560  0.59930  0.60590  Biso   1.000  C
  H22      1.0000 0.18380  0.56110  0.64710  Biso   1.000  H
  C13      1.0000 0.17230  0.67400  0.59280  Biso   1.000  C
  C14      1.0000 0.23610  0.69720  0.64510  Biso   1.000  C
  La3      1.0000 0.39008  0.36284  0.32831  Biso   1.000  La
  La4      1.0000 0.33052  0.62895  0.48594  Biso   1.000  La
  N3       1.0000 0.33790  0.50410  0.24190  Biso   1.000  N
  N4       1.0000 0.63320  0.23080  0.53590  Biso   1.000  N
  O17      1.0000 0.37570  0.38580  0.20330  Biso   1.000  O
  O18      1.0000 0.34090  0.45490  0.09110  Biso   1.000  O
  O19      1.0000 0.36630  0.47390  0.38280  Biso   1.000  O
  O20      1.0000 0.32530  0.59840  0.37240  Biso   1.000  O
  O21      1.0000 0.55960  0.35210  0.43160  Biso   1.000  O
  O22      1.0000 0.48080  0.28080  0.38980  Biso   1.000  O
  O23      1.0000 0.74710  0.26450  0.62670  Biso   1.000  O
  O24      1.0000 0.77610  0.15040  0.70580  Biso   1.000  O
  O25      1.0000 0.47400  0.47590  0.37640  Biso   1.000  O
  H23      1.0000 0.47690  0.51470  0.40560  Biso   1.000  H
  H24      1.0000 0.50760  0.45150  0.40480  Biso   1.000  H
  O26      1.0000 0.36450  0.21720  0.26190  Biso   1.000  O
  H25      1.0000 0.38130  0.17780  0.29770  Biso   1.000  H
  H26      1.0000 0.32720  0.20890  0.22580  Biso   1.000  H
  O27      1.0000 0.46930  0.37070  0.49240  Biso   1.000  O
  H27      1.0000 0.47510  0.32260  0.51420  Biso   1.000  H
  H28      1.0000 0.45630  0.40730  0.50490  Biso   1.000  H
  O28      1.0000 0.33930  0.29400  0.37100  Biso   1.000  O
  H29      1.0000 0.36410  0.28240  0.42230  Biso   1.000  H
  H30      1.0000 0.31200  0.32550  0.35920  Biso   1.000  H
  O29      1.0000 0.36720  0.73440  0.60620  Biso   1.000  O
  H31      1.0000 0.37270  0.70590  0.64350  Biso   1.000  H
  H32      1.0000 0.33940  0.76960  0.58670  Biso   1.000  H
  O30      1.0000 0.37780  0.48200  0.51430  Biso   1.000  O
  H33      1.0000 0.36610  0.45780  0.47100  Biso   1.000  H
  H34      1.0000 0.37400  0.44910  0.54080  Biso   1.000  H
  O31      1.0000 0.24530  0.52790  0.38600  Biso   1.000  O
  H35      1.0000 0.21980  0.52880  0.38980  Biso   1.000  H
  H36      1.0000 0.25710  0.47720  0.39130  Biso   1.000  H
  O32      1.0000 0.24480  0.66110  0.47970  Biso   1.000  O
  H37      1.0000 0.23790  0.62060  0.49750  Biso   1.000  H
  H38      1.0000 0.21290  0.67720  0.43230  Biso   1.000  H
  C15      1.0000 0.34980  0.44780  0.15480  Biso   1.000  C
  C16      1.0000 0.32520  0.51320  0.17190  Biso   1.000  C
  C17      1.0000 0.28650  0.57570  0.11670  Biso   1.000  C
  H39      1.0000 0.27870  0.58280  0.06840  Biso   1.000  H
  C18      1.0000 0.25880  0.62870  0.13260  Biso   1.000  C
  H40      1.0000 0.23070  0.66880  0.09430  Biso   1.000  H
  C19      1.0000 0.27500  0.61880  0.20740  Biso   1.000  C
  H41      1.0000 0.25900  0.65420  0.22150  Biso   1.000  H
  C20      1.0000 0.31480  0.55680  0.26110  Biso   1.000  C
  C21      1.0000 0.33720  0.54250  0.34570  Biso   1.000  C
  C22      1.0000 0.53500  0.28870  0.43100  Biso   1.000  C
  C23      1.0000 0.57620  0.21840  0.48920  Biso   1.000  C
  C24      1.0000 0.55400  0.14500  0.49690  Biso   1.000  C
  H42      1.0000 0.51340  0.13770  0.46450  Biso   1.000  H
  C25      1.0000 0.59440  0.08410  0.55410  Biso   1.000  C
  H43      1.0000 0.58100  0.03350  0.55830  Biso   1.000  H
  C26      1.0000 0.65560  0.09930  0.60590  Biso   1.000  C
  H44      1.0000 0.68380  0.06110  0.64710  Biso   1.000  H
  C27      1.0000 0.67230  0.17400  0.59280  Biso   1.000  C
  C28      1.0000 0.73610  0.19720  0.64510  Biso   1.000  C
  La5      1.0000 0.10992  0.86284  0.17169  Biso   1.000  La
  La6      1.0000 0.16948  0.12895  0.01406  Biso   1.000  La
  N5       1.0000 0.16210  0.00410  0.25810  Biso   1.000  N
  N6       1.0000 0.86680  0.73080  0.96410  Biso   1.000  N
  O33      1.0000 0.12430  0.88580  0.29670  Biso   1.000  O
  O34      1.0000 0.15910  0.95490  0.40890  Biso   1.000  O
  O35      1.0000 0.13370  0.97390  0.11720  Biso   1.000  O
  O36      1.0000 0.17470  0.09840  0.12760  Biso   1.000  O
  O37      1.0000 0.94040  0.85210  0.06840  Biso   1.000  O
  O38      1.0000 0.01920  0.78080  0.11020  Biso   1.000  O
  O39      1.0000 0.75290  0.76450  0.87330  Biso   1.000  O
  O40      1.0000 0.72390  0.65040  0.79420  Biso   1.000  O
  O41      1.0000 0.02600  0.97590  0.12360  Biso   1.000  O
  H45      1.0000 0.02310  0.01470  0.09440  Biso   1.000  H
  H46      1.0000 0.99240  0.95150  0.09520  Biso   1.000  H
  O42      1.0000 0.13550  0.71720  0.23810  Biso   1.000  O
  H47      1.0000 0.11870  0.67780  0.20230  Biso   1.000  H
  H48      1.0000 0.17280  0.70890  0.27420  Biso   1.000  H
  O43      1.0000 0.03070  0.87070  0.00760  Biso   1.000  O
  H49      1.0000 0.02490  0.82260  0.98580  Biso   1.000  H
  H50      1.0000 0.04370  0.90730  0.99510  Biso   1.000  H
  O44      1.0000 0.16070  0.79400  0.12900  Biso   1.000  O
  H51      1.0000 0.13590  0.78240  0.07770  Biso   1.000  H
  H52      1.0000 0.18800  0.82550  0.14080  Biso   1.000  H
  O45      1.0000 0.13280  0.23440  0.89380  Biso   1.000  O
  H53      1.0000 0.12730  0.20590  0.85650  Biso   1.000  H
  H54      1.0000 0.16060  0.26960  0.91330  Biso   1.000  H
  O46      1.0000 0.12220  0.98200  0.98570  Biso   1.000  O
  H55      1.0000 0.13390  0.95780  0.02900  Biso   1.000  H
  H56      1.0000 0.12600  0.94910  0.95920  Biso   1.000  H
  O47      1.0000 0.25470  0.02790  0.11400  Biso   1.000  O
  H57      1.0000 0.28020  0.02880  0.11020  Biso   1.000  H
  H58      1.0000 0.24290  0.97720  0.10870  Biso   1.000  H
  O48      1.0000 0.25520  0.16110  0.02030  Biso   1.000  O
  H59      1.0000 0.26210  0.12060  0.00250  Biso   1.000  H
  H60      1.0000 0.28710  0.17720  0.06770  Biso   1.000  H
  C29      1.0000 0.15020  0.94780  0.34520  Biso   1.000  C
  C30      1.0000 0.17480  0.01320  0.32810  Biso   1.000  C
  C31      1.0000 0.21350  0.07570  0.38330  Biso   1.000  C
  H61      1.0000 0.22130  0.08280  0.43160  Biso   1.000  H
  C32      1.0000 0.24120  0.12870  0.36740  Biso   1.000  C
  H62      1.0000 0.26930  0.16880  0.40570  Biso   1.000  H
  C33      1.0000 0.22500  0.11880  0.29260  Biso   1.000  C
  H63      1.0000 0.24100  0.15420  0.27850  Biso   1.000  H
  C34      1.0000 0.18520  0.05680  0.23890  Biso   1.000  C
  C35      1.0000 0.16280  0.04250  0.15430  Biso   1.000  C
  C36      1.0000 0.96500  0.78870  0.06900  Biso   1.000  C
  C37      1.0000 0.92380  0.71840  0.01080  Biso   1.000  C
  C38      1.0000 0.94600  0.64500  0.00310  Biso   1.000  C
  H64      1.0000 0.98660  0.63770  0.03550  Biso   1.000  H
  C39      1.0000 0.90560  0.58410  0.94590  Biso   1.000  C
  H65      1.0000 0.91900  0.53350  0.94170  Biso   1.000  H
  C40      1.0000 0.84440  0.59930  0.89410  Biso   1.000  C
  H66      1.0000 0.81620  0.56110  0.85290  Biso   1.000  H
  C41      1.0000 0.82770  0.67400  0.90720  Biso   1.000  C
  C42      1.0000 0.76390  0.69720  0.85490  Biso   1.000  C
  La7      1.0000 0.60992  0.36284  0.17169  Biso   1.000  La
  La8      1.0000 0.66948  0.62895  0.01406  Biso   1.000  La
  N7       1.0000 0.66210  0.50410  0.25810  Biso   1.000  N
  N8       1.0000 0.36680  0.23080  0.96410  Biso   1.000  N
  O49      1.0000 0.62430  0.38580  0.29670  Biso   1.000  O
  O50      1.0000 0.65910  0.45490  0.40890  Biso   1.000  O
  O51      1.0000 0.63370  0.47390  0.11720  Biso   1.000  O
  O52      1.0000 0.67470  0.59840  0.12760  Biso   1.000  O
  O53      1.0000 0.44040  0.35210  0.06840  Biso   1.000  O
  O54      1.0000 0.51920  0.28080  0.11020  Biso   1.000  O
  O55      1.0000 0.25290  0.26450  0.87330  Biso   1.000  O
  O56      1.0000 0.22390  0.15040  0.79420  Biso   1.000  O
  O57      1.0000 0.52600  0.47590  0.12360  Biso   1.000  O
  H67      1.0000 0.52310  0.51470  0.09440  Biso   1.000  H
  H68      1.0000 0.49240  0.45150  0.09520  Biso   1.000  H
  O58      1.0000 0.63550  0.21720  0.23810  Biso   1.000  O
  H69      1.0000 0.61870  0.17780  0.20230  Biso   1.000  H
  H70      1.0000 0.67280  0.20890  0.27420  Biso   1.000  H
  O59      1.0000 0.53070  0.37070  0.00760  Biso   1.000  O
  H71      1.0000 0.52490  0.32260  0.98580  Biso   1.000  H
  H72      1.0000 0.54370  0.40730  0.99510  Biso   1.000  H
  O60      1.0000 0.66070  0.29400  0.12900  Biso   1.000  O
  H73      1.0000 0.63590  0.28240  0.07770  Biso   1.000  H
  H74      1.0000 0.68800  0.32550  0.14080  Biso   1.000  H
  O61      1.0000 0.63280  0.73440  0.89380  Biso   1.000  O
  H75      1.0000 0.62730  0.70590  0.85650  Biso   1.000  H
  H76      1.0000 0.66060  0.76960  0.91330  Biso   1.000  H
  O62      1.0000 0.62220  0.48200  0.98570  Biso   1.000  O
  H77      1.0000 0.63390  0.45780  0.02900  Biso   1.000  H
  H78      1.0000 0.62600  0.44910  0.95920  Biso   1.000  H
  O63      1.0000 0.75470  0.52790  0.11400  Biso   1.000  O
  H79      1.0000 0.78020  0.52880  0.11020  Biso   1.000  H
  H80      1.0000 0.74290  0.47720  0.10870  Biso   1.000  H
  O64      1.0000 0.75520  0.66110  0.02030  Biso   1.000  O
  H81      1.0000 0.76210  0.62060  0.00250  Biso   1.000  H
  H82      1.0000 0.78710  0.67720  0.06770  Biso   1.000  H
  C43      1.0000 0.65020  0.44780  0.34520  Biso   1.000  C
  C44      1.0000 0.67480  0.51320  0.32810  Biso   1.000  C
  C45      1.0000 0.71350  0.57570  0.38330  Biso   1.000  C
  H83      1.0000 0.72130  0.58280  0.43160  Biso   1.000  H
  C46      1.0000 0.74120  0.62870  0.36740  Biso   1.000  C
  H84      1.0000 0.76930  0.66880  0.40570  Biso   1.000  H
  C47      1.0000 0.72500  0.61880  0.29260  Biso   1.000  C
  H85      1.0000 0.74100  0.65420  0.27850  Biso   1.000  H
  C48      1.0000 0.68520  0.55680  0.23890  Biso   1.000  C
  C49      1.0000 0.66280  0.54250  0.15430  Biso   1.000  C
  C50      1.0000 0.46500  0.28870  0.06900  Biso   1.000  C
  C51      1.0000 0.42380  0.21840  0.01080  Biso   1.000  C
  C52      1.0000 0.44600  0.14500  0.00310  Biso   1.000  C
  H86      1.0000 0.48660  0.13770  0.03550  Biso   1.000  H
  C53      1.0000 0.40560  0.08410  0.94590  Biso   1.000  C
  H87      1.0000 0.41900  0.03350  0.94170  Biso   1.000  H
  C54      1.0000 0.34440  0.09930  0.89410  Biso   1.000  C
  H88      1.0000 0.31620  0.06110  0.85290  Biso   1.000  H
  C55      1.0000 0.32770  0.17400  0.90720  Biso   1.000  C
  C56      1.0000 0.26390  0.19720  0.85490  Biso   1.000  C
  La9      1.0000 0.10992  0.13716  0.67169  Biso   1.000  La
  La10     1.0000 0.16948  0.87105  0.51406  Biso   1.000  La
  N9       1.0000 0.16210  0.99590  0.75810  Biso   1.000  N
  N10      1.0000 0.86680  0.26920  0.46410  Biso   1.000  N
  O65      1.0000 0.12430  0.11420  0.79670  Biso   1.000  O
  O66      1.0000 0.15910  0.04510  0.90890  Biso   1.000  O
  O67      1.0000 0.13370  0.02610  0.61720  Biso   1.000  O
  O68      1.0000 0.17470  0.90160  0.62760  Biso   1.000  O
  O69      1.0000 0.94040  0.14790  0.56840  Biso   1.000  O
  O70      1.0000 0.01920  0.21920  0.61020  Biso   1.000  O
  O71      1.0000 0.75290  0.23550  0.37330  Biso   1.000  O
  O72      1.0000 0.72390  0.34960  0.29420  Biso   1.000  O
  O73      1.0000 0.02600  0.02410  0.62360  Biso   1.000  O
  H89      1.0000 0.02310  0.98530  0.59440  Biso   1.000  H
  H90      1.0000 0.99240  0.04850  0.59520  Biso   1.000  H
  O74      1.0000 0.13550  0.28280  0.73810  Biso   1.000  O
  H91      1.0000 0.11870  0.32220  0.70230  Biso   1.000  H
  H92      1.0000 0.17280  0.29110  0.77420  Biso   1.000  H
  O75      1.0000 0.03070  0.12930  0.50760  Biso   1.000  O
  H93      1.0000 0.02490  0.17740  0.48580  Biso   1.000  H
  H94      1.0000 0.04370  0.09270  0.49510  Biso   1.000  H
  O76      1.0000 0.16070  0.20600  0.62900  Biso   1.000  O
  H95      1.0000 0.13590  0.21760  0.57770  Biso   1.000  H
  H96      1.0000 0.18800  0.17450  0.64080  Biso   1.000  H
  O77      1.0000 0.13280  0.76560  0.39380  Biso   1.000  O
  H97      1.0000 0.12730  0.79410  0.35650  Biso   1.000  H
  H98      1.0000 0.16060  0.73040  0.41330  Biso   1.000  H
  O78      1.0000 0.12220  0.01800  0.48570  Biso   1.000  O
  H99      1.0000 0.13390  0.04220  0.52900  Biso   1.000  H
  H100     1.0000 0.12600  0.05090  0.45920  Biso   1.000  H
  O79      1.0000 0.25470  0.97210  0.61400  Biso   1.000  O
  H101     1.0000 0.28020  0.97120  0.61020  Biso   1.000  H
  H102     1.0000 0.24290  0.02280  0.60870  Biso   1.000  H
  O80      1.0000 0.25520  0.83890  0.52030  Biso   1.000  O
  H103     1.0000 0.26210  0.87940  0.50250  Biso   1.000  H
  H104     1.0000 0.28710  0.82280  0.56770  Biso   1.000  H
  C57      1.0000 0.15020  0.05220  0.84520  Biso   1.000  C
  C58      1.0000 0.17480  0.98680  0.82810  Biso   1.000  C
  C59      1.0000 0.21350  0.92430  0.88330  Biso   1.000  C
  H105     1.0000 0.22130  0.91720  0.93160  Biso   1.000  H
  C60      1.0000 0.24120  0.87130  0.86740  Biso   1.000  C
  H106     1.0000 0.26930  0.83120  0.90570  Biso   1.000  H
  C61      1.0000 0.22500  0.88120  0.79260  Biso   1.000  C
  H107     1.0000 0.24100  0.84580  0.77850  Biso   1.000  H
  C62      1.0000 0.18520  0.94320  0.73890  Biso   1.000  C
  C63      1.0000 0.16280  0.95750  0.65430  Biso   1.000  C
  C64      1.0000 0.96500  0.21130  0.56900  Biso   1.000  C
  C65      1.0000 0.92380  0.28160  0.51080  Biso   1.000  C
  C66      1.0000 0.94600  0.35500  0.50310  Biso   1.000  C
  H108     1.0000 0.98660  0.36230  0.53550  Biso   1.000  H
  C67      1.0000 0.90560  0.41590  0.44590  Biso   1.000  C
  H109     1.0000 0.91900  0.46650  0.44170  Biso   1.000  H
  C68      1.0000 0.84440  0.40070  0.39410  Biso   1.000  C
  H110     1.0000 0.81620  0.43890  0.35290  Biso   1.000  H
  C69      1.0000 0.82770  0.32600  0.40720  Biso   1.000  C
  C70      1.0000 0.76390  0.30280  0.35490  Biso   1.000  C
  La11     1.0000 0.60992  0.63716  0.67169  Biso   1.000  La
  La12     1.0000 0.66948  0.37105  0.51406  Biso   1.000  La
  N11      1.0000 0.66210  0.49590  0.75810  Biso   1.000  N
  N12      1.0000 0.36680  0.76920  0.46410  Biso   1.000  N
  O81      1.0000 0.62430  0.61420  0.79670  Biso   1.000  O
  O82      1.0000 0.65910  0.54510  0.90890  Biso   1.000  O
  O83      1.0000 0.63370  0.52610  0.61720  Biso   1.000  O
  O84      1.0000 0.67470  0.40160  0.62760  Biso   1.000  O
  O85      1.0000 0.44040  0.64790  0.56840  Biso   1.000  O
  O86      1.0000 0.51920  0.71920  0.61020  Biso   1.000  O
  O87      1.0000 0.25290  0.73550  0.37330  Biso   1.000  O
  O88      1.0000 0.22390  0.84960  0.29420  Biso   1.000  O
  O89      1.0000 0.52600  0.52410  0.62360  Biso   1.000  O
  H111     1.0000 0.52310  0.48530  0.59440  Biso   1.000  H
  H112     1.0000 0.49240  0.54850  0.59520  Biso   1.000  H
  O90      1.0000 0.63550  0.78280  0.73810  Biso   1.000  O
  H113     1.0000 0.61870  0.82220  0.70230  Biso   1.000  H
  H114     1.0000 0.67280  0.79110  0.77420  Biso   1.000  H
  O91      1.0000 0.53070  0.62930  0.50760  Biso   1.000  O
  H115     1.0000 0.52490  0.67740  0.48580  Biso   1.000  H
  H116     1.0000 0.54370  0.59270  0.49510  Biso   1.000  H
  O92      1.0000 0.66070  0.70600  0.62900  Biso   1.000  O
  H117     1.0000 0.63590  0.71760  0.57770  Biso   1.000  H
  H118     1.0000 0.68800  0.67450  0.64080  Biso   1.000  H
  O93      1.0000 0.63280  0.26560  0.39380  Biso   1.000  O
  H119     1.0000 0.62730  0.29410  0.35650  Biso   1.000  H
  H120     1.0000 0.66060  0.23040  0.41330  Biso   1.000  H
  O94      1.0000 0.62220  0.51800  0.48570  Biso   1.000  O
  H121     1.0000 0.63390  0.54220  0.52900  Biso   1.000  H
  H122     1.0000 0.62600  0.55090  0.45920  Biso   1.000  H
  O95      1.0000 0.75470  0.47210  0.61400  Biso   1.000  O
  H123     1.0000 0.78020  0.47120  0.61020  Biso   1.000  H
  H124     1.0000 0.74290  0.52280  0.60870  Biso   1.000  H
  O96      1.0000 0.75520  0.33890  0.52030  Biso   1.000  O
  H125     1.0000 0.76210  0.37940  0.50250  Biso   1.000  H
  H126     1.0000 0.78710  0.32280  0.56770  Biso   1.000  H
  C71      1.0000 0.65020  0.55220  0.84520  Biso   1.000  C
  C72      1.0000 0.67480  0.48680  0.82810  Biso   1.000  C
  C73      1.0000 0.71350  0.42430  0.88330  Biso   1.000  C
  H127     1.0000 0.72130  0.41720  0.93160  Biso   1.000  H
  C74      1.0000 0.74120  0.37130  0.86740  Biso   1.000  C
  H128     1.0000 0.76930  0.33120  0.90570  Biso   1.000  H
  C75      1.0000 0.72500  0.38120  0.79260  Biso   1.000  C
  H129     1.0000 0.74100  0.34580  0.77850  Biso   1.000  H
  C76      1.0000 0.68520  0.44320  0.73890  Biso   1.000  C
  C77      1.0000 0.66280  0.45750  0.65430  Biso   1.000  C
  C78      1.0000 0.46500  0.71130  0.56900  Biso   1.000  C
  C79      1.0000 0.42380  0.78160  0.51080  Biso   1.000  C
  C80      1.0000 0.44600  0.85500  0.50310  Biso   1.000  C
  H130     1.0000 0.48660  0.86230  0.53550  Biso   1.000  H
  C81      1.0000 0.40560  0.91590  0.44590  Biso   1.000  C
  H131     1.0000 0.41900  0.96650  0.44170  Biso   1.000  H
  C82      1.0000 0.34440  0.90070  0.39410  Biso   1.000  C
  H132     1.0000 0.31620  0.93890  0.35290  Biso   1.000  H
  C83      1.0000 0.32770  0.82600  0.40720  Biso   1.000  C
  C84      1.0000 0.26390  0.80280  0.35490  Biso   1.000  C
  La13     1.0000 0.89008  0.13716  0.82831  Biso   1.000  La
  La14     1.0000 0.83052  0.87105  0.98594  Biso   1.000  La
  N13      1.0000 0.83790  0.99590  0.74190  Biso   1.000  N
  N14      1.0000 0.13320  0.26920  0.03590  Biso   1.000  N
  O97      1.0000 0.87570  0.11420  0.70330  Biso   1.000  O
  O98      1.0000 0.84090  0.04510  0.59110  Biso   1.000  O
  O99      1.0000 0.86630  0.02610  0.88280  Biso   1.000  O
  O100     1.0000 0.82530  0.90160  0.87240  Biso   1.000  O
  O101     1.0000 0.05960  0.14790  0.93160  Biso   1.000  O
  O102     1.0000 0.98080  0.21920  0.88980  Biso   1.000  O
  O103     1.0000 0.24710  0.23550  0.12670  Biso   1.000  O
  O104     1.0000 0.27610  0.34960  0.20580  Biso   1.000  O
  O105     1.0000 0.97400  0.02410  0.87640  Biso   1.000  O
  H133     1.0000 0.97690  0.98530  0.90560  Biso   1.000  H
  H134     1.0000 0.00760  0.04850  0.90480  Biso   1.000  H
  O106     1.0000 0.86450  0.28280  0.76190  Biso   1.000  O
  H135     1.0000 0.88130  0.32220  0.79770  Biso   1.000  H
  H136     1.0000 0.82720  0.29110  0.72580  Biso   1.000  H
  O107     1.0000 0.96930  0.12930  0.99240  Biso   1.000  O
  H137     1.0000 0.97510  0.17740  0.01420  Biso   1.000  H
  H138     1.0000 0.95630  0.09270  0.00490  Biso   1.000  H
  O108     1.0000 0.83930  0.20600  0.87100  Biso   1.000  O
  H139     1.0000 0.86410  0.21760  0.92230  Biso   1.000  H
  H140     1.0000 0.81200  0.17450  0.85920  Biso   1.000  H
  O109     1.0000 0.86720  0.76560  0.10620  Biso   1.000  O
  H141     1.0000 0.87270  0.79410  0.14350  Biso   1.000  H
  H142     1.0000 0.83940  0.73040  0.08670  Biso   1.000  H
  O110     1.0000 0.87780  0.01800  0.01430  Biso   1.000  O
  H143     1.0000 0.86610  0.04220  0.97100  Biso   1.000  H
  H144     1.0000 0.87400  0.05090  0.04080  Biso   1.000  H
  O111     1.0000 0.74530  0.97210  0.88600  Biso   1.000  O
  H145     1.0000 0.71980  0.97120  0.88980  Biso   1.000  H
  H146     1.0000 0.75710  0.02280  0.89130  Biso   1.000  H
  O112     1.0000 0.74480  0.83890  0.97970  Biso   1.000  O
  H147     1.0000 0.73790  0.87940  0.99750  Biso   1.000  H
  H148     1.0000 0.71290  0.82280  0.93230  Biso   1.000  H
  C85      1.0000 0.84980  0.05220  0.65480  Biso   1.000  C
  C86      1.0000 0.82520  0.98680  0.67190  Biso   1.000  C
  C87      1.0000 0.78650  0.92430  0.61670  Biso   1.000  C
  H149     1.0000 0.77870  0.91720  0.56840  Biso   1.000  H
  C88      1.0000 0.75880  0.87130  0.63260  Biso   1.000  C
  H150     1.0000 0.73070  0.83120  0.59430  Biso   1.000  H
  C89      1.0000 0.77500  0.88120  0.70740  Biso   1.000  C
  H151     1.0000 0.75900  0.84580  0.72150  Biso   1.000  H
  C90      1.0000 0.81480  0.94320  0.76110  Biso   1.000  C
  C91      1.0000 0.83720  0.95750  0.84570  Biso   1.000  C
  C92      1.0000 0.03500  0.21130  0.93100  Biso   1.000  C
  C93      1.0000 0.07620  0.28160  0.98920  Biso   1.000  C
  C94      1.0000 0.05400  0.35500  0.99690  Biso   1.000  C
  H152     1.0000 0.01340  0.36230  0.96450  Biso   1.000  H
  C95      1.0000 0.09440  0.41590  0.05410  Biso   1.000  C
  H153     1.0000 0.08100  0.46650  0.05830  Biso   1.000  H
  C96      1.0000 0.15560  0.40070  0.10590  Biso   1.000  C
  H154     1.0000 0.18380  0.43890  0.14710  Biso   1.000  H
  C97      1.0000 0.17230  0.32600  0.09280  Biso   1.000  C
  C98      1.0000 0.23610  0.30280  0.14510  Biso   1.000  C
  La15     1.0000 0.39008  0.63716  0.82831  Biso   1.000  La
  La16     1.0000 0.33052  0.37105  0.98594  Biso   1.000  La
  N15      1.0000 0.33790  0.49590  0.74190  Biso   1.000  N
  N16      1.0000 0.63320  0.76920  0.03590  Biso   1.000  N
  O113     1.0000 0.37570  0.61420  0.70330  Biso   1.000  O
  O114     1.0000 0.34090  0.54510  0.59110  Biso   1.000  O
  O115     1.0000 0.36630  0.52610  0.88280  Biso   1.000  O
  O116     1.0000 0.32530  0.40160  0.87240  Biso   1.000  O
  O117     1.0000 0.55960  0.64790  0.93160  Biso   1.000  O
  O118     1.0000 0.48080  0.71920  0.88980  Biso   1.000  O
  O119     1.0000 0.74710  0.73550  0.12670  Biso   1.000  O
  O120     1.0000 0.77610  0.84960  0.20580  Biso   1.000  O
  O121     1.0000 0.47400  0.52410  0.87640  Biso   1.000  O
  H155     1.0000 0.47690  0.48530  0.90560  Biso   1.000  H
  H156     1.0000 0.50760  0.54850  0.90480  Biso   1.000  H
  O122     1.0000 0.36450  0.78280  0.76190  Biso   1.000  O
  H157     1.0000 0.38130  0.82220  0.79770  Biso   1.000  H
  H158     1.0000 0.32720  0.79110  0.72580  Biso   1.000  H
  O123     1.0000 0.46930  0.62930  0.99240  Biso   1.000  O
  H159     1.0000 0.47510  0.67740  0.01420  Biso   1.000  H
  H160     1.0000 0.45630  0.59270  0.00490  Biso   1.000  H
  O124     1.0000 0.33930  0.70600  0.87100  Biso   1.000  O
  H161     1.0000 0.36410  0.71760  0.92230  Biso   1.000  H
  H162     1.0000 0.31200  0.67450  0.85920  Biso   1.000  H
  O125     1.0000 0.36720  0.26560  0.10620  Biso   1.000  O
  H163     1.0000 0.37270  0.29410  0.14350  Biso   1.000  H
  H164     1.0000 0.33940  0.23040  0.08670  Biso   1.000  H
  O126     1.0000 0.37780  0.51800  0.01430  Biso   1.000  O
  H165     1.0000 0.36610  0.54220  0.97100  Biso   1.000  H
  H166     1.0000 0.37400  0.55090  0.04080  Biso   1.000  H
  O127     1.0000 0.24530  0.47210  0.88600  Biso   1.000  O
  H167     1.0000 0.21980  0.47120  0.88980  Biso   1.000  H
  H168     1.0000 0.25710  0.52280  0.89130  Biso   1.000  H
  O128     1.0000 0.24480  0.33890  0.97970  Biso   1.000  O
  H169     1.0000 0.23790  0.37940  0.99750  Biso   1.000  H
  H170     1.0000 0.21290  0.32280  0.93230  Biso   1.000  H
  C99      1.0000 0.34980  0.55220  0.65480  Biso   1.000  C
  C100     1.0000 0.32520  0.48680  0.67190  Biso   1.000  C
  C101     1.0000 0.28650  0.42430  0.61670  Biso   1.000  C
  H171     1.0000 0.27870  0.41720  0.56840  Biso   1.000  H
  C102     1.0000 0.25880  0.37130  0.63260  Biso   1.000  C
  H172     1.0000 0.23070  0.33120  0.59430  Biso   1.000  H
  C103     1.0000 0.27500  0.38120  0.70740  Biso   1.000  C
  H173     1.0000 0.25900  0.34580  0.72150  Biso   1.000  H
  C104     1.0000 0.31480  0.44320  0.76110  Biso   1.000  C
  C105     1.0000 0.33720  0.45750  0.84570  Biso   1.000  C
  C106     1.0000 0.53500  0.71130  0.93100  Biso   1.000  C
  C107     1.0000 0.57620  0.78160  0.98920  Biso   1.000  C
  C108     1.0000 0.55400  0.85500  0.99690  Biso   1.000  C
  H174     1.0000 0.51340  0.86230  0.96450  Biso   1.000  H
  C109     1.0000 0.59440  0.91590  0.05410  Biso   1.000  C
  H175     1.0000 0.58100  0.96650  0.05830  Biso   1.000  H
  C110     1.0000 0.65560  0.90070  0.10590  Biso   1.000  C
  H176     1.0000 0.68380  0.93890  0.14710  Biso   1.000  H
  C111     1.0000 0.67230  0.82600  0.09280  Biso   1.000  C
  C112     1.0000 0.73610  0.80280  0.14510  Biso   1.000  C
