data_image0
_cell_length_a       30.727
_cell_length_b       15.769
_cell_length_c       22.11
_cell_angle_alpha    90
_cell_angle_beta     133.08
_cell_angle_gamma    90

_symmetry_space_group_name_H-M    "P 1"
_symmetry_int_tables_number       1

loop_
  _symmetry_equiv_pos_as_xyz
  'x, y, z'

loop_
  _atom_site_label
  _atom_site_occupancy
  _atom_site_fract_x
  _atom_site_fract_y
  _atom_site_fract_z
  _atom_site_thermal_displace_type
  _atom_site_B_iso_or_equiv
  _atom_site_type_symbol
  Ce1      1.0000 0.66945  0.37180  0.01442  Biso   1.000  Ce
  Ce2      1.0000 0.88997  0.13689  0.32709  Biso   1.000  Ce
  N1       1.0000 0.63290  0.23260  0.03560  Biso   1.000  N
  N2       1.0000 0.66250  0.49760  0.25920  Biso   1.000  N
  O1       1.0000 0.55970  0.35360  0.93120  Biso   1.000  O
  O2       1.0000 0.48080  0.28210  0.88830  Biso   1.000  O
  O3       1.0000 0.74700  0.26640  0.12700  Biso   1.000  O
  O4       1.0000 0.77650  0.15030  0.20510  Biso   1.000  O
  O5       1.0000 0.63360  0.52860  0.11710  Biso   1.000  O
  O6       1.0000 0.67370  0.40340  0.12680  Biso   1.000  O
  O7       1.0000 0.62420  0.61550  0.29600  Biso   1.000  O
  O8       1.0000 0.65900  0.54710  0.40960  Biso   1.000  O
  O9       1.0000 0.63360  0.26610  0.89520  Biso   1.000  O
  H1       1.0000 0.66180  0.23720  0.90680  Biso   1.000  H
  H2       1.0000 0.60510  0.23400  0.87900  Biso   1.000  H
  O10      1.0000 0.75520  0.33960  0.02210  Biso   1.000  O
  H3       1.0000 0.74910  0.29490  0.99580  Biso   1.000  H
  H4       1.0000 0.76250  0.38100  0.00560  Biso   1.000  H
  O11      1.0000 0.75240  0.47340  0.11150  Biso   1.000  O
  H5       1.0000 0.77810  0.47300  0.10760  Biso   1.000  H
  H6       1.0000 0.73990  0.52360  0.10560  Biso   1.000  H
  O12      1.0000 0.62190  0.51710  0.98560  Biso   1.000  O
  H7       1.0000 0.63340  0.54140  0.02880  Biso   1.000  H
  H8       1.0000 0.62620  0.55000  0.95960  Biso   1.000  H
  O13      1.0000 0.97360  0.02540  0.37590  Biso   1.000  O
  H9       1.0000 0.97620  0.98670  0.40500  Biso   1.000  H
  H10      1.0000 0.00730  0.04960  0.40480  Biso   1.000  H
  O14      1.0000 0.96840  0.13110  0.49070  Biso   1.000  O
  H11      1.0000 0.95190  0.09280  0.49640  Biso   1.000  H
  H12      1.0000 0.98330  0.16740  0.52900  Biso   1.000  H
  O15      1.0000 0.83900  0.20590  0.36830  Biso   1.000  O
  H13      1.0000 0.86380  0.21800  0.41950  Biso   1.000  H
  H14      1.0000 0.81180  0.17430  0.35680  Biso   1.000  H
  O16      1.0000 0.86670  0.28030  0.26250  Biso   1.000  O
  H15      1.0000 0.88390  0.31930  0.29880  Biso   1.000  H
  H16      1.0000 0.82940  0.28950  0.22640  Biso   1.000  H
  C1       1.0000 0.53530  0.29190  0.93070  Biso   1.000  C
  C2       1.0000 0.57590  0.22010  0.98870  Biso   1.000  C
  C3       1.0000 0.55400  0.14670  0.99620  Biso   1.000  C
  H17      1.0000 0.51330  0.13930  0.96310  Biso   1.000  H
  C4       1.0000 0.59410  0.08500  0.05380  Biso   1.000  C
  H18      1.0000 0.58080  0.03480  0.05850  Biso   1.000  H
  C5       1.0000 0.65590  0.10110  0.10510  Biso   1.000  C
  H19      1.0000 0.68400  0.06210  0.14530  Biso   1.000  H
  C6       1.0000 0.67360  0.17620  0.09420  Biso   1.000  C
  C7       1.0000 0.73780  0.19970  0.14730  Biso   1.000  C
  C8       1.0000 0.66220  0.45980  0.15340  Biso   1.000  C
  C9       1.0000 0.68400  0.44400  0.23800  Biso   1.000  C
  C10      1.0000 0.72590  0.38300  0.29290  Biso   1.000  C
  H20      1.0000 0.74380  0.34950  0.28040  Biso   1.000  H
  C11      1.0000 0.74000  0.37410  0.36570  Biso   1.000  C
  H21      1.0000 0.76730  0.33280  0.40330  Biso   1.000  H
  C12      1.0000 0.71470  0.42460  0.38440  Biso   1.000  C
  H22      1.0000 0.72360  0.41700  0.43350  Biso   1.000  H
  C13      1.0000 0.67550  0.48760  0.32930  Biso   1.000  C
  C14      1.0000 0.65010  0.55360  0.34540  Biso   1.000  C
  Ce3      1.0000 0.16945  0.87180  0.01442  Biso   1.000  Ce
  Ce4      1.0000 0.38997  0.63689  0.32709  Biso   1.000  Ce
  N3       1.0000 0.13290  0.73260  0.03560  Biso   1.000  N
  N4       1.0000 0.16250  0.99760  0.25920  Biso   1.000  N
  O17      1.0000 0.05970  0.85360  0.93120  Biso   1.000  O
  O18      1.0000 0.98080  0.78210  0.88830  Biso   1.000  O
  O19      1.0000 0.24700  0.76640  0.12700  Biso   1.000  O
  O20      1.0000 0.27650  0.65030  0.20510  Biso   1.000  O
  O21      1.0000 0.13360  0.02860  0.11710  Biso   1.000  O
  O22      1.0000 0.17370  0.90340  0.12680  Biso   1.000  O
  O23      1.0000 0.12420  0.11550  0.29600  Biso   1.000  O
  O24      1.0000 0.15900  0.04710  0.40960  Biso   1.000  O
  O25      1.0000 0.13360  0.76610  0.89520  Biso   1.000  O
  H23      1.0000 0.16180  0.73720  0.90680  Biso   1.000  H
  H24      1.0000 0.10510  0.73400  0.87900  Biso   1.000  H
  O26      1.0000 0.25520  0.83960  0.02210  Biso   1.000  O
  H25      1.0000 0.24910  0.79490  0.99580  Biso   1.000  H
  H26      1.0000 0.26250  0.88100  0.00560  Biso   1.000  H
  O27      1.0000 0.25240  0.97340  0.11150  Biso   1.000  O
  H27      1.0000 0.27810  0.97300  0.10760  Biso   1.000  H
  H28      1.0000 0.23990  0.02360  0.10560  Biso   1.000  H
  O28      1.0000 0.12190  0.01710  0.98560  Biso   1.000  O
  H29      1.0000 0.13340  0.04140  0.02880  Biso   1.000  H
  H30      1.0000 0.12620  0.05000  0.95960  Biso   1.000  H
  O29      1.0000 0.47360  0.52540  0.37590  Biso   1.000  O
  H31      1.0000 0.47620  0.48670  0.40500  Biso   1.000  H
  H32      1.0000 0.50730  0.54960  0.40480  Biso   1.000  H
  O30      1.0000 0.46840  0.63110  0.49070  Biso   1.000  O
  H33      1.0000 0.45190  0.59280  0.49640  Biso   1.000  H
  H34      1.0000 0.48330  0.66740  0.52900  Biso   1.000  H
  O31      1.0000 0.33900  0.70590  0.36830  Biso   1.000  O
  H35      1.0000 0.36380  0.71800  0.41950  Biso   1.000  H
  H36      1.0000 0.31180  0.67430  0.35680  Biso   1.000  H
  O32      1.0000 0.36670  0.78030  0.26250  Biso   1.000  O
  H37      1.0000 0.38390  0.81930  0.29880  Biso   1.000  H
  H38      1.0000 0.32940  0.78950  0.22640  Biso   1.000  H
  C15      1.0000 0.03530  0.79190  0.93070  Biso   1.000  C
  C16      1.0000 0.07590  0.72010  0.98870  Biso   1.000  C
  C17      1.0000 0.05400  0.64670  0.99620  Biso   1.000  C
  H39      1.0000 0.01330  0.63930  0.96310  Biso   1.000  H
  C18      1.0000 0.09410  0.58500  0.05380  Biso   1.000  C
  H40      1.0000 0.08080  0.53480  0.05850  Biso   1.000  H
  C19      1.0000 0.15590  0.60110  0.10510  Biso   1.000  C
  H41      1.0000 0.18400  0.56210  0.14530  Biso   1.000  H
  C20      1.0000 0.17360  0.67620  0.09420  Biso   1.000  C
  C21      1.0000 0.23780  0.69970  0.14730  Biso   1.000  C
  C22      1.0000 0.16220  0.95980  0.15340  Biso   1.000  C
  C23      1.0000 0.18400  0.94400  0.23800  Biso   1.000  C
  C24      1.0000 0.22590  0.88300  0.29290  Biso   1.000  C
  H42      1.0000 0.24380  0.84950  0.28040  Biso   1.000  H
  C25      1.0000 0.24000  0.87410  0.36570  Biso   1.000  C
  H43      1.0000 0.26730  0.83280  0.40330  Biso   1.000  H
  C26      1.0000 0.21470  0.92460  0.38440  Biso   1.000  C
  H44      1.0000 0.22360  0.91700  0.43350  Biso   1.000  H
  C27      1.0000 0.17550  0.98760  0.32930  Biso   1.000  C
  C28      1.0000 0.15010  0.05360  0.34540  Biso   1.000  C
  Ce5      1.0000 0.33055  0.37180  0.48558  Biso   1.000  Ce
  Ce6      1.0000 0.11003  0.13689  0.17291  Biso   1.000  Ce
  N5       1.0000 0.36710  0.23260  0.46440  Biso   1.000  N
  N6       1.0000 0.33750  0.49760  0.24080  Biso   1.000  N
  O33      1.0000 0.44030  0.35360  0.56880  Biso   1.000  O
  O34      1.0000 0.51920  0.28210  0.61170  Biso   1.000  O
  O35      1.0000 0.25300  0.26640  0.37300  Biso   1.000  O
  O36      1.0000 0.22350  0.15030  0.29490  Biso   1.000  O
  O37      1.0000 0.36640  0.52860  0.38290  Biso   1.000  O
  O38      1.0000 0.32630  0.40340  0.37320  Biso   1.000  O
  O39      1.0000 0.37580  0.61550  0.20400  Biso   1.000  O
  O40      1.0000 0.34100  0.54710  0.09040  Biso   1.000  O
  O41      1.0000 0.36640  0.26610  0.60480  Biso   1.000  O
  H45      1.0000 0.33820  0.23720  0.59320  Biso   1.000  H
  H46      1.0000 0.39490  0.23400  0.62100  Biso   1.000  H
  O42      1.0000 0.24480  0.33960  0.47790  Biso   1.000  O
  H47      1.0000 0.25090  0.29490  0.50420  Biso   1.000  H
  H48      1.0000 0.23750  0.38100  0.49440  Biso   1.000  H
  O43      1.0000 0.24760  0.47340  0.38850  Biso   1.000  O
  H49      1.0000 0.22190  0.47300  0.39240  Biso   1.000  H
  H50      1.0000 0.26010  0.52360  0.39440  Biso   1.000  H
  O44      1.0000 0.37810  0.51710  0.51440  Biso   1.000  O
  H51      1.0000 0.36660  0.54140  0.47120  Biso   1.000  H
  H52      1.0000 0.37380  0.55000  0.54040  Biso   1.000  H
  O45      1.0000 0.02640  0.02540  0.12410  Biso   1.000  O
  H53      1.0000 0.02380  0.98670  0.09500  Biso   1.000  H
  H54      1.0000 0.99270  0.04960  0.09520  Biso   1.000  H
  O46      1.0000 0.03160  0.13110  0.00930  Biso   1.000  O
  H55      1.0000 0.04810  0.09280  0.00360  Biso   1.000  H
  H56      1.0000 0.01670  0.16740  0.97100  Biso   1.000  H
  O47      1.0000 0.16100  0.20590  0.13170  Biso   1.000  O
  H57      1.0000 0.13620  0.21800  0.08050  Biso   1.000  H
  H58      1.0000 0.18820  0.17430  0.14320  Biso   1.000  H
  O48      1.0000 0.13330  0.28030  0.23750  Biso   1.000  O
  H59      1.0000 0.11610  0.31930  0.20120  Biso   1.000  H
  H60      1.0000 0.17060  0.28950  0.27360  Biso   1.000  H
  C29      1.0000 0.46470  0.29190  0.56930  Biso   1.000  C
  C30      1.0000 0.42410  0.22010  0.51130  Biso   1.000  C
  C31      1.0000 0.44600  0.14670  0.50380  Biso   1.000  C
  H61      1.0000 0.48670  0.13930  0.53690  Biso   1.000  H
  C32      1.0000 0.40590  0.08500  0.44620  Biso   1.000  C
  H62      1.0000 0.41920  0.03480  0.44150  Biso   1.000  H
  C33      1.0000 0.34410  0.10110  0.39490  Biso   1.000  C
  H63      1.0000 0.31600  0.06210  0.35470  Biso   1.000  H
  C34      1.0000 0.32640  0.17620  0.40580  Biso   1.000  C
  C35      1.0000 0.26220  0.19970  0.35270  Biso   1.000  C
  C36      1.0000 0.33780  0.45980  0.34660  Biso   1.000  C
  C37      1.0000 0.31600  0.44400  0.26200  Biso   1.000  C
  C38      1.0000 0.27410  0.38300  0.20710  Biso   1.000  C
  H64      1.0000 0.25620  0.34950  0.21960  Biso   1.000  H
  C39      1.0000 0.26000  0.37410  0.13430  Biso   1.000  C
  H65      1.0000 0.23270  0.33280  0.09670  Biso   1.000  H
  C40      1.0000 0.28530  0.42460  0.11560  Biso   1.000  C
  H66      1.0000 0.27640  0.41700  0.06650  Biso   1.000  H
  C41      1.0000 0.32450  0.48760  0.17070  Biso   1.000  C
  C42      1.0000 0.34990  0.55360  0.15460  Biso   1.000  C
  Ce7      1.0000 0.83055  0.87180  0.48558  Biso   1.000  Ce
  Ce8      1.0000 0.61003  0.63689  0.17291  Biso   1.000  Ce
  N7       1.0000 0.86710  0.73260  0.46440  Biso   1.000  N
  N8       1.0000 0.83750  0.99760  0.24080  Biso   1.000  N
  O49      1.0000 0.94030  0.85360  0.56880  Biso   1.000  O
  O50      1.0000 0.01920  0.78210  0.61170  Biso   1.000  O
  O51      1.0000 0.75300  0.76640  0.37300  Biso   1.000  O
  O52      1.0000 0.72350  0.65030  0.29490  Biso   1.000  O
  O53      1.0000 0.86640  0.02860  0.38290  Biso   1.000  O
  O54      1.0000 0.82630  0.90340  0.37320  Biso   1.000  O
  O55      1.0000 0.87580  0.11550  0.20400  Biso   1.000  O
  O56      1.0000 0.84100  0.04710  0.09040  Biso   1.000  O
  O57      1.0000 0.86640  0.76610  0.60480  Biso   1.000  O
  H67      1.0000 0.83820  0.73720  0.59320  Biso   1.000  H
  H68      1.0000 0.89490  0.73400  0.62100  Biso   1.000  H
  O58      1.0000 0.74480  0.83960  0.47790  Biso   1.000  O
  H69      1.0000 0.75090  0.79490  0.50420  Biso   1.000  H
  H70      1.0000 0.73750  0.88100  0.49440  Biso   1.000  H
  O59      1.0000 0.74760  0.97340  0.38850  Biso   1.000  O
  H71      1.0000 0.72190  0.97300  0.39240  Biso   1.000  H
  H72      1.0000 0.76010  0.02360  0.39440  Biso   1.000  H
  O60      1.0000 0.87810  0.01710  0.51440  Biso   1.000  O
  H73      1.0000 0.86660  0.04140  0.47120  Biso   1.000  H
  H74      1.0000 0.87380  0.05000  0.54040  Biso   1.000  H
  O61      1.0000 0.52640  0.52540  0.12410  Biso   1.000  O
  H75      1.0000 0.52380  0.48670  0.09500  Biso   1.000  H
  H76      1.0000 0.49270  0.54960  0.09520  Biso   1.000  H
  O62      1.0000 0.53160  0.63110  0.00930  Biso   1.000  O
  H77      1.0000 0.54810  0.59280  0.00360  Biso   1.000  H
  H78      1.0000 0.51670  0.66740  0.97100  Biso   1.000  H
  O63      1.0000 0.66100  0.70590  0.13170  Biso   1.000  O
  H79      1.0000 0.63620  0.71800  0.08050  Biso   1.000  H
  H80      1.0000 0.68820  0.67430  0.14320  Biso   1.000  H
  O64      1.0000 0.63330  0.78030  0.23750  Biso   1.000  O
  H81      1.0000 0.61610  0.81930  0.20120  Biso   1.000  H
  H82      1.0000 0.67060  0.78950  0.27360  Biso   1.000  H
  C43      1.0000 0.96470  0.79190  0.56930  Biso   1.000  C
  C44      1.0000 0.92410  0.72010  0.51130  Biso   1.000  C
  C45      1.0000 0.94600  0.64670  0.50380  Biso   1.000  C
  H83      1.0000 0.98670  0.63930  0.53690  Biso   1.000  H
  C46      1.0000 0.90590  0.58500  0.44620  Biso   1.000  C
  H84      1.0000 0.91920  0.53480  0.44150  Biso   1.000  H
  C47      1.0000 0.84410  0.60110  0.39490  Biso   1.000  C
  H85      1.0000 0.81600  0.56210  0.35470  Biso   1.000  H
  C48      1.0000 0.82640  0.67620  0.40580  Biso   1.000  C
  C49      1.0000 0.76220  0.69970  0.35270  Biso   1.000  C
  C50      1.0000 0.83780  0.95980  0.34660  Biso   1.000  C
  C51      1.0000 0.81600  0.94400  0.26200  Biso   1.000  C
  C52      1.0000 0.77410  0.88300  0.20710  Biso   1.000  C
  H86      1.0000 0.75620  0.84950  0.21960  Biso   1.000  H
  C53      1.0000 0.76000  0.87410  0.13430  Biso   1.000  C
  H87      1.0000 0.73270  0.83280  0.09670  Biso   1.000  H
  C54      1.0000 0.78530  0.92460  0.11560  Biso   1.000  C
  H88      1.0000 0.77640  0.91700  0.06650  Biso   1.000  H
  C55      1.0000 0.82450  0.98760  0.17070  Biso   1.000  C
  C56      1.0000 0.84990  0.05360  0.15460  Biso   1.000  C
  Ce9      1.0000 0.33055  0.62820  0.98558  Biso   1.000  Ce
  Ce10     1.0000 0.11003  0.86311  0.67291  Biso   1.000  Ce
  N9       1.0000 0.36710  0.76740  0.96440  Biso   1.000  N
  N10      1.0000 0.33750  0.50240  0.74080  Biso   1.000  N
  O65      1.0000 0.44030  0.64640  0.06880  Biso   1.000  O
  O66      1.0000 0.51920  0.71790  0.11170  Biso   1.000  O
  O67      1.0000 0.25300  0.73360  0.87300  Biso   1.000  O
  O68      1.0000 0.22350  0.84970  0.79490  Biso   1.000  O
  O69      1.0000 0.36640  0.47140  0.88290  Biso   1.000  O
  O70      1.0000 0.32630  0.59660  0.87320  Biso   1.000  O
  O71      1.0000 0.37580  0.38450  0.70400  Biso   1.000  O
  O72      1.0000 0.34100  0.45290  0.59040  Biso   1.000  O
  O73      1.0000 0.36640  0.73390  0.10480  Biso   1.000  O
  H89      1.0000 0.33820  0.76280  0.09320  Biso   1.000  H
  H90      1.0000 0.39490  0.76600  0.12100  Biso   1.000  H
  O74      1.0000 0.24480  0.66040  0.97790  Biso   1.000  O
  H91      1.0000 0.25090  0.70510  0.00420  Biso   1.000  H
  H92      1.0000 0.23750  0.61900  0.99440  Biso   1.000  H
  O75      1.0000 0.24760  0.52660  0.88850  Biso   1.000  O
  H93      1.0000 0.22190  0.52700  0.89240  Biso   1.000  H
  H94      1.0000 0.26010  0.47640  0.89440  Biso   1.000  H
  O76      1.0000 0.37810  0.48290  0.01440  Biso   1.000  O
  H95      1.0000 0.36660  0.45860  0.97120  Biso   1.000  H
  H96      1.0000 0.37380  0.45000  0.04040  Biso   1.000  H
  O77      1.0000 0.02640  0.97460  0.62410  Biso   1.000  O
  H97      1.0000 0.02380  0.01330  0.59500  Biso   1.000  H
  H98      1.0000 0.99270  0.95040  0.59520  Biso   1.000  H
  O78      1.0000 0.03160  0.86890  0.50930  Biso   1.000  O
  H99      1.0000 0.04810  0.90720  0.50360  Biso   1.000  H
  H100     1.0000 0.01670  0.83260  0.47100  Biso   1.000  H
  O79      1.0000 0.16100  0.79410  0.63170  Biso   1.000  O
  H101     1.0000 0.13620  0.78200  0.58050  Biso   1.000  H
  H102     1.0000 0.18820  0.82570  0.64320  Biso   1.000  H
  O80      1.0000 0.13330  0.71970  0.73750  Biso   1.000  O
  H103     1.0000 0.11610  0.68070  0.70120  Biso   1.000  H
  H104     1.0000 0.17060  0.71050  0.77360  Biso   1.000  H
  C57      1.0000 0.46470  0.70810  0.06930  Biso   1.000  C
  C58      1.0000 0.42410  0.77990  0.01130  Biso   1.000  C
  C59      1.0000 0.44600  0.85330  0.00380  Biso   1.000  C
  H105     1.0000 0.48670  0.86070  0.03690  Biso   1.000  H
  C60      1.0000 0.40590  0.91500  0.94620  Biso   1.000  C
  H106     1.0000 0.41920  0.96520  0.94150  Biso   1.000  H
  C61      1.0000 0.34410  0.89890  0.89490  Biso   1.000  C
  H107     1.0000 0.31600  0.93790  0.85470  Biso   1.000  H
  C62      1.0000 0.32640  0.82380  0.90580  Biso   1.000  C
  C63      1.0000 0.26220  0.80030  0.85270  Biso   1.000  C
  C64      1.0000 0.33780  0.54020  0.84660  Biso   1.000  C
  C65      1.0000 0.31600  0.55600  0.76200  Biso   1.000  C
  C66      1.0000 0.27410  0.61700  0.70710  Biso   1.000  C
  H108     1.0000 0.25620  0.65050  0.71960  Biso   1.000  H
  C67      1.0000 0.26000  0.62590  0.63430  Biso   1.000  C
  H109     1.0000 0.23270  0.66720  0.59670  Biso   1.000  H
  C68      1.0000 0.28530  0.57540  0.61560  Biso   1.000  C
  H110     1.0000 0.27640  0.58300  0.56650  Biso   1.000  H
  C69      1.0000 0.32450  0.51240  0.67070  Biso   1.000  C
  C70      1.0000 0.34990  0.44640  0.65460  Biso   1.000  C
  Ce11     1.0000 0.83055  0.12820  0.98558  Biso   1.000  Ce
  Ce12     1.0000 0.61003  0.36311  0.67291  Biso   1.000  Ce
  N11      1.0000 0.86710  0.26740  0.96440  Biso   1.000  N
  N12      1.0000 0.83750  0.00240  0.74080  Biso   1.000  N
  O81      1.0000 0.94030  0.14640  0.06880  Biso   1.000  O
  O82      1.0000 0.01920  0.21790  0.11170  Biso   1.000  O
  O83      1.0000 0.75300  0.23360  0.87300  Biso   1.000  O
  O84      1.0000 0.72350  0.34970  0.79490  Biso   1.000  O
  O85      1.0000 0.86640  0.97140  0.88290  Biso   1.000  O
  O86      1.0000 0.82630  0.09660  0.87320  Biso   1.000  O
  O87      1.0000 0.87580  0.88450  0.70400  Biso   1.000  O
  O88      1.0000 0.84100  0.95290  0.59040  Biso   1.000  O
  O89      1.0000 0.86640  0.23390  0.10480  Biso   1.000  O
  H111     1.0000 0.83820  0.26280  0.09320  Biso   1.000  H
  H112     1.0000 0.89490  0.26600  0.12100  Biso   1.000  H
  O90      1.0000 0.74480  0.16040  0.97790  Biso   1.000  O
  H113     1.0000 0.75090  0.20510  0.00420  Biso   1.000  H
  H114     1.0000 0.73750  0.11900  0.99440  Biso   1.000  H
  O91      1.0000 0.74760  0.02660  0.88850  Biso   1.000  O
  H115     1.0000 0.72190  0.02700  0.89240  Biso   1.000  H
  H116     1.0000 0.76010  0.97640  0.89440  Biso   1.000  H
  O92      1.0000 0.87810  0.98290  0.01440  Biso   1.000  O
  H117     1.0000 0.86660  0.95860  0.97120  Biso   1.000  H
  H118     1.0000 0.87380  0.95000  0.04040  Biso   1.000  H
  O93      1.0000 0.52640  0.47460  0.62410  Biso   1.000  O
  H119     1.0000 0.52380  0.51330  0.59500  Biso   1.000  H
  H120     1.0000 0.49270  0.45040  0.59520  Biso   1.000  H
  O94      1.0000 0.53160  0.36890  0.50930  Biso   1.000  O
  H121     1.0000 0.54810  0.40720  0.50360  Biso   1.000  H
  H122     1.0000 0.51670  0.33260  0.47100  Biso   1.000  H
  O95      1.0000 0.66100  0.29410  0.63170  Biso   1.000  O
  H123     1.0000 0.63620  0.28200  0.58050  Biso   1.000  H
  H124     1.0000 0.68820  0.32570  0.64320  Biso   1.000  H
  O96      1.0000 0.63330  0.21970  0.73750  Biso   1.000  O
  H125     1.0000 0.61610  0.18070  0.70120  Biso   1.000  H
  H126     1.0000 0.67060  0.21050  0.77360  Biso   1.000  H
  C71      1.0000 0.96470  0.20810  0.06930  Biso   1.000  C
  C72      1.0000 0.92410  0.27990  0.01130  Biso   1.000  C
  C73      1.0000 0.94600  0.35330  0.00380  Biso   1.000  C
  H127     1.0000 0.98670  0.36070  0.03690  Biso   1.000  H
  C74      1.0000 0.90590  0.41500  0.94620  Biso   1.000  C
  H128     1.0000 0.91920  0.46520  0.94150  Biso   1.000  H
  C75      1.0000 0.84410  0.39890  0.89490  Biso   1.000  C
  H129     1.0000 0.81600  0.43790  0.85470  Biso   1.000  H
  C76      1.0000 0.82640  0.32380  0.90580  Biso   1.000  C
  C77      1.0000 0.76220  0.30030  0.85270  Biso   1.000  C
  C78      1.0000 0.83780  0.04020  0.84660  Biso   1.000  C
  C79      1.0000 0.81600  0.05600  0.76200  Biso   1.000  C
  C80      1.0000 0.77410  0.11700  0.70710  Biso   1.000  C
  H130     1.0000 0.75620  0.15050  0.71960  Biso   1.000  H
  C81      1.0000 0.76000  0.12590  0.63430  Biso   1.000  C
  H131     1.0000 0.73270  0.16720  0.59670  Biso   1.000  H
  C82      1.0000 0.78530  0.07540  0.61560  Biso   1.000  C
  H132     1.0000 0.77640  0.08300  0.56650  Biso   1.000  H
  C83      1.0000 0.82450  0.01240  0.67070  Biso   1.000  C
  C84      1.0000 0.84990  0.94640  0.65460  Biso   1.000  C
  Ce13     1.0000 0.66945  0.62820  0.51442  Biso   1.000  Ce
  Ce14     1.0000 0.88997  0.86311  0.82709  Biso   1.000  Ce
  N13      1.0000 0.63290  0.76740  0.53560  Biso   1.000  N
  N14      1.0000 0.66250  0.50240  0.75920  Biso   1.000  N
  O97      1.0000 0.55970  0.64640  0.43120  Biso   1.000  O
  O98      1.0000 0.48080  0.71790  0.38830  Biso   1.000  O
  O99      1.0000 0.74700  0.73360  0.62700  Biso   1.000  O
  O100     1.0000 0.77650  0.84970  0.70510  Biso   1.000  O
  O101     1.0000 0.63360  0.47140  0.61710  Biso   1.000  O
  O102     1.0000 0.67370  0.59660  0.62680  Biso   1.000  O
  O103     1.0000 0.62420  0.38450  0.79600  Biso   1.000  O
  O104     1.0000 0.65900  0.45290  0.90960  Biso   1.000  O
  O105     1.0000 0.63360  0.73390  0.39520  Biso   1.000  O
  H133     1.0000 0.66180  0.76280  0.40680  Biso   1.000  H
  H134     1.0000 0.60510  0.76600  0.37900  Biso   1.000  H
  O106     1.0000 0.75520  0.66040  0.52210  Biso   1.000  O
  H135     1.0000 0.74910  0.70510  0.49580  Biso   1.000  H
  H136     1.0000 0.76250  0.61900  0.50560  Biso   1.000  H
  O107     1.0000 0.75240  0.52660  0.61150  Biso   1.000  O
  H137     1.0000 0.77810  0.52700  0.60760  Biso   1.000  H
  H138     1.0000 0.73990  0.47640  0.60560  Biso   1.000  H
  O108     1.0000 0.62190  0.48290  0.48560  Biso   1.000  O
  H139     1.0000 0.63340  0.45860  0.52880  Biso   1.000  H
  H140     1.0000 0.62620  0.45000  0.45960  Biso   1.000  H
  O109     1.0000 0.97360  0.97460  0.87590  Biso   1.000  O
  H141     1.0000 0.97620  0.01330  0.90500  Biso   1.000  H
  H142     1.0000 0.00730  0.95040  0.90480  Biso   1.000  H
  O110     1.0000 0.96840  0.86890  0.99070  Biso   1.000  O
  H143     1.0000 0.95190  0.90720  0.99640  Biso   1.000  H
  H144     1.0000 0.98330  0.83260  0.02900  Biso   1.000  H
  O111     1.0000 0.83900  0.79410  0.86830  Biso   1.000  O
  H145     1.0000 0.86380  0.78200  0.91950  Biso   1.000  H
  H146     1.0000 0.81180  0.82570  0.85680  Biso   1.000  H
  O112     1.0000 0.86670  0.71970  0.76250  Biso   1.000  O
  H147     1.0000 0.88390  0.68070  0.79880  Biso   1.000  H
  H148     1.0000 0.82940  0.71050  0.72640  Biso   1.000  H
  C85      1.0000 0.53530  0.70810  0.43070  Biso   1.000  C
  C86      1.0000 0.57590  0.77990  0.48870  Biso   1.000  C
  C87      1.0000 0.55400  0.85330  0.49620  Biso   1.000  C
  H149     1.0000 0.51330  0.86070  0.46310  Biso   1.000  H
  C88      1.0000 0.59410  0.91500  0.55380  Biso   1.000  C
  H150     1.0000 0.58080  0.96520  0.55850  Biso   1.000  H
  C89      1.0000 0.65590  0.89890  0.60510  Biso   1.000  C
  H151     1.0000 0.68400  0.93790  0.64530  Biso   1.000  H
  C90      1.0000 0.67360  0.82380  0.59420  Biso   1.000  C
  C91      1.0000 0.73780  0.80030  0.64730  Biso   1.000  C
  C92      1.0000 0.66220  0.54020  0.65340  Biso   1.000  C
  C93      1.0000 0.68400  0.55600  0.73800  Biso   1.000  C
  C94      1.0000 0.72590  0.61700  0.79290  Biso   1.000  C
  H152     1.0000 0.74380  0.65050  0.78040  Biso   1.000  H
  C95      1.0000 0.74000  0.62590  0.86570  Biso   1.000  C
  H153     1.0000 0.76730  0.66720  0.90330  Biso   1.000  H
  C96      1.0000 0.71470  0.57540  0.88440  Biso   1.000  C
  H154     1.0000 0.72360  0.58300  0.93350  Biso   1.000  H
  C97      1.0000 0.67550  0.51240  0.82930  Biso   1.000  C
  C98      1.0000 0.65010  0.44640  0.84540  Biso   1.000  C
  Ce15     1.0000 0.16945  0.12820  0.51442  Biso   1.000  Ce
  Ce16     1.0000 0.38997  0.36311  0.82709  Biso   1.000  Ce
  N15      1.0000 0.13290  0.26740  0.53560  Biso   1.000  N
  N16      1.0000 0.16250  0.00240  0.75920  Biso   1.000  N
  O113     1.0000 0.05970  0.14640  0.43120  Biso   1.000  O
  O114     1.0000 0.98080  0.21790  0.38830  Biso   1.000  O
  O115     1.0000 0.24700  0.23360  0.62700  Biso   1.000  O
  O116     1.0000 0.27650  0.34970  0.70510  Biso   1.000  O
  O117     1.0000 0.13360  0.97140  0.61710  Biso   1.000  O
  O118     1.0000 0.17370  0.09660  0.62680  Biso   1.000  O
  O119     1.0000 0.12420  0.88450  0.79600  Biso   1.000  O
  O120     1.0000 0.15900  0.95290  0.90960  Biso   1.000  O
  O121     1.0000 0.13360  0.23390  0.39520  Biso   1.000  O
  H155     1.0000 0.16180  0.26280  0.40680  Biso   1.000  H
  H156     1.0000 0.10510  0.26600  0.37900  Biso   1.000  H
  O122     1.0000 0.25520  0.16040  0.52210  Biso   1.000  O
  H157     1.0000 0.24910  0.20510  0.49580  Biso   1.000  H
  H158     1.0000 0.26250  0.11900  0.50560  Biso   1.000  H
  O123     1.0000 0.25240  0.02660  0.61150  Biso   1.000  O
  H159     1.0000 0.27810  0.02700  0.60760  Biso   1.000  H
  H160     1.0000 0.23990  0.97640  0.60560  Biso   1.000  H
  O124     1.0000 0.12190  0.98290  0.48560  Biso   1.000  O
  H161     1.0000 0.13340  0.95860  0.52880  Biso   1.000  H
  H162     1.0000 0.12620  0.95000  0.45960  Biso   1.000  H
  O125     1.0000 0.47360  0.47460  0.87590  Biso   1.000  O
  H163     1.0000 0.47620  0.51330  0.90500  Biso   1.000  H
  H164     1.0000 0.50730  0.45040  0.90480  Biso   1.000  H
  O126     1.0000 0.46840  0.36890  0.99070  Biso   1.000  O
  H165     1.0000 0.45190  0.40720  0.99640  Biso   1.000  H
  H166     1.0000 0.48330  0.33260  0.02900  Biso   1.000  H
  O127     1.0000 0.33900  0.29410  0.86830  Biso   1.000  O
  H167     1.0000 0.36380  0.28200  0.91950  Biso   1.000  H
  H168     1.0000 0.31180  0.32570  0.85680  Biso   1.000  H
  O128     1.0000 0.36670  0.21970  0.76250  Biso   1.000  O
  H169     1.0000 0.38390  0.18070  0.79880  Biso   1.000  H
  H170     1.0000 0.32940  0.21050  0.72640  Biso   1.000  H
  C99      1.0000 0.03530  0.20810  0.43070  Biso   1.000  C
  C100     1.0000 0.07590  0.27990  0.48870  Biso   1.000  C
  C101     1.0000 0.05400  0.35330  0.49620  Biso   1.000  C
  H171     1.0000 0.01330  0.36070  0.46310  Biso   1.000  H
  C102     1.0000 0.09410  0.41500  0.55380  Biso   1.000  C
  H172     1.0000 0.08080  0.46520  0.55850  Biso   1.000  H
  C103     1.0000 0.15590  0.39890  0.60510  Biso   1.000  C
  H173     1.0000 0.18400  0.43790  0.64530  Biso   1.000  H
  C104     1.0000 0.17360  0.32380  0.59420  Biso   1.000  C
  C105     1.0000 0.23780  0.30030  0.64730  Biso   1.000  C
  C106     1.0000 0.16220  0.04020  0.65340  Biso   1.000  C
  C107     1.0000 0.18400  0.05600  0.73800  Biso   1.000  C
  C108     1.0000 0.22590  0.11700  0.79290  Biso   1.000  C
  H174     1.0000 0.24380  0.15050  0.78040  Biso   1.000  H
  C109     1.0000 0.24000  0.12590  0.86570  Biso   1.000  C
  H175     1.0000 0.26730  0.16720  0.90330  Biso   1.000  H
  C110     1.0000 0.21470  0.07540  0.88440  Biso   1.000  C
  H176     1.0000 0.22360  0.08300  0.93350  Biso   1.000  H
  C111     1.0000 0.17550  0.01240  0.82930  Biso   1.000  C
  C112     1.0000 0.15010  0.94640  0.84540  Biso   1.000  C
