data_image0
_cell_length_a       16.3482
_cell_length_b       16.3482
_cell_length_c       19.5011
_cell_angle_alpha    90
_cell_angle_beta     90
_cell_angle_gamma    120

_symmetry_space_group_name_H-M    "P 1"
_symmetry_int_tables_number       1

loop_
  _symmetry_equiv_pos_as_xyz
  'x, y, z'

loop_
  _atom_site_label
  _atom_site_occupancy
  _atom_site_fract_x
  _atom_site_fract_y
  _atom_site_fract_z
  _atom_site_thermal_displace_type
  _atom_site_B_iso_or_equiv
  _atom_site_type_symbol
  C1       1.0000 0.29980  0.70570  0.13770  Biso   1.000  C
  H1       1.0000 0.24190  0.66380  0.15980  Biso   1.000  H
  Fe1      1.0000 0.50048  0.78314  0.11677  Biso   1.000  Fe
  Cl1      1.0000 0.94523  0.11878  0.26345  Biso   1.000  Cl
  Cl2      1.0000 0.12710  0.88100  0.06778  Biso   1.000  Cl
  N1       1.0000 0.36860  0.68940  0.14618  Biso   1.000  N
  N2       1.0000 0.55750  0.74820  0.19539  Biso   1.000  N
  N3       1.0000 0.50510  0.66210  0.05384  Biso   1.000  N
  N4       1.0000 0.26480  0.40490  0.04550  Biso   1.000  N
  N5       1.0000 0.50730  0.40170  0.13924  Biso   1.000  N
  O1       1.0000 0.44920  0.82090  0.04437  Biso   1.000  O
  O2       1.0000 0.62040  0.87930  0.09031  Biso   1.000  O
  C2       1.0000 0.30210  0.78030  0.09836  Biso   1.000  C
  C3       1.0000 0.22560  0.79520  0.10170  Biso   1.000  C
  H2       1.0000 0.17560  0.75970  0.13300  Biso   1.000  H
  C4       1.0000 0.22200  0.86080  0.06020  Biso   1.000  C
  C5       1.0000 0.29190  0.91180  0.01380  Biso   1.000  C
  H3       1.0000 0.28840  0.95720  0.98530  Biso   1.000  H
  C6       1.0000 0.36680  0.89690  0.00870  Biso   1.000  C
  H4       1.0000 0.41440  0.93120  0.97550  Biso   1.000  H
  C7       1.0000 0.37550  0.83280  0.05101  Biso   1.000  C
  C8       1.0000 0.34740  0.59970  0.17950  Biso   1.000  C
  H5       1.0000 0.35840  0.56050  0.14620  Biso   1.000  H
  H6       1.0000 0.27980  0.56480  0.19240  Biso   1.000  H
  C9       1.0000 0.40690  0.61370  0.24330  Biso   1.000  C
  C10      1.0000 0.39550  0.67750  0.29410  Biso   1.000  C
  H7       1.0000 0.32830  0.65140  0.30460  Biso   1.000  H
  H8       1.0000 0.42080  0.74060  0.27420  Biso   1.000  H
  H9       1.0000 0.42980  0.68170  0.33630  Biso   1.000  H
  C11      1.0000 0.37170  0.51640  0.27390  Biso   1.000  C
  H10      1.0000 0.41290  0.52090  0.31190  Biso   1.000  H
  H11      1.0000 0.37220  0.47390  0.23870  Biso   1.000  H
  H12      1.0000 0.30710  0.49160  0.29100  Biso   1.000  H
  C12      1.0000 0.51020  0.65270  0.22470  Biso   1.000  C
  H13      1.0000 0.54480  0.65300  0.26640  Biso   1.000  H
  H14      1.0000 0.51440  0.60930  0.19130  Biso   1.000  H
  C13      1.0000 0.63780  0.81000  0.22167  Biso   1.000  C
  H15      1.0000 0.65660  0.79130  0.26200  Biso   1.000  H
  C14      1.0000 0.70020  0.90160  0.19720  Biso   1.000  C
  C15      1.0000 0.78180  0.96130  0.23730  Biso   1.000  C
  H16      1.0000 0.79060  0.93990  0.28050  Biso   1.000  H
  C16      1.0000 0.84620  0.04710  0.21450  Biso   1.000  C
  C17      1.0000 0.83380  0.08090  0.15240  Biso   1.000  C
  H17      1.0000 0.87880  0.14280  0.13770  Biso   1.000  H
  C18      1.0000 0.75650  0.02500  0.11200  Biso   1.000  C
  H18      1.0000 0.74880  0.04850  0.06930  Biso   1.000  H
  C19      1.0000 0.68920  0.93390  0.13317  Biso   1.000  C
  C20      1.0000 0.49630  0.59280  0.03392  Biso   1.000  C
  C21      1.0000 0.49510  0.43080  0.08901  Biso   1.000  C
  C22      1.0000 0.33940  0.42650  0.03000  Biso   1.000  C
  C23      1.0000 0.29430  0.59410  0.47103  Biso   1.000  C
  H19      1.0000 0.33620  0.57810  0.49313  Biso   1.000  H
  Fe2      1.0000 0.21686  0.71734  0.45010  Biso   1.000  Fe
  Cl3      1.0000 0.88122  0.82645  0.59678  Biso   1.000  Cl
  Cl4      1.0000 0.11900  0.24610  0.40111  Biso   1.000  Cl
  N6       1.0000 0.31060  0.67920  0.47951  Biso   1.000  N
  N7       1.0000 0.25180  0.80930  0.52872  Biso   1.000  N
  N8       1.0000 0.33790  0.84300  0.38717  Biso   1.000  N
  N9       1.0000 0.59510  0.85990  0.37883  Biso   1.000  N
  N10      1.0000 0.59830  0.10560  0.47257  Biso   1.000  N
  O3       1.0000 0.17910  0.62830  0.37770  Biso   1.000  O
  O4       1.0000 0.12070  0.74110  0.42364  Biso   1.000  O
  C24      1.0000 0.21970  0.52180  0.43169  Biso   1.000  C
  C25      1.0000 0.20480  0.43040  0.43503  Biso   1.000  C
  H20      1.0000 0.24030  0.41590  0.46633  Biso   1.000  H
  C26      1.0000 0.13920  0.36120  0.39353  Biso   1.000  C
  C27      1.0000 0.08820  0.38010  0.34713  Biso   1.000  C
  H21      1.0000 0.04280  0.33120  0.31863  Biso   1.000  H
  C28      1.0000 0.10310  0.46990  0.34203  Biso   1.000  C
  H22      1.0000 0.06880  0.48320  0.30883  Biso   1.000  H
  C29      1.0000 0.16720  0.54270  0.38434  Biso   1.000  C
  C30      1.0000 0.40030  0.74770  0.51283  Biso   1.000  C
  H23      1.0000 0.43950  0.79790  0.47953  Biso   1.000  H
  H24      1.0000 0.43520  0.71500  0.52573  Biso   1.000  H
  C31      1.0000 0.38630  0.79320  0.57663  Biso   1.000  C
  C32      1.0000 0.32250  0.71800  0.62743  Biso   1.000  C
  H25      1.0000 0.34860  0.67690  0.63793  Biso   1.000  H
  H26      1.0000 0.25940  0.68020  0.60753  Biso   1.000  H
  H27      1.0000 0.31830  0.74810  0.66963  Biso   1.000  H
  C33      1.0000 0.48360  0.85530  0.60723  Biso   1.000  C
  H28      1.0000 0.47910  0.89200  0.64523  Biso   1.000  H
  H29      1.0000 0.52610  0.89830  0.57203  Biso   1.000  H
  H30      1.0000 0.50840  0.81550  0.62433  Biso   1.000  H
  C34      1.0000 0.34730  0.85750  0.55803  Biso   1.000  C
  H31      1.0000 0.34700  0.89180  0.59973  Biso   1.000  H
  H32      1.0000 0.39070  0.90510  0.52463  Biso   1.000  H
  C35      1.0000 0.19000  0.82780  0.55500  Biso   1.000  C
  H33      1.0000 0.20870  0.86530  0.59533  Biso   1.000  H
  C36      1.0000 0.09840  0.79860  0.53053  Biso   1.000  C
  C37      1.0000 0.03870  0.82050  0.57063  Biso   1.000  C
  H34      1.0000 0.06010  0.85070  0.61383  Biso   1.000  H
  C38      1.0000 0.95290  0.79910  0.54783  Biso   1.000  C
  C39      1.0000 0.91910  0.75290  0.48573  Biso   1.000  C
  H35      1.0000 0.85720  0.73600  0.47103  Biso   1.000  H
  C40      1.0000 0.97500  0.73150  0.44533  Biso   1.000  C
  H36      1.0000 0.95150  0.70030  0.40263  Biso   1.000  H
  C41      1.0000 0.06610  0.75530  0.46650  Biso   1.000  C
  C42      1.0000 0.40720  0.90350  0.36725  Biso   1.000  C
  C43      1.0000 0.56920  0.06430  0.42234  Biso   1.000  C
  C44      1.0000 0.57350  0.91290  0.36333  Biso   1.000  C
  C45      1.0000 0.40590  0.70020  0.80437  Biso   1.000  C
  H37      1.0000 0.42190  0.75810  0.82647  Biso   1.000  H
  Fe3      1.0000 0.28266  0.49952  0.78344  Biso   1.000  Fe
  Cl5      1.0000 0.17355  0.05477  0.93012  Biso   1.000  Cl
  Cl6      1.0000 0.75390  0.87290  0.73445  Biso   1.000  Cl
  N11      1.0000 0.32080  0.63140  0.81285  Biso   1.000  N
  N12      1.0000 0.19070  0.44250  0.86206  Biso   1.000  N
  N13      1.0000 0.15700  0.49490  0.72051  Biso   1.000  N
  N14      1.0000 0.14010  0.73520  0.71217  Biso   1.000  N
  N15      1.0000 0.89440  0.49270  0.80591  Biso   1.000  N
  O5       1.0000 0.37170  0.55080  0.71104  Biso   1.000  O
  O6       1.0000 0.25890  0.37960  0.75698  Biso   1.000  O
  C46      1.0000 0.47820  0.69790  0.76503  Biso   1.000  C
  C47      1.0000 0.56960  0.77440  0.76837  Biso   1.000  C
  H38      1.0000 0.58410  0.82440  0.79967  Biso   1.000  H
  C48      1.0000 0.63880  0.77800  0.72687  Biso   1.000  C
  C49      1.0000 0.61990  0.70810  0.68047  Biso   1.000  C
  H39      1.0000 0.66880  0.71160  0.65197  Biso   1.000  H
  C50      1.0000 0.53010  0.63320  0.67537  Biso   1.000  C
  H40      1.0000 0.51680  0.58560  0.64217  Biso   1.000  H
  C51      1.0000 0.45730  0.62450  0.71768  Biso   1.000  C
  C52      1.0000 0.25230  0.65260  0.84617  Biso   1.000  C
  H41      1.0000 0.20210  0.64160  0.81287  Biso   1.000  H
  H42      1.0000 0.28500  0.72020  0.85907  Biso   1.000  H
  C53      1.0000 0.20680  0.59310  0.90997  Biso   1.000  C
  C54      1.0000 0.28200  0.60450  0.96077  Biso   1.000  C
  H43      1.0000 0.32310  0.67170  0.97127  Biso   1.000  H
  H44      1.0000 0.31980  0.57920  0.94087  Biso   1.000  H
  H45      1.0000 0.25190  0.57020  0.00297  Biso   1.000  H
  C55      1.0000 0.14470  0.62830  0.94057  Biso   1.000  C
  H46      1.0000 0.10800  0.58710  0.97857  Biso   1.000  H
  H47      1.0000 0.10170  0.62780  0.90537  Biso   1.000  H
  H48      1.0000 0.18450  0.69290  0.95767  Biso   1.000  H
  C56      1.0000 0.14250  0.48980  0.89137  Biso   1.000  C
  H49      1.0000 0.10820  0.45520  0.93307  Biso   1.000  H
  H50      1.0000 0.09490  0.48560  0.85797  Biso   1.000  H
  C57      1.0000 0.17220  0.36220  0.88834  Biso   1.000  C
  H51      1.0000 0.13470  0.34340  0.92867  Biso   1.000  H
  C58      1.0000 0.20140  0.29980  0.86387  Biso   1.000  C
  C59      1.0000 0.17950  0.21820  0.90397  Biso   1.000  C
  H52      1.0000 0.14930  0.20940  0.94717  Biso   1.000  H
  C60      1.0000 0.20090  0.15380  0.88117  Biso   1.000  C
  C61      1.0000 0.24710  0.16620  0.81907  Biso   1.000  C
  H53      1.0000 0.26400  0.12120  0.80437  Biso   1.000  H
  C62      1.0000 0.26850  0.24350  0.77867  Biso   1.000  C
  H54      1.0000 0.29970  0.25120  0.73597  Biso   1.000  H
  C63      1.0000 0.24470  0.31080  0.79984  Biso   1.000  C
  C64      1.0000 0.09650  0.50370  0.70059  Biso   1.000  C
  C65      1.0000 0.93570  0.50490  0.75568  Biso   1.000  C
  C66      1.0000 0.08710  0.66060  0.69667  Biso   1.000  C
  C67      1.0000 0.70570  0.29980  0.86230  Biso   1.000  C
  H55      1.0000 0.66380  0.24190  0.84020  Biso   1.000  H
  Fe4      1.0000 0.78314  0.50048  0.88323  Biso   1.000  Fe
  Cl7      1.0000 0.11878  0.94523  0.73655  Biso   1.000  Cl
  Cl8      1.0000 0.88100  0.12710  0.93222  Biso   1.000  Cl
  N16      1.0000 0.68940  0.36860  0.85382  Biso   1.000  N
  N17      1.0000 0.74820  0.55750  0.80461  Biso   1.000  N
  N18      1.0000 0.66210  0.50510  0.94616  Biso   1.000  N
  N19      1.0000 0.40490  0.26480  0.95450  Biso   1.000  N
  N20      1.0000 0.40170  0.50730  0.86076  Biso   1.000  N
  O7       1.0000 0.82090  0.44920  0.95563  Biso   1.000  O
  O8       1.0000 0.87930  0.62040  0.90969  Biso   1.000  O
  C68      1.0000 0.78030  0.30210  0.90164  Biso   1.000  C
  C69      1.0000 0.79520  0.22560  0.89830  Biso   1.000  C
  H56      1.0000 0.75970  0.17560  0.86700  Biso   1.000  H
  C70      1.0000 0.86080  0.22200  0.93980  Biso   1.000  C
  C71      1.0000 0.91180  0.29190  0.98620  Biso   1.000  C
  H57      1.0000 0.95720  0.28840  0.01470  Biso   1.000  H
  C72      1.0000 0.89690  0.36680  0.99130  Biso   1.000  C
  H58      1.0000 0.93120  0.41440  0.02450  Biso   1.000  H
  C73      1.0000 0.83280  0.37550  0.94899  Biso   1.000  C
  C74      1.0000 0.59970  0.34740  0.82050  Biso   1.000  C
  H59      1.0000 0.56050  0.35840  0.85380  Biso   1.000  H
  H60      1.0000 0.56480  0.27980  0.80760  Biso   1.000  H
  C75      1.0000 0.61370  0.40690  0.75670  Biso   1.000  C
  C76      1.0000 0.67750  0.39550  0.70590  Biso   1.000  C
  H61      1.0000 0.65140  0.32830  0.69540  Biso   1.000  H
  H62      1.0000 0.74060  0.42080  0.72580  Biso   1.000  H
  H63      1.0000 0.68170  0.42980  0.66370  Biso   1.000  H
  C77      1.0000 0.51640  0.37170  0.72610  Biso   1.000  C
  H64      1.0000 0.52090  0.41290  0.68810  Biso   1.000  H
  H65      1.0000 0.47390  0.37220  0.76130  Biso   1.000  H
  H66      1.0000 0.49160  0.30710  0.70900  Biso   1.000  H
  C78      1.0000 0.65270  0.51020  0.77530  Biso   1.000  C
  H67      1.0000 0.65300  0.54480  0.73360  Biso   1.000  H
  H68      1.0000 0.60930  0.51440  0.80870  Biso   1.000  H
  C79      1.0000 0.81000  0.63780  0.77833  Biso   1.000  C
  H69      1.0000 0.79130  0.65660  0.73800  Biso   1.000  H
  C80      1.0000 0.90160  0.70020  0.80280  Biso   1.000  C
  C81      1.0000 0.96130  0.78180  0.76270  Biso   1.000  C
  H70      1.0000 0.93990  0.79060  0.71950  Biso   1.000  H
  C82      1.0000 0.04710  0.84620  0.78550  Biso   1.000  C
  C83      1.0000 0.08090  0.83380  0.84760  Biso   1.000  C
  H71      1.0000 0.14280  0.87880  0.86230  Biso   1.000  H
  C84      1.0000 0.02500  0.75650  0.88800  Biso   1.000  C
  H72      1.0000 0.04850  0.74880  0.93070  Biso   1.000  H
  C85      1.0000 0.93390  0.68920  0.86683  Biso   1.000  C
  C86      1.0000 0.59280  0.49630  0.96608  Biso   1.000  C
  C87      1.0000 0.43080  0.49510  0.91099  Biso   1.000  C
  C88      1.0000 0.42650  0.33940  0.97000  Biso   1.000  C
  C89      1.0000 0.59410  0.29430  0.52897  Biso   1.000  C
  H73      1.0000 0.57810  0.33620  0.50687  Biso   1.000  H
  Fe5      1.0000 0.71734  0.21686  0.54990  Biso   1.000  Fe
  Cl9      1.0000 0.82645  0.88122  0.40322  Biso   1.000  Cl
  Cl10     1.0000 0.24610  0.11900  0.59889  Biso   1.000  Cl
  N21      1.0000 0.67920  0.31060  0.52049  Biso   1.000  N
  N22      1.0000 0.80930  0.25180  0.47128  Biso   1.000  N
  N23      1.0000 0.84300  0.33790  0.61283  Biso   1.000  N
  N24      1.0000 0.85990  0.59510  0.62117  Biso   1.000  N
  N25      1.0000 0.10560  0.59830  0.52743  Biso   1.000  N
  O9       1.0000 0.62830  0.17910  0.62230  Biso   1.000  O
  O10      1.0000 0.74110  0.12070  0.57636  Biso   1.000  O
  C90      1.0000 0.52180  0.21970  0.56831  Biso   1.000  C
  C91      1.0000 0.43040  0.20480  0.56497  Biso   1.000  C
  H74      1.0000 0.41590  0.24030  0.53367  Biso   1.000  H
  C92      1.0000 0.36120  0.13920  0.60647  Biso   1.000  C
  C93      1.0000 0.38010  0.08820  0.65287  Biso   1.000  C
  H75      1.0000 0.33120  0.04280  0.68137  Biso   1.000  H
  C94      1.0000 0.46990  0.10310  0.65797  Biso   1.000  C
  H76      1.0000 0.48320  0.06880  0.69117  Biso   1.000  H
  C95      1.0000 0.54270  0.16720  0.61566  Biso   1.000  C
  C96      1.0000 0.74770  0.40030  0.48717  Biso   1.000  C
  H77      1.0000 0.79790  0.43950  0.52047  Biso   1.000  H
  H78      1.0000 0.71500  0.43520  0.47427  Biso   1.000  H
  C97      1.0000 0.79320  0.38630  0.42337  Biso   1.000  C
  C98      1.0000 0.71800  0.32250  0.37257  Biso   1.000  C
  H79      1.0000 0.67690  0.34860  0.36207  Biso   1.000  H
  H80      1.0000 0.68020  0.25940  0.39247  Biso   1.000  H
  H81      1.0000 0.74810  0.31830  0.33037  Biso   1.000  H
  C99      1.0000 0.85530  0.48360  0.39277  Biso   1.000  C
  H82      1.0000 0.89200  0.47910  0.35477  Biso   1.000  H
  H83      1.0000 0.89830  0.52610  0.42797  Biso   1.000  H
  H84      1.0000 0.81550  0.50840  0.37567  Biso   1.000  H
  C100     1.0000 0.85750  0.34730  0.44197  Biso   1.000  C
  H85      1.0000 0.89180  0.34700  0.40027  Biso   1.000  H
  H86      1.0000 0.90510  0.39070  0.47537  Biso   1.000  H
  C101     1.0000 0.82780  0.19000  0.44500  Biso   1.000  C
  H87      1.0000 0.86530  0.20870  0.40467  Biso   1.000  H
  C102     1.0000 0.79860  0.09840  0.46947  Biso   1.000  C
  C103     1.0000 0.82050  0.03870  0.42937  Biso   1.000  C
  H88      1.0000 0.85070  0.06010  0.38617  Biso   1.000  H
  C104     1.0000 0.79910  0.95290  0.45217  Biso   1.000  C
  C105     1.0000 0.75290  0.91910  0.51427  Biso   1.000  C
  H89      1.0000 0.73600  0.85720  0.52897  Biso   1.000  H
  C106     1.0000 0.73150  0.97500  0.55467  Biso   1.000  C
  H90      1.0000 0.70030  0.95150  0.59737  Biso   1.000  H
  C107     1.0000 0.75530  0.06610  0.53350  Biso   1.000  C
  C108     1.0000 0.90350  0.40720  0.63275  Biso   1.000  C
  C109     1.0000 0.06430  0.56920  0.57766  Biso   1.000  C
  C110     1.0000 0.91290  0.57350  0.63667  Biso   1.000  C
  C111     1.0000 0.70020  0.40590  0.19563  Biso   1.000  C
  H91      1.0000 0.75810  0.42190  0.17353  Biso   1.000  H
  Fe6      1.0000 0.49952  0.28266  0.21656  Biso   1.000  Fe
  Cl11     1.0000 0.05477  0.17355  0.06988  Biso   1.000  Cl
  Cl12     1.0000 0.87290  0.75390  0.26555  Biso   1.000  Cl
  N26      1.0000 0.63140  0.32080  0.18715  Biso   1.000  N
  N27      1.0000 0.44250  0.19070  0.13794  Biso   1.000  N
  N28      1.0000 0.49490  0.15700  0.27949  Biso   1.000  N
  N29      1.0000 0.73520  0.14010  0.28783  Biso   1.000  N
  N30      1.0000 0.49270  0.89440  0.19409  Biso   1.000  N
  O11      1.0000 0.55080  0.37170  0.28896  Biso   1.000  O
  O12      1.0000 0.37960  0.25890  0.24302  Biso   1.000  O
  C112     1.0000 0.69790  0.47820  0.23497  Biso   1.000  C
  C113     1.0000 0.77440  0.56960  0.23163  Biso   1.000  C
  H92      1.0000 0.82440  0.58410  0.20033  Biso   1.000  H
  C114     1.0000 0.77800  0.63880  0.27313  Biso   1.000  C
  C115     1.0000 0.70810  0.61990  0.31953  Biso   1.000  C
  H93      1.0000 0.71160  0.66880  0.34803  Biso   1.000  H
  C116     1.0000 0.63320  0.53010  0.32463  Biso   1.000  C
  H94      1.0000 0.58560  0.51680  0.35783  Biso   1.000  H
  C117     1.0000 0.62450  0.45730  0.28232  Biso   1.000  C
  C118     1.0000 0.65260  0.25230  0.15383  Biso   1.000  C
  H95      1.0000 0.64160  0.20210  0.18713  Biso   1.000  H
  H96      1.0000 0.72020  0.28500  0.14093  Biso   1.000  H
  C119     1.0000 0.59310  0.20680  0.09003  Biso   1.000  C
  C120     1.0000 0.60450  0.28200  0.03923  Biso   1.000  C
  H97      1.0000 0.67170  0.32310  0.02873  Biso   1.000  H
  H98      1.0000 0.57920  0.31980  0.05913  Biso   1.000  H
  H99      1.0000 0.57020  0.25190  0.99703  Biso   1.000  H
  C121     1.0000 0.62830  0.14470  0.05943  Biso   1.000  C
  H100     1.0000 0.58710  0.10800  0.02143  Biso   1.000  H
  H101     1.0000 0.62780  0.10170  0.09463  Biso   1.000  H
  H102     1.0000 0.69290  0.18450  0.04233  Biso   1.000  H
  C122     1.0000 0.48980  0.14250  0.10863  Biso   1.000  C
  H103     1.0000 0.45520  0.10820  0.06693  Biso   1.000  H
  H104     1.0000 0.48560  0.09490  0.14203  Biso   1.000  H
  C123     1.0000 0.36220  0.17220  0.11166  Biso   1.000  C
  H105     1.0000 0.34340  0.13470  0.07133  Biso   1.000  H
  C124     1.0000 0.29980  0.20140  0.13613  Biso   1.000  C
  C125     1.0000 0.21820  0.17950  0.09603  Biso   1.000  C
  H106     1.0000 0.20940  0.14930  0.05283  Biso   1.000  H
  C126     1.0000 0.15380  0.20090  0.11883  Biso   1.000  C
  C127     1.0000 0.16620  0.24710  0.18093  Biso   1.000  C
  H107     1.0000 0.12120  0.26400  0.19563  Biso   1.000  H
  C128     1.0000 0.24350  0.26850  0.22133  Biso   1.000  C
  H108     1.0000 0.25120  0.29970  0.26403  Biso   1.000  H
  C129     1.0000 0.31080  0.24470  0.20016  Biso   1.000  C
  C130     1.0000 0.50370  0.09650  0.29941  Biso   1.000  C
  C131     1.0000 0.50490  0.93570  0.24432  Biso   1.000  C
  C132     1.0000 0.66060  0.08710  0.30333  Biso   1.000  C
  Fe7      1.0000 0.46699  0.46699  0.00000  Biso   1.000  Fe
  Fe8      1.0000 0.53301  0.00000  0.33333  Biso   1.000  Fe
  Fe9      1.0000 0.00000  0.53301  0.66667  Biso   1.000  Fe
