data_image0
_cell_length_a       7.785
_cell_length_b       10.238
_cell_length_c       15.851
_cell_angle_alpha    90
_cell_angle_beta     90
_cell_angle_gamma    90

_symmetry_space_group_name_H-M    P 1
_symmetry_int_tables_number       1

loop_
  _symmetry_equiv_pos_as_xyz
  'x, y, z'

loop_
  _atom_site_label
  _atom_site_occupancy
  _atom_site_fract_x
  _atom_site_fract_y
  _atom_site_fract_z
  _atom_site_thermal_displace_type
  _atom_site_B_iso_or_equiv
  _atom_site_type_symbol
  Fe1      1.0000 0.63812  0.52983  0.90166  Biso   1.000  Fe
  Fe2      1.0000 0.36188  0.47017  0.40166  Biso   1.000  Fe
  Fe3      1.0000 0.13812  0.97017  0.90166  Biso   1.000  Fe
  Fe4      1.0000 0.86188  0.02983  0.40166  Biso   1.000  Fe
  H1       1.0000 0.58600  0.94930  0.71070  Biso   1.000  H
  H2       1.0000 0.45080  0.41120  0.58640  Biso   1.000  H
  H3       1.0000 0.34240  0.75160  0.48540  Biso   1.000  H
  H4       1.0000 0.44430  0.85990  0.60270  Biso   1.000  H
  H5       1.0000 0.56340  0.50910  0.70450  Biso   1.000  H
  H6       1.0000 0.77400  0.32400  0.84210  Biso   1.000  H
  H7       1.0000 0.90100  0.38100  0.84660  Biso   1.000  H
  H8       1.0000 0.41400  0.05070  0.21070  Biso   1.000  H
  H9       1.0000 0.54920  0.58880  0.08640  Biso   1.000  H
  H10      1.0000 0.65760  0.24840  0.98540  Biso   1.000  H
  H11      1.0000 0.55570  0.14010  0.10270  Biso   1.000  H
  H12      1.0000 0.43660  0.49090  0.20450  Biso   1.000  H
  H13      1.0000 0.22600  0.67600  0.34210  Biso   1.000  H
  H14      1.0000 0.09900  0.61900  0.34660  Biso   1.000  H
  H15      1.0000 0.08600  0.55070  0.71070  Biso   1.000  H
  H16      1.0000 0.95080  0.08880  0.58640  Biso   1.000  H
  H17      1.0000 0.84240  0.74840  0.48540  Biso   1.000  H
  H18      1.0000 0.94430  0.64010  0.60270  Biso   1.000  H
  H19      1.0000 0.06340  0.99090  0.70450  Biso   1.000  H
  H20      1.0000 0.27400  0.17600  0.84210  Biso   1.000  H
  H21      1.0000 0.40100  0.11900  0.84660  Biso   1.000  H
  H22      1.0000 0.91400  0.44930  0.21070  Biso   1.000  H
  H23      1.0000 0.04920  0.91120  0.08640  Biso   1.000  H
  H24      1.0000 0.15760  0.25160  0.98540  Biso   1.000  H
  H25      1.0000 0.05570  0.35990  0.10270  Biso   1.000  H
  H26      1.0000 0.93660  0.00910  0.20450  Biso   1.000  H
  H27      1.0000 0.72600  0.82400  0.34210  Biso   1.000  H
  H28      1.0000 0.59900  0.88100  0.34660  Biso   1.000  H
  C1       1.0000 0.45300  0.50390  0.58913  Biso   1.000  C
  C2       1.0000 0.38890  0.70190  0.53056  Biso   1.000  C
  C3       1.0000 0.45040  0.76740  0.59996  Biso   1.000  C
  C4       1.0000 0.51930  0.56130  0.65991  Biso   1.000  C
  C5       1.0000 0.52150  0.69670  0.66600  Biso   1.000  C
  C6       1.0000 0.60540  0.75910  0.73815  Biso   1.000  C
  C7       1.0000 0.73240  0.91300  0.81253  Biso   1.000  C
  C8       1.0000 0.76500  0.79120  0.84698  Biso   1.000  C
  C9       1.0000 0.78080  0.05020  0.83547  Biso   1.000  C
  C10      1.0000 0.86680  0.75110  0.92164  Biso   1.000  C
  C11      1.0000 0.54700  0.49610  0.08913  Biso   1.000  C
  C12      1.0000 0.61110  0.29810  0.03056  Biso   1.000  C
  C13      1.0000 0.54960  0.23260  0.09996  Biso   1.000  C
  C14      1.0000 0.48070  0.43870  0.15991  Biso   1.000  C
  C15      1.0000 0.47850  0.30330  0.16600  Biso   1.000  C
  C16      1.0000 0.39460  0.24090  0.23815  Biso   1.000  C
  C17      1.0000 0.26760  0.08700  0.31253  Biso   1.000  C
  C18      1.0000 0.23500  0.20880  0.34698  Biso   1.000  C
  C19      1.0000 0.21920  0.94980  0.33547  Biso   1.000  C
  C20      1.0000 0.13320  0.24890  0.42164  Biso   1.000  C
  C21      1.0000 0.95300  0.99610  0.58913  Biso   1.000  C
  C22      1.0000 0.88890  0.79810  0.53056  Biso   1.000  C
  C23      1.0000 0.95040  0.73260  0.59996  Biso   1.000  C
  C24      1.0000 0.01930  0.93870  0.65991  Biso   1.000  C
  C25      1.0000 0.02150  0.80330  0.66600  Biso   1.000  C
  C26      1.0000 0.10540  0.74090  0.73815  Biso   1.000  C
  C27      1.0000 0.23240  0.58700  0.81253  Biso   1.000  C
  C28      1.0000 0.26500  0.70880  0.84698  Biso   1.000  C
  C29      1.0000 0.28080  0.44980  0.83547  Biso   1.000  C
  C30      1.0000 0.36680  0.74890  0.92164  Biso   1.000  C
  C31      1.0000 0.04700  0.00390  0.08913  Biso   1.000  C
  C32      1.0000 0.11110  0.20190  0.03056  Biso   1.000  C
  C33      1.0000 0.04960  0.26740  0.09996  Biso   1.000  C
  C34      1.0000 0.98070  0.06130  0.15991  Biso   1.000  C
  C35      1.0000 0.97850  0.19670  0.16600  Biso   1.000  C
  C36      1.0000 0.89460  0.25910  0.23815  Biso   1.000  C
  C37      1.0000 0.76760  0.41300  0.31253  Biso   1.000  C
  C38      1.0000 0.73500  0.29120  0.34698  Biso   1.000  C
  C39      1.0000 0.71920  0.55020  0.33547  Biso   1.000  C
  C40      1.0000 0.63320  0.25110  0.42164  Biso   1.000  C
  N1       1.0000 0.39100  0.57180  0.52328  Biso   1.000  N
  N2       1.0000 0.62940  0.88968  0.74455  Biso   1.000  N
  N3       1.0000 0.68220  0.69604  0.80050  Biso   1.000  N
  N4       1.0000 0.60900  0.42820  0.02328  Biso   1.000  N
  N5       1.0000 0.37060  0.11032  0.24455  Biso   1.000  N
  N6       1.0000 0.31780  0.30396  0.30050  Biso   1.000  N
  N7       1.0000 0.89100  0.92820  0.52328  Biso   1.000  N
  N8       1.0000 0.12940  0.61032  0.74455  Biso   1.000  N
  N9       1.0000 0.18220  0.80396  0.80050  Biso   1.000  N
  N10      1.0000 0.10900  0.07180  0.02328  Biso   1.000  N
  N11      1.0000 0.87060  0.38968  0.24455  Biso   1.000  N
  N12      1.0000 0.81780  0.19604  0.30050  Biso   1.000  N
  O1       1.0000 0.66520  0.13332  0.82898  Biso   1.000  O
  O2       1.0000 0.93220  0.07457  0.85673  Biso   1.000  O
  O3       1.0000 0.97050  0.82871  0.95412  Biso   1.000  O
  O4       1.0000 0.84480  0.63518  0.94765  Biso   1.000  O
  O5       1.0000 0.79950  0.38465  0.84591  Biso   1.000  O
  O6       1.0000 0.33480  0.86668  0.32898  Biso   1.000  O
  O7       1.0000 0.06780  0.92543  0.35673  Biso   1.000  O
  O8       1.0000 0.02950  0.17129  0.45412  Biso   1.000  O
  O9       1.0000 0.15520  0.36482  0.44765  Biso   1.000  O
  O10      1.0000 0.20050  0.61535  0.34591  Biso   1.000  O
  O11      1.0000 0.16520  0.36668  0.82898  Biso   1.000  O
  O12      1.0000 0.43220  0.42543  0.85673  Biso   1.000  O
  O13      1.0000 0.47050  0.67129  0.95412  Biso   1.000  O
  O14      1.0000 0.34480  0.86482  0.94765  Biso   1.000  O
  O15      1.0000 0.29950  0.11535  0.84591  Biso   1.000  O
  O16      1.0000 0.83480  0.63332  0.32898  Biso   1.000  O
  O17      1.0000 0.56780  0.57457  0.35673  Biso   1.000  O
  O18      1.0000 0.52950  0.32871  0.45412  Biso   1.000  O
  O19      1.0000 0.65520  0.13518  0.44765  Biso   1.000  O
  O20      1.0000 0.70050  0.88465  0.34591  Biso   1.000  O
