data_image0
_cell_length_a       11.521
_cell_length_b       14.008
_cell_length_c       15.701
_cell_angle_alpha    96.679
_cell_angle_beta     90
_cell_angle_gamma    90

_symmetry_space_group_name_H-M    P 1
_symmetry_int_tables_number       1

loop_
  _symmetry_equiv_pos_as_xyz
  'x, y, z'

loop_
  _atom_site_label
  _atom_site_occupancy
  _atom_site_fract_x
  _atom_site_fract_y
  _atom_site_fract_z
  _atom_site_thermal_displace_type
  _atom_site_B_iso_or_equiv
  _atom_site_type_symbol
  Zn1      1.0000 0.09520  0.19570  0.98308  Biso   1.000  Zn
  Zn2      1.0000 0.09560  0.40460  0.00210  Biso   1.000  Zn
  H1       1.0000 0.40690  0.17990  0.15160  Biso   1.000  H
  H2       1.0000 0.52020  0.17460  0.27470  Biso   1.000  H
  H3       1.0000 0.38900  0.43190  0.37470  Biso   1.000  H
  H4       1.0000 0.27580  0.43720  0.25160  Biso   1.000  H
  H5       1.0000 0.79640  0.29660  0.49560  Biso   1.000  H
  H6       1.0000 0.39910  0.27760  0.48340  Biso   1.000  H
  H7       1.0000 0.81050  0.41250  0.63670  Biso   1.000  H
  H8       1.0000 0.92650  0.41210  0.76600  Biso   1.000  H
  H9       1.0000 0.76450  0.16770  0.80720  Biso   1.000  H
  H10      1.0000 0.66000  0.16570  0.68540  Biso   1.000  H
  H11      1.0000 0.80160  0.16420  0.32800  Biso   1.000  H
  H12      1.0000 0.89860  0.17020  0.21030  Biso   1.000  H
  H13      1.0000 0.77170  0.42850  0.18640  Biso   1.000  H
  H14      1.0000 0.65950  0.41560  0.31070  Biso   1.000  H
  H15      1.0000 0.36840  0.16780  0.60970  Biso   1.000  H
  H16      1.0000 0.28720  0.15470  0.73600  Biso   1.000  H
  H17      1.0000 0.40440  0.41970  0.82730  Biso   1.000  H
  H18      1.0000 0.53370  0.40280  0.71720  Biso   1.000  H
  H19      1.0000 0.27210  0.56780  0.99120  Biso   1.000  H
  H20      1.0000 0.26780  0.71680  0.02850  Biso   1.000  H
  H21      1.0000 0.91740  0.73880  0.99860  Biso   1.000  H
  H22      1.0000 0.93280  0.56490  0.02100  Biso   1.000  H
  H23      1.0000 0.26500  0.85220  0.97240  Biso   1.000  H
  H24      1.0000 0.25100  0.03520  0.92860  Biso   1.000  H
  H25      1.0000 0.95200  0.03880  0.03750  Biso   1.000  H
  H26      1.0000 0.94100  0.87860  0.07380  Biso   1.000  H
  C1       1.0000 0.24000  0.31300  0.11400  Biso   1.000  C
  C2       1.0000 0.33070  0.30900  0.19000  Biso   1.000  C
  C3       1.0000 0.40330  0.23100  0.19690  Biso   1.000  C
  C4       1.0000 0.47060  0.22790  0.27000  Biso   1.000  C
  C5       1.0000 0.46520  0.30270  0.33630  Biso   1.000  C
  C6       1.0000 0.39270  0.38070  0.32940  Biso   1.000  C
  C7       1.0000 0.32540  0.38390  0.25630  Biso   1.000  C
  C8       1.0000 0.53200  0.28100  0.41500  Biso   1.000  C
  C9       1.0000 0.64900  0.30200  0.41100  Biso   1.000  C
  C10      1.0000 0.71400  0.29200  0.49300  Biso   1.000  C
  C11      1.0000 0.65000  0.27500  0.56600  Biso   1.000  C
  C12      1.0000 0.52500  0.29500  0.56900  Biso   1.000  C
  C13      1.0000 0.48100  0.28400  0.48700  Biso   1.000  C
  C14      1.0000 0.72700  0.28800  0.65000  Biso   1.000  C
  C15      1.0000 0.80400  0.36200  0.67200  Biso   1.000  C
  C16      1.0000 0.87400  0.36100  0.74800  Biso   1.000  C
  C17      1.0000 0.86200  0.28600  0.78900  Biso   1.000  C
  C18      1.0000 0.77700  0.21600  0.77000  Biso   1.000  C
  C19      1.0000 0.71400  0.21600  0.70100  Biso   1.000  C
  C20      1.0000 0.73200  0.29300  0.33300  Biso   1.000  C
  C21      1.0000 0.79900  0.22100  0.30100  Biso   1.000  C
  C22      1.0000 0.86000  0.22700  0.23500  Biso   1.000  C
  C23      1.0000 0.87400  0.30400  0.19700  Biso   1.000  C
  C24      1.0000 0.78300  0.37700  0.22000  Biso   1.000  C
  C25      1.0000 0.71600  0.36800  0.29200  Biso   1.000  C
  C26      1.0000 0.46400  0.27600  0.64700  Biso   1.000  C
  C27      1.0000 0.38600  0.21500  0.65700  Biso   1.000  C
  C28      1.0000 0.32800  0.21200  0.72900  Biso   1.000  C
  C29      1.0000 0.31900  0.29700  0.80600  Biso   1.000  C
  C30      1.0000 0.39900  0.36300  0.78800  Biso   1.000  C
  C31      1.0000 0.47400  0.35600  0.71900  Biso   1.000  C
  C32      1.0000 0.20100  0.60100  0.00190  Biso   1.000  C
  C33      1.0000 0.19700  0.68500  0.01200  Biso   1.000  C
  C34      1.0000 0.10100  0.74500  0.00230  Biso   1.000  C
  C35      1.0000 0.98900  0.70500  0.00270  Biso   1.000  C
  C36      1.0000 0.00200  0.59900  0.01100  Biso   1.000  C
  C37      1.0000 0.08500  0.85200  0.00100  Biso   1.000  C
  C38      1.0000 0.19600  0.88900  0.97700  Biso   1.000  C
  C39      1.0000 0.19000  0.00600  0.95700  Biso   1.000  C
  C40      1.0000 0.01800  0.00100  0.02000  Biso   1.000  C
  C41      1.0000 0.00100  0.90200  0.04000  Biso   1.000  C
  C42      1.0000 0.24600  0.29600  0.86900  Biso   1.000  C
  C43      1.0000 0.93700  0.30600  0.11600  Biso   1.000  C
  C44      1.0000 0.94600  0.28300  0.87500  Biso   1.000  C
  N1       1.0000 0.09700  0.54990  0.00620  Biso   1.000  N
  N2       1.0000 0.09400  0.05530  0.98570  Biso   1.000  N
  O1       1.0000 0.22900  0.38500  0.08620  Biso   1.000  O
  O2       1.0000 0.22910  0.22320  0.06740  Biso   1.000  O
  O3       1.0000 0.23200  0.37600  0.91970  Biso   1.000  O
  O4       1.0000 0.23380  0.20900  0.90360  Biso   1.000  O
  O5       1.0000 0.99120  0.23470  0.08540  Biso   1.000  O
  O6       1.0000 0.98600  0.39000  0.10120  Biso   1.000  O
  O7       1.0000 0.98330  0.36400  0.90470  Biso   1.000  O
  O8       1.0000 0.98340  0.21600  0.88770  Biso   1.000  O
  Zn3      1.0000 0.59520  0.80430  0.01692  Biso   1.000  Zn
  Zn4      1.0000 0.59560  0.59540  0.99790  Biso   1.000  Zn
  H27      1.0000 0.90690  0.82010  0.84840  Biso   1.000  H
  H28      1.0000 0.02020  0.82540  0.72530  Biso   1.000  H
  H29      1.0000 0.88900  0.56810  0.62530  Biso   1.000  H
  H30      1.0000 0.77580  0.56280  0.74840  Biso   1.000  H
  H31      1.0000 0.29640  0.70340  0.50440  Biso   1.000  H
  H32      1.0000 0.89910  0.72240  0.51660  Biso   1.000  H
  H33      1.0000 0.31050  0.58750  0.36330  Biso   1.000  H
  H34      1.0000 0.42650  0.58790  0.23400  Biso   1.000  H
  H35      1.0000 0.26450  0.83230  0.19280  Biso   1.000  H
  H36      1.0000 0.16000  0.83430  0.31460  Biso   1.000  H
  H37      1.0000 0.30160  0.83580  0.67200  Biso   1.000  H
  H38      1.0000 0.39860  0.82980  0.78970  Biso   1.000  H
  H39      1.0000 0.27170  0.57150  0.81360  Biso   1.000  H
  H40      1.0000 0.15950  0.58440  0.68930  Biso   1.000  H
  H41      1.0000 0.86840  0.83220  0.39030  Biso   1.000  H
  H42      1.0000 0.78720  0.84530  0.26400  Biso   1.000  H
  H43      1.0000 0.90440  0.58030  0.17270  Biso   1.000  H
  H44      1.0000 0.03370  0.59720  0.28280  Biso   1.000  H
  H45      1.0000 0.77210  0.43220  0.00880  Biso   1.000  H
  H46      1.0000 0.76780  0.28320  0.97150  Biso   1.000  H
  H47      1.0000 0.41740  0.26120  0.00140  Biso   1.000  H
  H48      1.0000 0.43280  0.43510  0.97900  Biso   1.000  H
  H49      1.0000 0.76500  0.14780  0.02760  Biso   1.000  H
  H50      1.0000 0.75100  0.96480  0.07140  Biso   1.000  H
  H51      1.0000 0.45200  0.96120  0.96250  Biso   1.000  H
  H52      1.0000 0.44100  0.12140  0.92620  Biso   1.000  H
  C45      1.0000 0.74000  0.68700  0.88600  Biso   1.000  C
  C46      1.0000 0.83070  0.69100  0.81000  Biso   1.000  C
  C47      1.0000 0.90330  0.76900  0.80310  Biso   1.000  C
  C48      1.0000 0.97060  0.77210  0.73000  Biso   1.000  C
  C49      1.0000 0.96520  0.69730  0.66370  Biso   1.000  C
  C50      1.0000 0.89270  0.61930  0.67060  Biso   1.000  C
  C51      1.0000 0.82540  0.61610  0.74370  Biso   1.000  C
  C52      1.0000 0.03200  0.71900  0.58500  Biso   1.000  C
  C53      1.0000 0.14900  0.69800  0.58900  Biso   1.000  C
  C54      1.0000 0.21400  0.70800  0.50700  Biso   1.000  C
  C55      1.0000 0.15000  0.72500  0.43400  Biso   1.000  C
  C56      1.0000 0.02500  0.70500  0.43100  Biso   1.000  C
  C57      1.0000 0.98100  0.71600  0.51300  Biso   1.000  C
  C58      1.0000 0.22700  0.71200  0.35000  Biso   1.000  C
  C59      1.0000 0.30400  0.63800  0.32800  Biso   1.000  C
  C60      1.0000 0.37400  0.63900  0.25200  Biso   1.000  C
  C61      1.0000 0.36200  0.71400  0.21100  Biso   1.000  C
  C62      1.0000 0.27700  0.78400  0.23000  Biso   1.000  C
  C63      1.0000 0.21400  0.78400  0.29900  Biso   1.000  C
  C64      1.0000 0.23200  0.70700  0.66700  Biso   1.000  C
  C65      1.0000 0.29900  0.77900  0.69900  Biso   1.000  C
  C66      1.0000 0.36000  0.77300  0.76500  Biso   1.000  C
  C67      1.0000 0.37400  0.69600  0.80300  Biso   1.000  C
  C68      1.0000 0.28300  0.62300  0.78000  Biso   1.000  C
  C69      1.0000 0.21600  0.63200  0.70800  Biso   1.000  C
  C70      1.0000 0.96400  0.72400  0.35300  Biso   1.000  C
  C71      1.0000 0.88600  0.78500  0.34300  Biso   1.000  C
  C72      1.0000 0.82800  0.78800  0.27100  Biso   1.000  C
  C73      1.0000 0.81900  0.70300  0.19400  Biso   1.000  C
  C74      1.0000 0.89900  0.63700  0.21200  Biso   1.000  C
  C75      1.0000 0.97400  0.64400  0.28100  Biso   1.000  C
  C76      1.0000 0.70100  0.39900  0.99810  Biso   1.000  C
  C77      1.0000 0.69700  0.31500  0.98800  Biso   1.000  C
  C78      1.0000 0.60100  0.25500  0.99770  Biso   1.000  C
  C79      1.0000 0.48900  0.29500  0.99730  Biso   1.000  C
  C80      1.0000 0.50200  0.40100  0.98900  Biso   1.000  C
  C81      1.0000 0.58500  0.14800  0.99900  Biso   1.000  C
  C82      1.0000 0.69600  0.11100  0.02300  Biso   1.000  C
  C83      1.0000 0.69000  0.99400  0.04300  Biso   1.000  C
  C84      1.0000 0.51800  0.99900  0.98000  Biso   1.000  C
  C85      1.0000 0.50100  0.09800  0.96000  Biso   1.000  C
  C86      1.0000 0.74600  0.70400  0.13100  Biso   1.000  C
  C87      1.0000 0.43700  0.69400  0.88400  Biso   1.000  C
  C88      1.0000 0.44600  0.71700  0.12500  Biso   1.000  C
  N3       1.0000 0.59700  0.45010  0.99380  Biso   1.000  N
  N4       1.0000 0.59400  0.94470  0.01430  Biso   1.000  N
  O9       1.0000 0.72900  0.61500  0.91380  Biso   1.000  O
  O10      1.0000 0.72910  0.77680  0.93260  Biso   1.000  O
  O11      1.0000 0.73200  0.62400  0.08030  Biso   1.000  O
  O12      1.0000 0.73380  0.79100  0.09640  Biso   1.000  O
  O13      1.0000 0.49120  0.76530  0.91460  Biso   1.000  O
  O14      1.0000 0.48600  0.61000  0.89880  Biso   1.000  O
  O15      1.0000 0.48330  0.63600  0.09530  Biso   1.000  O
  O16      1.0000 0.48340  0.78400  0.11230  Biso   1.000  O
