data_image0
_cell_length_a       11.6151
_cell_length_b       15.648
_cell_length_c       18.163
_cell_angle_alpha    90
_cell_angle_beta     93.202
_cell_angle_gamma    90

_symmetry_space_group_name_H-M    P 1
_symmetry_int_tables_number       1

loop_
  _symmetry_equiv_pos_as_xyz
  'x, y, z'

loop_
  _atom_site_label
  _atom_site_occupancy
  _atom_site_fract_x
  _atom_site_fract_y
  _atom_site_fract_z
  _atom_site_thermal_displace_type
  _atom_site_B_iso_or_equiv
  _atom_site_type_symbol
  Zn1      1.0000 0.99238  0.00000  0.91893  Biso   1.000  Zn
  Zn2      1.0000 0.00762  0.00000  0.08107  Biso   1.000  Zn
  H1       1.0000 0.74240  0.79540  0.88880  Biso   1.000  H
  H2       1.0000 0.75800  0.79800  0.11000  Biso   1.000  H
  H3       1.0000 0.64880  0.67170  0.10980  Biso   1.000  H
  H4       1.0000 0.62100  0.67180  0.89310  Biso   1.000  H
  H5       1.0000 0.25760  0.79540  0.11120  Biso   1.000  H
  H6       1.0000 0.24200  0.79800  0.89000  Biso   1.000  H
  H7       1.0000 0.35120  0.67170  0.89020  Biso   1.000  H
  H8       1.0000 0.37900  0.67180  0.10690  Biso   1.000  H
  H9       1.0000 0.25760  0.20460  0.11120  Biso   1.000  H
  H10      1.0000 0.24200  0.20200  0.89000  Biso   1.000  H
  H11      1.0000 0.35120  0.32830  0.89020  Biso   1.000  H
  H12      1.0000 0.37900  0.32820  0.10690  Biso   1.000  H
  H13      1.0000 0.74240  0.20460  0.88880  Biso   1.000  H
  H14      1.0000 0.75800  0.20200  0.11000  Biso   1.000  H
  H15      1.0000 0.64880  0.32830  0.10980  Biso   1.000  H
  H16      1.0000 0.62100  0.32820  0.89310  Biso   1.000  H
  H17      1.0000 0.15980  0.00000  0.80260  Biso   1.000  H
  H18      1.0000 0.82700  0.00000  0.78990  Biso   1.000  H
  H19      1.0000 0.16710  0.00000  0.67890  Biso   1.000  H
  H20      1.0000 0.82350  0.00000  0.66340  Biso   1.000  H
  H21      1.0000 0.84020  0.00000  0.19740  Biso   1.000  H
  H22      1.0000 0.17300  0.00000  0.21010  Biso   1.000  H
  H23      1.0000 0.83290  0.00000  0.32110  Biso   1.000  H
  H24      1.0000 0.17650  0.00000  0.33660  Biso   1.000  H
  C1       1.0000 0.76480  0.80590  0.00000  Biso   1.000  C
  C2       1.0000 0.84850  0.88440  0.00100  Biso   1.000  C
  C3       1.0000 0.56260  0.57770  0.99950  Biso   1.000  C
  C4       1.0000 0.62660  0.66070  0.99990  Biso   1.000  C
  C5       1.0000 0.72410  0.77150  0.93350  Biso   1.000  C
  C6       1.0000 0.73430  0.77190  0.06570  Biso   1.000  C
  C7       1.0000 0.66640  0.69670  0.06550  Biso   1.000  C
  C8       1.0000 0.65110  0.69590  0.93680  Biso   1.000  C
  C9       1.0000 0.23520  0.80590  0.00000  Biso   1.000  C
  C10      1.0000 0.15150  0.88440  0.99900  Biso   1.000  C
  C11      1.0000 0.43740  0.57770  0.00050  Biso   1.000  C
  C12      1.0000 0.37340  0.66070  0.00010  Biso   1.000  C
  C13      1.0000 0.27590  0.77150  0.06650  Biso   1.000  C
  C14      1.0000 0.26570  0.77190  0.93430  Biso   1.000  C
  C15      1.0000 0.33360  0.69670  0.93450  Biso   1.000  C
  C16      1.0000 0.34890  0.69590  0.06320  Biso   1.000  C
  C17      1.0000 0.23520  0.19410  0.00000  Biso   1.000  C
  C18      1.0000 0.15150  0.11560  0.99900  Biso   1.000  C
  C19      1.0000 0.43740  0.42230  0.00050  Biso   1.000  C
  C20      1.0000 0.37340  0.33930  0.00010  Biso   1.000  C
  C21      1.0000 0.27590  0.22850  0.06650  Biso   1.000  C
  C22      1.0000 0.26570  0.22810  0.93430  Biso   1.000  C
  C23      1.0000 0.33360  0.30330  0.93450  Biso   1.000  C
  C24      1.0000 0.34890  0.30410  0.06320  Biso   1.000  C
  C25      1.0000 0.76480  0.19410  0.00000  Biso   1.000  C
  C26      1.0000 0.84850  0.11560  0.00100  Biso   1.000  C
  C27      1.0000 0.56260  0.42230  0.99950  Biso   1.000  C
  C28      1.0000 0.62660  0.33930  0.99990  Biso   1.000  C
  C29      1.0000 0.72410  0.22850  0.93350  Biso   1.000  C
  C30      1.0000 0.73430  0.22810  0.06570  Biso   1.000  C
  C31      1.0000 0.66640  0.30330  0.06550  Biso   1.000  C
  C32      1.0000 0.65110  0.30410  0.93680  Biso   1.000  C
  C33      1.0000 0.09020  0.00000  0.77470  Biso   1.000  C
  C34      1.0000 0.89690  0.00000  0.76730  Biso   1.000  C
  C35      1.0000 0.09540  0.00000  0.69920  Biso   1.000  C
  C36      1.0000 0.99721  0.00000  0.65290  Biso   1.000  C
  C37      1.0000 0.89410  0.00000  0.69020  Biso   1.000  C
  C38      1.0000 0.99872  0.00000  0.56990  Biso   1.000  C
  C39      1.0000 0.90980  0.00000  0.22530  Biso   1.000  C
  C40      1.0000 0.10310  0.00000  0.23270  Biso   1.000  C
  C41      1.0000 0.90460  0.00000  0.30080  Biso   1.000  C
  C42      1.0000 0.00279  0.00000  0.34710  Biso   1.000  C
  C43      1.0000 0.10590  0.00000  0.30980  Biso   1.000  C
  C44      1.0000 0.00128  0.00000  0.43010  Biso   1.000  C
  C45      1.0000 0.61560  0.50000  0.00290  Biso   1.000  C
  C46      1.0000 0.38440  0.50000  0.99710  Biso   1.000  C
  Br1      1.0000 0.78067  0.50000  0.99938  Biso   1.000  Br
  Br2      1.0000 0.21933  0.50000  0.00062  Biso   1.000  Br
  N1       1.0000 0.99434  0.00000  0.81070  Biso   1.000  N
  N2       1.0000 0.09980  0.00000  0.53870  Biso   1.000  N
  N3       1.0000 0.89690  0.00000  0.53280  Biso   1.000  N
  N4       1.0000 0.00566  0.00000  0.18930  Biso   1.000  N
  N5       1.0000 0.90020  0.00000  0.46130  Biso   1.000  N
  N6       1.0000 0.10310  0.00000  0.46720  Biso   1.000  N
  O1       1.0000 0.87030  0.90890  0.93950  Biso   1.000  O
  O2       1.0000 0.88380  0.90910  0.06260  Biso   1.000  O
  O3       1.0000 0.12970  0.90890  0.06050  Biso   1.000  O
  O4       1.0000 0.11620  0.90910  0.93740  Biso   1.000  O
  O5       1.0000 0.12970  0.09110  0.06050  Biso   1.000  O
  O6       1.0000 0.11620  0.09090  0.93740  Biso   1.000  O
  O7       1.0000 0.87030  0.09110  0.93950  Biso   1.000  O
  O8       1.0000 0.88380  0.09090  0.06260  Biso   1.000  O
