data_image0
_cell_length_a       15.084
_cell_length_b       27.43
_cell_length_c       15.799
_cell_angle_alpha    90
_cell_angle_beta     95.447
_cell_angle_gamma    90

_symmetry_space_group_name_H-M    "P 1"
_symmetry_int_tables_number       1

loop_
  _symmetry_equiv_pos_as_xyz
  'x, y, z'

loop_
  _atom_site_label
  _atom_site_occupancy
  _atom_site_fract_x
  _atom_site_fract_y
  _atom_site_fract_z
  _atom_site_thermal_displace_type
  _atom_site_B_iso_or_equiv
  _atom_site_type_symbol
  Zn1      1.0000 0.06349  0.50373  0.43543  Biso   1.000  Zn
  O1       1.0000 0.10400  0.44027  0.49420  Biso   1.000  O
  O2       1.0000 0.00830  0.43500  0.59260  Biso   1.000  O
  O3       1.0000 0.37420  0.03909  0.96250  Biso   1.000  O
  O4       1.0000 0.47060  0.03619  0.86520  Biso   1.000  O
  N1       1.0000 0.15970  0.50962  0.35540  Biso   1.000  N
  C1       1.0000 0.07150  0.41920  0.55430  Biso   1.000  C
  C2       1.0000 0.11210  0.37153  0.58270  Biso   1.000  C
  C3       1.0000 0.08020  0.34640  0.64960  Biso   1.000  C
  H1       1.0000 0.03210  0.35940  0.67720  Biso   1.000  H
  C4       1.0000 0.11820  0.30250  0.67640  Biso   1.000  C
  H2       1.0000 0.09660  0.28570  0.72290  Biso   1.000  H
  C5       1.0000 0.18820  0.28260  0.63530  Biso   1.000  C
  C6       1.0000 0.21890  0.30840  0.56940  Biso   1.000  C
  H3       1.0000 0.26750  0.29580  0.54200  Biso   1.000  H
  C7       1.0000 0.18110  0.35165  0.54240  Biso   1.000  C
  H4       1.0000 0.20250  0.36820  0.49560  Biso   1.000  H
  C8       1.0000 0.23180  0.23610  0.66270  Biso   1.000  C
  H5       1.0000 0.28330  0.22690  0.63630  Biso   1.000  H
  C9       1.0000 0.20530  0.20700  0.71990  Biso   1.000  C
  H6       1.0000 0.15020  0.21470  0.74130  Biso   1.000  H
  C10      1.0000 0.25190  0.16300  0.75530  Biso   1.000  C
  C11      1.0000 0.22490  0.14480  0.82980  Biso   1.000  C
  H7       1.0000 0.17350  0.15780  0.85200  Biso   1.000  H
  C12      1.0000 0.27170  0.10806  0.87220  Biso   1.000  C
  H8       1.0000 0.25300  0.09640  0.92430  Biso   1.000  H
  C13      1.0000 0.34620  0.08744  0.84060  Biso   1.000  C
  C14      1.0000 0.37030  0.10342  0.76290  Biso   1.000  C
  H9       1.0000 0.41890  0.08850  0.73880  Biso   1.000  H
  C15      1.0000 0.32400  0.14100  0.72010  Biso   1.000  C
  H10      1.0000 0.34100  0.15190  0.66700  Biso   1.000  H
  C16      1.0000 0.40090  0.05120  0.89330  Biso   1.000  C
  C17      1.0000 0.23560  0.48570  0.37600  Biso   1.000  C
  H11      1.0000 0.24210  0.46770  0.42770  Biso   1.000  H
  C18      1.0000 0.30510  0.48590  0.32520  Biso   1.000  C
  H12      1.0000 0.35920  0.46960  0.34290  Biso   1.000  H
  C19      1.0000 0.29480  0.51030  0.24780  Biso   1.000  C
  C20      1.0000 0.21360  0.52985  0.22410  Biso   1.000  C
  H13      1.0000 0.20180  0.54450  0.16970  Biso   1.000  H
  C21      1.0000 0.14860  0.52826  0.27900  Biso   1.000  C
  H14      1.0000 0.09200  0.54150  0.26040  Biso   1.000  H
  C22      1.0000 0.36800  0.50720  0.19170  Biso   1.000  C
  H15      1.0000 0.42690  0.50420  0.21850  Biso   1.000  H
  C23      1.0000 0.35910  0.50828  0.11130  Biso   1.000  C
  H16      1.0000 0.30050  0.51230  0.08450  Biso   1.000  H
  C24      1.0000 0.43190  0.50380  0.05540  Biso   1.000  C
  C25      1.0000 0.44720  0.54211  0.00040  Biso   1.000  C
  C26      1.0000 0.51570  0.53810  0.94340  Biso   1.000  C
  C27      1.0000 0.52890  0.57890  0.88990  Biso   1.000  C
  H17      1.0000 0.57550  0.57780  0.85360  Biso   1.000  H
  C28      1.0000 0.47730  0.61890  0.88940  Biso   1.000  C
  H18      1.0000 0.48640  0.64480  0.85130  Biso   1.000  H
  C29      1.0000 0.40910  0.62270  0.94550  Biso   1.000  C
  H19      1.0000 0.37290  0.65110  0.94470  Biso   1.000  H
  C30      1.0000 0.39610  0.58600  0.99960  Biso   1.000  C
  H20      1.0000 0.35190  0.58940  0.03830  Biso   1.000  H
  Zn2      1.0000 0.43651  0.00373  0.06457  Biso   1.000  Zn
  O5       1.0000 0.39600  0.94027  0.00580  Biso   1.000  O
  O6       1.0000 0.49170  0.93500  0.90740  Biso   1.000  O
  O7       1.0000 0.12580  0.53909  0.53750  Biso   1.000  O
  O8       1.0000 0.02940  0.53619  0.63480  Biso   1.000  O
  N2       1.0000 0.34030  0.00962  0.14460  Biso   1.000  N
  C31      1.0000 0.42850  0.91920  0.94570  Biso   1.000  C
  C32      1.0000 0.38790  0.87153  0.91730  Biso   1.000  C
  C33      1.0000 0.41980  0.84640  0.85040  Biso   1.000  C
  H21      1.0000 0.46790  0.85940  0.82280  Biso   1.000  H
  C34      1.0000 0.38180  0.80250  0.82360  Biso   1.000  C
  H22      1.0000 0.40340  0.78570  0.77710  Biso   1.000  H
  C35      1.0000 0.31180  0.78260  0.86470  Biso   1.000  C
  C36      1.0000 0.28110  0.80840  0.93060  Biso   1.000  C
  H23      1.0000 0.23250  0.79580  0.95800  Biso   1.000  H
  C37      1.0000 0.31890  0.85165  0.95760  Biso   1.000  C
  H24      1.0000 0.29750  0.86820  0.00440  Biso   1.000  H
  C38      1.0000 0.26820  0.73610  0.83730  Biso   1.000  C
  H25      1.0000 0.21670  0.72690  0.86370  Biso   1.000  H
  C39      1.0000 0.29470  0.70700  0.78010  Biso   1.000  C
  H26      1.0000 0.34980  0.71470  0.75870  Biso   1.000  H
  C40      1.0000 0.24810  0.66300  0.74470  Biso   1.000  C
  C41      1.0000 0.27510  0.64480  0.67020  Biso   1.000  C
  H27      1.0000 0.32650  0.65780  0.64800  Biso   1.000  H
  C42      1.0000 0.22830  0.60806  0.62780  Biso   1.000  C
  H28      1.0000 0.24700  0.59640  0.57570  Biso   1.000  H
  C43      1.0000 0.15380  0.58744  0.65940  Biso   1.000  C
  C44      1.0000 0.12970  0.60342  0.73710  Biso   1.000  C
  H29      1.0000 0.08110  0.58850  0.76120  Biso   1.000  H
  C45      1.0000 0.17600  0.64100  0.77990  Biso   1.000  C
  H30      1.0000 0.15900  0.65190  0.83300  Biso   1.000  H
  C46      1.0000 0.09910  0.55120  0.60670  Biso   1.000  C
  C47      1.0000 0.26440  0.98570  0.12400  Biso   1.000  C
  H31      1.0000 0.25790  0.96770  0.07230  Biso   1.000  H
  C48      1.0000 0.19490  0.98590  0.17480  Biso   1.000  C
  H32      1.0000 0.14080  0.96960  0.15710  Biso   1.000  H
  C49      1.0000 0.20520  0.01030  0.25220  Biso   1.000  C
  C50      1.0000 0.28640  0.02985  0.27590  Biso   1.000  C
  H33      1.0000 0.29820  0.04450  0.33030  Biso   1.000  H
  C51      1.0000 0.35140  0.02826  0.22100  Biso   1.000  C
  H34      1.0000 0.40800  0.04150  0.23960  Biso   1.000  H
  C52      1.0000 0.13200  0.00720  0.30830  Biso   1.000  C
  H35      1.0000 0.07310  0.00420  0.28150  Biso   1.000  H
  C53      1.0000 0.14090  0.00828  0.38870  Biso   1.000  C
  H36      1.0000 0.19950  0.01230  0.41550  Biso   1.000  H
  C54      1.0000 0.06810  0.00380  0.44460  Biso   1.000  C
  C55      1.0000 0.05280  0.04211  0.49960  Biso   1.000  C
  C56      1.0000 0.98430  0.03810  0.55660  Biso   1.000  C
  C57      1.0000 0.97110  0.07890  0.61010  Biso   1.000  C
  H37      1.0000 0.92450  0.07780  0.64640  Biso   1.000  H
  C58      1.0000 0.02270  0.11890  0.61060  Biso   1.000  C
  H38      1.0000 0.01360  0.14480  0.64870  Biso   1.000  H
  C59      1.0000 0.09090  0.12270  0.55450  Biso   1.000  C
  H39      1.0000 0.12710  0.15110  0.55530  Biso   1.000  H
  C60      1.0000 0.10390  0.08600  0.50040  Biso   1.000  C
  H40      1.0000 0.14810  0.08940  0.46170  Biso   1.000  H
  Zn3      1.0000 0.93651  0.49627  0.56457  Biso   1.000  Zn
  O9       1.0000 0.89600  0.55973  0.50580  Biso   1.000  O
  O10      1.0000 0.99170  0.56500  0.40740  Biso   1.000  O
  O11      1.0000 0.62580  0.96091  0.03750  Biso   1.000  O
  O12      1.0000 0.52940  0.96381  0.13480  Biso   1.000  O
  N3       1.0000 0.84030  0.49038  0.64460  Biso   1.000  N
  C61      1.0000 0.92850  0.58080  0.44570  Biso   1.000  C
  C62      1.0000 0.88790  0.62847  0.41730  Biso   1.000  C
  C63      1.0000 0.91980  0.65360  0.35040  Biso   1.000  C
  H41      1.0000 0.96790  0.64060  0.32280  Biso   1.000  H
  C64      1.0000 0.88180  0.69750  0.32360  Biso   1.000  C
  H42      1.0000 0.90340  0.71430  0.27710  Biso   1.000  H
  C65      1.0000 0.81180  0.71740  0.36470  Biso   1.000  C
  C66      1.0000 0.78110  0.69160  0.43060  Biso   1.000  C
  H43      1.0000 0.73250  0.70420  0.45800  Biso   1.000  H
  C67      1.0000 0.81890  0.64835  0.45760  Biso   1.000  C
  H44      1.0000 0.79750  0.63180  0.50440  Biso   1.000  H
  C68      1.0000 0.76820  0.76390  0.33730  Biso   1.000  C
  H45      1.0000 0.71670  0.77310  0.36370  Biso   1.000  H
  C69      1.0000 0.79470  0.79300  0.28010  Biso   1.000  C
  H46      1.0000 0.84980  0.78530  0.25870  Biso   1.000  H
  C70      1.0000 0.74810  0.83700  0.24470  Biso   1.000  C
  C71      1.0000 0.77510  0.85520  0.17020  Biso   1.000  C
  H47      1.0000 0.82650  0.84220  0.14800  Biso   1.000  H
  C72      1.0000 0.72830  0.89194  0.12780  Biso   1.000  C
  H48      1.0000 0.74700  0.90360  0.07570  Biso   1.000  H
  C73      1.0000 0.65380  0.91256  0.15940  Biso   1.000  C
  C74      1.0000 0.62970  0.89658  0.23710  Biso   1.000  C
  H49      1.0000 0.58110  0.91150  0.26120  Biso   1.000  H
  C75      1.0000 0.67600  0.85900  0.27990  Biso   1.000  C
  H50      1.0000 0.65900  0.84810  0.33300  Biso   1.000  H
  C76      1.0000 0.59910  0.94880  0.10670  Biso   1.000  C
  C77      1.0000 0.76440  0.51430  0.62400  Biso   1.000  C
  H51      1.0000 0.75790  0.53230  0.57230  Biso   1.000  H
  C78      1.0000 0.69490  0.51410  0.67480  Biso   1.000  C
  H52      1.0000 0.64080  0.53040  0.65710  Biso   1.000  H
  C79      1.0000 0.70520  0.48970  0.75220  Biso   1.000  C
  C80      1.0000 0.78640  0.47015  0.77590  Biso   1.000  C
  H53      1.0000 0.79820  0.45550  0.83030  Biso   1.000  H
  C81      1.0000 0.85140  0.47174  0.72100  Biso   1.000  C
  H54      1.0000 0.90800  0.45850  0.73960  Biso   1.000  H
  C82      1.0000 0.63200  0.49280  0.80830  Biso   1.000  C
  H55      1.0000 0.57310  0.49580  0.78150  Biso   1.000  H
  C83      1.0000 0.64090  0.49172  0.88870  Biso   1.000  C
  H56      1.0000 0.69950  0.48770  0.91550  Biso   1.000  H
  C84      1.0000 0.56810  0.49620  0.94460  Biso   1.000  C
  C85      1.0000 0.55280  0.45789  0.99960  Biso   1.000  C
  C86      1.0000 0.48430  0.46190  0.05660  Biso   1.000  C
  C87      1.0000 0.47110  0.42110  0.11010  Biso   1.000  C
  H57      1.0000 0.42450  0.42220  0.14640  Biso   1.000  H
  C88      1.0000 0.52270  0.38110  0.11060  Biso   1.000  C
  H58      1.0000 0.51360  0.35520  0.14870  Biso   1.000  H
  C89      1.0000 0.59090  0.37730  0.05450  Biso   1.000  C
  H59      1.0000 0.62710  0.34890  0.05530  Biso   1.000  H
  C90      1.0000 0.60390  0.41400  0.00040  Biso   1.000  C
  H60      1.0000 0.64810  0.41060  0.96170  Biso   1.000  H
  Zn4      1.0000 0.56349  0.99627  0.93543  Biso   1.000  Zn
  O13      1.0000 0.60400  0.05973  0.99420  Biso   1.000  O
  O14      1.0000 0.50830  0.06500  0.09260  Biso   1.000  O
  O15      1.0000 0.87420  0.46091  0.46250  Biso   1.000  O
  O16      1.0000 0.97060  0.46381  0.36520  Biso   1.000  O
  N4       1.0000 0.65970  0.99038  0.85540  Biso   1.000  N
  C91      1.0000 0.57150  0.08080  0.05430  Biso   1.000  C
  C92      1.0000 0.61210  0.12847  0.08270  Biso   1.000  C
  C93      1.0000 0.58020  0.15360  0.14960  Biso   1.000  C
  H61      1.0000 0.53210  0.14060  0.17720  Biso   1.000  H
  C94      1.0000 0.61820  0.19750  0.17640  Biso   1.000  C
  H62      1.0000 0.59660  0.21430  0.22290  Biso   1.000  H
  C95      1.0000 0.68820  0.21740  0.13530  Biso   1.000  C
  C96      1.0000 0.71890  0.19160  0.06940  Biso   1.000  C
  H63      1.0000 0.76750  0.20420  0.04200  Biso   1.000  H
  C97      1.0000 0.68110  0.14835  0.04240  Biso   1.000  C
  H64      1.0000 0.70250  0.13180  0.99560  Biso   1.000  H
  C98      1.0000 0.73180  0.26390  0.16270  Biso   1.000  C
  H65      1.0000 0.78330  0.27310  0.13630  Biso   1.000  H
  C99      1.0000 0.70530  0.29300  0.21990  Biso   1.000  C
  H66      1.0000 0.65020  0.28530  0.24130  Biso   1.000  H
  C100     1.0000 0.75190  0.33700  0.25530  Biso   1.000  C
  C101     1.0000 0.72490  0.35520  0.32980  Biso   1.000  C
  H67      1.0000 0.67350  0.34220  0.35200  Biso   1.000  H
  C102     1.0000 0.77170  0.39194  0.37220  Biso   1.000  C
  H68      1.0000 0.75300  0.40360  0.42430  Biso   1.000  H
  C103     1.0000 0.84620  0.41256  0.34060  Biso   1.000  C
  C104     1.0000 0.87030  0.39658  0.26290  Biso   1.000  C
  H69      1.0000 0.91890  0.41150  0.23880  Biso   1.000  H
  C105     1.0000 0.82400  0.35900  0.22010  Biso   1.000  C
  H70      1.0000 0.84100  0.34810  0.16700  Biso   1.000  H
  C106     1.0000 0.90090  0.44880  0.39330  Biso   1.000  C
  C107     1.0000 0.73560  0.01430  0.87600  Biso   1.000  C
  H71      1.0000 0.74210  0.03230  0.92770  Biso   1.000  H
  C108     1.0000 0.80510  0.01410  0.82520  Biso   1.000  C
  H72      1.0000 0.85920  0.03040  0.84290  Biso   1.000  H
  C109     1.0000 0.79480  0.98970  0.74780  Biso   1.000  C
  C110     1.0000 0.71360  0.97015  0.72410  Biso   1.000  C
  H73      1.0000 0.70180  0.95550  0.66970  Biso   1.000  H
  C111     1.0000 0.64860  0.97174  0.77900  Biso   1.000  C
  H74      1.0000 0.59200  0.95850  0.76040  Biso   1.000  H
  C112     1.0000 0.86800  0.99280  0.69170  Biso   1.000  C
  H75      1.0000 0.92690  0.99580  0.71850  Biso   1.000  H
  C113     1.0000 0.85910  0.99172  0.61130  Biso   1.000  C
  H76      1.0000 0.80050  0.98770  0.58450  Biso   1.000  H
  C114     1.0000 0.93190  0.99620  0.55540  Biso   1.000  C
  C115     1.0000 0.94720  0.95789  0.50040  Biso   1.000  C
  C116     1.0000 0.01570  0.96190  0.44340  Biso   1.000  C
  C117     1.0000 0.02890  0.92110  0.38990  Biso   1.000  C
  H77      1.0000 0.07550  0.92220  0.35360  Biso   1.000  H
  C118     1.0000 0.97730  0.88110  0.38940  Biso   1.000  C
  H78      1.0000 0.98640  0.85520  0.35130  Biso   1.000  H
  C119     1.0000 0.90910  0.87730  0.44550  Biso   1.000  C
  H79      1.0000 0.87290  0.84890  0.44470  Biso   1.000  H
  C120     1.0000 0.89610  0.91400  0.49960  Biso   1.000  C
  H80      1.0000 0.85190  0.91060  0.53830  Biso   1.000  H
  Zn5      1.0000 0.56349  0.00373  0.43543  Biso   1.000  Zn
  O17      1.0000 0.60400  0.94027  0.49420  Biso   1.000  O
  O18      1.0000 0.50830  0.93500  0.59260  Biso   1.000  O
  O19      1.0000 0.87420  0.53909  0.96250  Biso   1.000  O
  O20      1.0000 0.97060  0.53619  0.86520  Biso   1.000  O
  N5       1.0000 0.65970  0.00962  0.35540  Biso   1.000  N
  C121     1.0000 0.57150  0.91920  0.55430  Biso   1.000  C
  C122     1.0000 0.61210  0.87153  0.58270  Biso   1.000  C
  C123     1.0000 0.58020  0.84640  0.64960  Biso   1.000  C
  H81      1.0000 0.53210  0.85940  0.67720  Biso   1.000  H
  C124     1.0000 0.61820  0.80250  0.67640  Biso   1.000  C
  H82      1.0000 0.59660  0.78570  0.72290  Biso   1.000  H
  C125     1.0000 0.68820  0.78260  0.63530  Biso   1.000  C
  C126     1.0000 0.71890  0.80840  0.56940  Biso   1.000  C
  H83      1.0000 0.76750  0.79580  0.54200  Biso   1.000  H
  C127     1.0000 0.68110  0.85165  0.54240  Biso   1.000  C
  H84      1.0000 0.70250  0.86820  0.49560  Biso   1.000  H
  C128     1.0000 0.73180  0.73610  0.66270  Biso   1.000  C
  H85      1.0000 0.78330  0.72690  0.63630  Biso   1.000  H
  C129     1.0000 0.70530  0.70700  0.71990  Biso   1.000  C
  H86      1.0000 0.65020  0.71470  0.74130  Biso   1.000  H
  C130     1.0000 0.75190  0.66300  0.75530  Biso   1.000  C
  C131     1.0000 0.72490  0.64480  0.82980  Biso   1.000  C
  H87      1.0000 0.67350  0.65780  0.85200  Biso   1.000  H
  C132     1.0000 0.77170  0.60806  0.87220  Biso   1.000  C
  H88      1.0000 0.75300  0.59640  0.92430  Biso   1.000  H
  C133     1.0000 0.84620  0.58744  0.84060  Biso   1.000  C
  C134     1.0000 0.87030  0.60342  0.76290  Biso   1.000  C
  H89      1.0000 0.91890  0.58850  0.73880  Biso   1.000  H
  C135     1.0000 0.82400  0.64100  0.72010  Biso   1.000  C
  H90      1.0000 0.84100  0.65190  0.66700  Biso   1.000  H
  C136     1.0000 0.90090  0.55120  0.89330  Biso   1.000  C
  C137     1.0000 0.73560  0.98570  0.37600  Biso   1.000  C
  H91      1.0000 0.74210  0.96770  0.42770  Biso   1.000  H
  C138     1.0000 0.80510  0.98590  0.32520  Biso   1.000  C
  H92      1.0000 0.85920  0.96960  0.34290  Biso   1.000  H
  C139     1.0000 0.79480  0.01030  0.24780  Biso   1.000  C
  C140     1.0000 0.71360  0.02985  0.22410  Biso   1.000  C
  H93      1.0000 0.70180  0.04450  0.16970  Biso   1.000  H
  C141     1.0000 0.64860  0.02826  0.27900  Biso   1.000  C
  H94      1.0000 0.59200  0.04150  0.26040  Biso   1.000  H
  C142     1.0000 0.86800  0.00720  0.19170  Biso   1.000  C
  H95      1.0000 0.92690  0.00420  0.21850  Biso   1.000  H
  C143     1.0000 0.85910  0.00828  0.11130  Biso   1.000  C
  H96      1.0000 0.80050  0.01230  0.08450  Biso   1.000  H
  C144     1.0000 0.93190  0.00380  0.05540  Biso   1.000  C
  C145     1.0000 0.94720  0.04211  0.00040  Biso   1.000  C
  C146     1.0000 0.01570  0.03810  0.94340  Biso   1.000  C
  C147     1.0000 0.02890  0.07890  0.88990  Biso   1.000  C
  H97      1.0000 0.07550  0.07780  0.85360  Biso   1.000  H
  C148     1.0000 0.97730  0.11890  0.88940  Biso   1.000  C
  H98      1.0000 0.98640  0.14480  0.85130  Biso   1.000  H
  C149     1.0000 0.90910  0.12270  0.94550  Biso   1.000  C
  H99      1.0000 0.87290  0.15110  0.94470  Biso   1.000  H
  C150     1.0000 0.89610  0.08600  0.99960  Biso   1.000  C
  H100     1.0000 0.85190  0.08940  0.03830  Biso   1.000  H
  Zn6      1.0000 0.93651  0.50373  0.06457  Biso   1.000  Zn
  O21      1.0000 0.89600  0.44027  0.00580  Biso   1.000  O
  O22      1.0000 0.99170  0.43500  0.90740  Biso   1.000  O
  O23      1.0000 0.62580  0.03909  0.53750  Biso   1.000  O
  O24      1.0000 0.52940  0.03619  0.63480  Biso   1.000  O
  N6       1.0000 0.84030  0.50962  0.14460  Biso   1.000  N
  C151     1.0000 0.92850  0.41920  0.94570  Biso   1.000  C
  C152     1.0000 0.88790  0.37153  0.91730  Biso   1.000  C
  C153     1.0000 0.91980  0.34640  0.85040  Biso   1.000  C
  H101     1.0000 0.96790  0.35940  0.82280  Biso   1.000  H
  C154     1.0000 0.88180  0.30250  0.82360  Biso   1.000  C
  H102     1.0000 0.90340  0.28570  0.77710  Biso   1.000  H
  C155     1.0000 0.81180  0.28260  0.86470  Biso   1.000  C
  C156     1.0000 0.78110  0.30840  0.93060  Biso   1.000  C
  H103     1.0000 0.73250  0.29580  0.95800  Biso   1.000  H
  C157     1.0000 0.81890  0.35165  0.95760  Biso   1.000  C
  H104     1.0000 0.79750  0.36820  0.00440  Biso   1.000  H
  C158     1.0000 0.76820  0.23610  0.83730  Biso   1.000  C
  H105     1.0000 0.71670  0.22690  0.86370  Biso   1.000  H
  C159     1.0000 0.79470  0.20700  0.78010  Biso   1.000  C
  H106     1.0000 0.84980  0.21470  0.75870  Biso   1.000  H
  C160     1.0000 0.74810  0.16300  0.74470  Biso   1.000  C
  C161     1.0000 0.77510  0.14480  0.67020  Biso   1.000  C
  H107     1.0000 0.82650  0.15780  0.64800  Biso   1.000  H
  C162     1.0000 0.72830  0.10806  0.62780  Biso   1.000  C
  H108     1.0000 0.74700  0.09640  0.57570  Biso   1.000  H
  C163     1.0000 0.65380  0.08744  0.65940  Biso   1.000  C
  C164     1.0000 0.62970  0.10342  0.73710  Biso   1.000  C
  H109     1.0000 0.58110  0.08850  0.76120  Biso   1.000  H
  C165     1.0000 0.67600  0.14100  0.77990  Biso   1.000  C
  H110     1.0000 0.65900  0.15190  0.83300  Biso   1.000  H
  C166     1.0000 0.59910  0.05120  0.60670  Biso   1.000  C
  C167     1.0000 0.76440  0.48570  0.12400  Biso   1.000  C
  H111     1.0000 0.75790  0.46770  0.07230  Biso   1.000  H
  C168     1.0000 0.69490  0.48590  0.17480  Biso   1.000  C
  H112     1.0000 0.64080  0.46960  0.15710  Biso   1.000  H
  C169     1.0000 0.70520  0.51030  0.25220  Biso   1.000  C
  C170     1.0000 0.78640  0.52985  0.27590  Biso   1.000  C
  H113     1.0000 0.79820  0.54450  0.33030  Biso   1.000  H
  C171     1.0000 0.85140  0.52826  0.22100  Biso   1.000  C
  H114     1.0000 0.90800  0.54150  0.23960  Biso   1.000  H
  C172     1.0000 0.63200  0.50720  0.30830  Biso   1.000  C
  H115     1.0000 0.57310  0.50420  0.28150  Biso   1.000  H
  C173     1.0000 0.64090  0.50828  0.38870  Biso   1.000  C
  H116     1.0000 0.69950  0.51230  0.41550  Biso   1.000  H
  C174     1.0000 0.56810  0.50380  0.44460  Biso   1.000  C
  C175     1.0000 0.55280  0.54211  0.49960  Biso   1.000  C
  C176     1.0000 0.48430  0.53810  0.55660  Biso   1.000  C
  C177     1.0000 0.47110  0.57890  0.61010  Biso   1.000  C
  H117     1.0000 0.42450  0.57780  0.64640  Biso   1.000  H
  C178     1.0000 0.52270  0.61890  0.61060  Biso   1.000  C
  H118     1.0000 0.51360  0.64480  0.64870  Biso   1.000  H
  C179     1.0000 0.59090  0.62270  0.55450  Biso   1.000  C
  H119     1.0000 0.62710  0.65110  0.55530  Biso   1.000  H
  C180     1.0000 0.60390  0.58600  0.50040  Biso   1.000  C
  H120     1.0000 0.64810  0.58940  0.46170  Biso   1.000  H
  Zn7      1.0000 0.43651  0.99627  0.56457  Biso   1.000  Zn
  O25      1.0000 0.39600  0.05973  0.50580  Biso   1.000  O
  O26      1.0000 0.49170  0.06500  0.40740  Biso   1.000  O
  O27      1.0000 0.12580  0.46091  0.03750  Biso   1.000  O
  O28      1.0000 0.02940  0.46381  0.13480  Biso   1.000  O
  N7       1.0000 0.34030  0.99038  0.64460  Biso   1.000  N
  C181     1.0000 0.42850  0.08080  0.44570  Biso   1.000  C
  C182     1.0000 0.38790  0.12847  0.41730  Biso   1.000  C
  C183     1.0000 0.41980  0.15360  0.35040  Biso   1.000  C
  H121     1.0000 0.46790  0.14060  0.32280  Biso   1.000  H
  C184     1.0000 0.38180  0.19750  0.32360  Biso   1.000  C
  H122     1.0000 0.40340  0.21430  0.27710  Biso   1.000  H
  C185     1.0000 0.31180  0.21740  0.36470  Biso   1.000  C
  C186     1.0000 0.28110  0.19160  0.43060  Biso   1.000  C
  H123     1.0000 0.23250  0.20420  0.45800  Biso   1.000  H
  C187     1.0000 0.31890  0.14835  0.45760  Biso   1.000  C
  H124     1.0000 0.29750  0.13180  0.50440  Biso   1.000  H
  C188     1.0000 0.26820  0.26390  0.33730  Biso   1.000  C
  H125     1.0000 0.21670  0.27310  0.36370  Biso   1.000  H
  C189     1.0000 0.29470  0.29300  0.28010  Biso   1.000  C
  H126     1.0000 0.34980  0.28530  0.25870  Biso   1.000  H
  C190     1.0000 0.24810  0.33700  0.24470  Biso   1.000  C
  C191     1.0000 0.27510  0.35520  0.17020  Biso   1.000  C
  H127     1.0000 0.32650  0.34220  0.14800  Biso   1.000  H
  C192     1.0000 0.22830  0.39194  0.12780  Biso   1.000  C
  H128     1.0000 0.24700  0.40360  0.07570  Biso   1.000  H
  C193     1.0000 0.15380  0.41256  0.15940  Biso   1.000  C
  C194     1.0000 0.12970  0.39658  0.23710  Biso   1.000  C
  H129     1.0000 0.08110  0.41150  0.26120  Biso   1.000  H
  C195     1.0000 0.17600  0.35900  0.27990  Biso   1.000  C
  H130     1.0000 0.15900  0.34810  0.33300  Biso   1.000  H
  C196     1.0000 0.09910  0.44880  0.10670  Biso   1.000  C
  C197     1.0000 0.26440  0.01430  0.62400  Biso   1.000  C
  H131     1.0000 0.25790  0.03230  0.57230  Biso   1.000  H
  C198     1.0000 0.19490  0.01410  0.67480  Biso   1.000  C
  H132     1.0000 0.14080  0.03040  0.65710  Biso   1.000  H
  C199     1.0000 0.20520  0.98970  0.75220  Biso   1.000  C
  C200     1.0000 0.28640  0.97015  0.77590  Biso   1.000  C
  H133     1.0000 0.29820  0.95550  0.83030  Biso   1.000  H
  C201     1.0000 0.35140  0.97174  0.72100  Biso   1.000  C
  H134     1.0000 0.40800  0.95850  0.73960  Biso   1.000  H
  C202     1.0000 0.13200  0.99280  0.80830  Biso   1.000  C
  H135     1.0000 0.07310  0.99580  0.78150  Biso   1.000  H
  C203     1.0000 0.14090  0.99172  0.88870  Biso   1.000  C
  H136     1.0000 0.19950  0.98770  0.91550  Biso   1.000  H
  C204     1.0000 0.06810  0.99620  0.94460  Biso   1.000  C
  C205     1.0000 0.05280  0.95789  0.99960  Biso   1.000  C
  C206     1.0000 0.98430  0.96190  0.05660  Biso   1.000  C
  C207     1.0000 0.97110  0.92110  0.11010  Biso   1.000  C
  H137     1.0000 0.92450  0.92220  0.14640  Biso   1.000  H
  C208     1.0000 0.02270  0.88110  0.11060  Biso   1.000  C
  H138     1.0000 0.01360  0.85520  0.14870  Biso   1.000  H
  C209     1.0000 0.09090  0.87730  0.05450  Biso   1.000  C
  H139     1.0000 0.12710  0.84890  0.05530  Biso   1.000  H
  C210     1.0000 0.10390  0.91400  0.00040  Biso   1.000  C
  H140     1.0000 0.14810  0.91060  0.96170  Biso   1.000  H
  Zn8      1.0000 0.06349  0.49627  0.93543  Biso   1.000  Zn
  O29      1.0000 0.10400  0.55973  0.99420  Biso   1.000  O
  O30      1.0000 0.00830  0.56500  0.09260  Biso   1.000  O
  O31      1.0000 0.37420  0.96091  0.46250  Biso   1.000  O
  O32      1.0000 0.47060  0.96381  0.36520  Biso   1.000  O
  N8       1.0000 0.15970  0.49038  0.85540  Biso   1.000  N
  C211     1.0000 0.07150  0.58080  0.05430  Biso   1.000  C
  C212     1.0000 0.11210  0.62847  0.08270  Biso   1.000  C
  C213     1.0000 0.08020  0.65360  0.14960  Biso   1.000  C
  H141     1.0000 0.03210  0.64060  0.17720  Biso   1.000  H
  C214     1.0000 0.11820  0.69750  0.17640  Biso   1.000  C
  H142     1.0000 0.09660  0.71430  0.22290  Biso   1.000  H
  C215     1.0000 0.18820  0.71740  0.13530  Biso   1.000  C
  C216     1.0000 0.21890  0.69160  0.06940  Biso   1.000  C
  H143     1.0000 0.26750  0.70420  0.04200  Biso   1.000  H
  C217     1.0000 0.18110  0.64835  0.04240  Biso   1.000  C
  H144     1.0000 0.20250  0.63180  0.99560  Biso   1.000  H
  C218     1.0000 0.23180  0.76390  0.16270  Biso   1.000  C
  H145     1.0000 0.28330  0.77310  0.13630  Biso   1.000  H
  C219     1.0000 0.20530  0.79300  0.21990  Biso   1.000  C
  H146     1.0000 0.15020  0.78530  0.24130  Biso   1.000  H
  C220     1.0000 0.25190  0.83700  0.25530  Biso   1.000  C
  C221     1.0000 0.22490  0.85520  0.32980  Biso   1.000  C
  H147     1.0000 0.17350  0.84220  0.35200  Biso   1.000  H
  C222     1.0000 0.27170  0.89194  0.37220  Biso   1.000  C
  H148     1.0000 0.25300  0.90360  0.42430  Biso   1.000  H
  C223     1.0000 0.34620  0.91256  0.34060  Biso   1.000  C
  C224     1.0000 0.37030  0.89658  0.26290  Biso   1.000  C
  H149     1.0000 0.41890  0.91150  0.23880  Biso   1.000  H
  C225     1.0000 0.32400  0.85900  0.22010  Biso   1.000  C
  H150     1.0000 0.34100  0.84810  0.16700  Biso   1.000  H
  C226     1.0000 0.40090  0.94880  0.39330  Biso   1.000  C
  C227     1.0000 0.23560  0.51430  0.87600  Biso   1.000  C
  H151     1.0000 0.24210  0.53230  0.92770  Biso   1.000  H
  C228     1.0000 0.30510  0.51410  0.82520  Biso   1.000  C
  H152     1.0000 0.35920  0.53040  0.84290  Biso   1.000  H
  C229     1.0000 0.29480  0.48970  0.74780  Biso   1.000  C
  C230     1.0000 0.21360  0.47015  0.72410  Biso   1.000  C
  H153     1.0000 0.20180  0.45550  0.66970  Biso   1.000  H
  C231     1.0000 0.14860  0.47174  0.77900  Biso   1.000  C
  H154     1.0000 0.09200  0.45850  0.76040  Biso   1.000  H
  C232     1.0000 0.36800  0.49280  0.69170  Biso   1.000  C
  H155     1.0000 0.42690  0.49580  0.71850  Biso   1.000  H
  C233     1.0000 0.35910  0.49172  0.61130  Biso   1.000  C
  H156     1.0000 0.30050  0.48770  0.58450  Biso   1.000  H
  C234     1.0000 0.43190  0.49620  0.55540  Biso   1.000  C
  C235     1.0000 0.44720  0.45789  0.50040  Biso   1.000  C
  C236     1.0000 0.51570  0.46190  0.44340  Biso   1.000  C
  C237     1.0000 0.52890  0.42110  0.38990  Biso   1.000  C
  H157     1.0000 0.57550  0.42220  0.35360  Biso   1.000  H
  C238     1.0000 0.47730  0.38110  0.38940  Biso   1.000  C
  H158     1.0000 0.48640  0.35520  0.35130  Biso   1.000  H
  C239     1.0000 0.40910  0.37730  0.44550  Biso   1.000  C
  H159     1.0000 0.37290  0.34890  0.44470  Biso   1.000  H
  C240     1.0000 0.39610  0.41400  0.49960  Biso   1.000  C
  H160     1.0000 0.35190  0.41060  0.53830  Biso   1.000  H
