data_image0
_cell_length_a       25.6477
_cell_length_b       25.6477
_cell_length_c       25.6477
_cell_angle_alpha    60
_cell_angle_beta     60
_cell_angle_gamma    60

_symmetry_space_group_name_H-M    P 1
_symmetry_int_tables_number       1

loop_
  _symmetry_equiv_pos_as_xyz
  'x, y, z'

loop_
  _atom_site_label
  _atom_site_occupancy
  _atom_site_fract_x
  _atom_site_fract_y
  _atom_site_fract_z
  _atom_site_thermal_displace_type
  _atom_site_B_iso_or_equiv
  _atom_site_type_symbol
  Cu1      1.0000 0.67322  0.25000  0.75000  Biso   1.000  Cu
  Cu2      1.0000 0.75000  0.17322  0.32678  Biso   1.000  Cu
  Cu3      1.0000 0.25000  0.32678  0.17322  Biso   1.000  Cu
  Cu4      1.0000 0.82678  0.75000  0.25000  Biso   1.000  Cu
  Cu5      1.0000 0.67322  0.75000  0.32678  Biso   1.000  Cu
  Cu6      1.0000 0.75000  0.32678  0.75000  Biso   1.000  Cu
  Cu7      1.0000 0.25000  0.17322  0.25000  Biso   1.000  Cu
  Cu8      1.0000 0.82678  0.25000  0.17322  Biso   1.000  Cu
  Cu9      1.0000 0.67322  0.32678  0.25000  Biso   1.000  Cu
  Cu10     1.0000 0.75000  0.75000  0.17322  Biso   1.000  Cu
  Cu11     1.0000 0.25000  0.25000  0.32678  Biso   1.000  Cu
  Cu12     1.0000 0.82678  0.17322  0.75000  Biso   1.000  Cu
  Cu13     1.0000 0.32678  0.75000  0.25000  Biso   1.000  Cu
  Cu14     1.0000 0.25000  0.82678  0.67322  Biso   1.000  Cu
  Cu15     1.0000 0.75000  0.67322  0.82678  Biso   1.000  Cu
  Cu16     1.0000 0.17322  0.25000  0.75000  Biso   1.000  Cu
  Cu17     1.0000 0.32678  0.25000  0.67322  Biso   1.000  Cu
  Cu18     1.0000 0.25000  0.67322  0.25000  Biso   1.000  Cu
  Cu19     1.0000 0.75000  0.82678  0.75000  Biso   1.000  Cu
  Cu20     1.0000 0.17322  0.75000  0.82678  Biso   1.000  Cu
  Cu21     1.0000 0.32678  0.67322  0.75000  Biso   1.000  Cu
  Cu22     1.0000 0.25000  0.25000  0.82678  Biso   1.000  Cu
  Cu23     1.0000 0.75000  0.75000  0.67322  Biso   1.000  Cu
  Cu24     1.0000 0.17322  0.82678  0.25000  Biso   1.000  Cu
  H1       1.0000 0.55290  0.54810  0.73270  Biso   1.000  H
  H2       1.0000 0.46050  0.63690  0.73450  Biso   1.000  H
  H3       1.0000 0.04810  0.05290  0.16630  Biso   1.000  H
  H4       1.0000 0.13690  0.96050  0.16810  Biso   1.000  H
  H5       1.0000 0.23270  0.16630  0.05290  Biso   1.000  H
  H6       1.0000 0.23450  0.16810  0.96050  Biso   1.000  H
  H7       1.0000 0.66630  0.73270  0.54810  Biso   1.000  H
  H8       1.0000 0.66810  0.73450  0.63690  Biso   1.000  H
  H9       1.0000 0.55290  0.73270  0.16630  Biso   1.000  H
  H10      1.0000 0.46050  0.73450  0.16810  Biso   1.000  H
  H11      1.0000 0.04810  0.16630  0.73270  Biso   1.000  H
  H12      1.0000 0.13690  0.16810  0.73450  Biso   1.000  H
  H13      1.0000 0.23270  0.05290  0.54810  Biso   1.000  H
  H14      1.0000 0.23450  0.96050  0.63690  Biso   1.000  H
  H15      1.0000 0.66630  0.54810  0.05290  Biso   1.000  H
  H16      1.0000 0.66810  0.63690  0.96050  Biso   1.000  H
  H17      1.0000 0.55290  0.16630  0.54810  Biso   1.000  H
  H18      1.0000 0.46050  0.16810  0.63690  Biso   1.000  H
  H19      1.0000 0.04810  0.73270  0.05290  Biso   1.000  H
  H20      1.0000 0.13690  0.73450  0.96050  Biso   1.000  H
  H21      1.0000 0.23270  0.54810  0.16630  Biso   1.000  H
  H22      1.0000 0.23450  0.63690  0.16810  Biso   1.000  H
  H23      1.0000 0.66630  0.05290  0.73270  Biso   1.000  H
  H24      1.0000 0.66810  0.96050  0.73450  Biso   1.000  H
  H25      1.0000 0.45190  0.44710  0.76730  Biso   1.000  H
  H26      1.0000 0.36310  0.53950  0.76550  Biso   1.000  H
  H27      1.0000 0.94710  0.95190  0.33370  Biso   1.000  H
  H28      1.0000 0.03950  0.86310  0.33190  Biso   1.000  H
  H29      1.0000 0.83370  0.76730  0.44710  Biso   1.000  H
  H30      1.0000 0.83190  0.76550  0.53950  Biso   1.000  H
  H31      1.0000 0.26730  0.33370  0.95190  Biso   1.000  H
  H32      1.0000 0.26550  0.33190  0.86310  Biso   1.000  H
  H33      1.0000 0.26730  0.44710  0.33370  Biso   1.000  H
  H34      1.0000 0.26550  0.53950  0.33190  Biso   1.000  H
  H35      1.0000 0.83370  0.95190  0.76730  Biso   1.000  H
  H36      1.0000 0.83190  0.86310  0.76550  Biso   1.000  H
  H37      1.0000 0.94710  0.76730  0.95190  Biso   1.000  H
  H38      1.0000 0.03950  0.76550  0.86310  Biso   1.000  H
  H39      1.0000 0.45190  0.33370  0.44710  Biso   1.000  H
  H40      1.0000 0.36310  0.33190  0.53950  Biso   1.000  H
  H41      1.0000 0.83370  0.44710  0.95190  Biso   1.000  H
  H42      1.0000 0.83190  0.53950  0.86310  Biso   1.000  H
  H43      1.0000 0.26730  0.95190  0.44710  Biso   1.000  H
  H44      1.0000 0.26550  0.86310  0.53950  Biso   1.000  H
  H45      1.0000 0.45190  0.76730  0.33370  Biso   1.000  H
  H46      1.0000 0.36310  0.76550  0.33190  Biso   1.000  H
  H47      1.0000 0.94710  0.33370  0.76730  Biso   1.000  H
  H48      1.0000 0.03950  0.33190  0.76550  Biso   1.000  H
  H49      1.0000 0.44710  0.45190  0.26730  Biso   1.000  H
  H50      1.0000 0.53950  0.36310  0.26550  Biso   1.000  H
  H51      1.0000 0.95190  0.94710  0.83370  Biso   1.000  H
  H52      1.0000 0.86310  0.03950  0.83190  Biso   1.000  H
  H53      1.0000 0.76730  0.83370  0.94710  Biso   1.000  H
  H54      1.0000 0.76550  0.83190  0.03950  Biso   1.000  H
  H55      1.0000 0.33370  0.26730  0.45190  Biso   1.000  H
  H56      1.0000 0.33190  0.26550  0.36310  Biso   1.000  H
  H57      1.0000 0.44710  0.26730  0.83370  Biso   1.000  H
  H58      1.0000 0.53950  0.26550  0.83190  Biso   1.000  H
  H59      1.0000 0.95190  0.83370  0.26730  Biso   1.000  H
  H60      1.0000 0.86310  0.83190  0.26550  Biso   1.000  H
  H61      1.0000 0.76730  0.94710  0.45190  Biso   1.000  H
  H62      1.0000 0.76550  0.03950  0.36310  Biso   1.000  H
  H63      1.0000 0.33370  0.45190  0.94710  Biso   1.000  H
  H64      1.0000 0.33190  0.36310  0.03950  Biso   1.000  H
  H65      1.0000 0.44710  0.83370  0.45190  Biso   1.000  H
  H66      1.0000 0.53950  0.83190  0.36310  Biso   1.000  H
  H67      1.0000 0.95190  0.26730  0.94710  Biso   1.000  H
  H68      1.0000 0.86310  0.26550  0.03950  Biso   1.000  H
  H69      1.0000 0.76730  0.45190  0.83370  Biso   1.000  H
  H70      1.0000 0.76550  0.36310  0.83190  Biso   1.000  H
  H71      1.0000 0.33370  0.94710  0.26730  Biso   1.000  H
  H72      1.0000 0.33190  0.03950  0.26550  Biso   1.000  H
  H73      1.0000 0.54810  0.55290  0.23270  Biso   1.000  H
  H74      1.0000 0.63690  0.46050  0.23450  Biso   1.000  H
  H75      1.0000 0.05290  0.04810  0.66630  Biso   1.000  H
  H76      1.0000 0.96050  0.13690  0.66810  Biso   1.000  H
  H77      1.0000 0.16630  0.23270  0.55290  Biso   1.000  H
  H78      1.0000 0.16810  0.23450  0.46050  Biso   1.000  H
  H79      1.0000 0.73270  0.66630  0.04810  Biso   1.000  H
  H80      1.0000 0.73450  0.66810  0.13690  Biso   1.000  H
  H81      1.0000 0.73270  0.55290  0.66630  Biso   1.000  H
  H82      1.0000 0.73450  0.46050  0.66810  Biso   1.000  H
  H83      1.0000 0.16630  0.04810  0.23270  Biso   1.000  H
  H84      1.0000 0.16810  0.13690  0.23450  Biso   1.000  H
  H85      1.0000 0.05290  0.23270  0.04810  Biso   1.000  H
  H86      1.0000 0.96050  0.23450  0.13690  Biso   1.000  H
  H87      1.0000 0.54810  0.66630  0.55290  Biso   1.000  H
  H88      1.0000 0.63690  0.66810  0.46050  Biso   1.000  H
  H89      1.0000 0.16630  0.55290  0.04810  Biso   1.000  H
  H90      1.0000 0.16810  0.46050  0.13690  Biso   1.000  H
  H91      1.0000 0.73270  0.04810  0.55290  Biso   1.000  H
  H92      1.0000 0.73450  0.13690  0.46050  Biso   1.000  H
  H93      1.0000 0.54810  0.23270  0.66630  Biso   1.000  H
  H94      1.0000 0.63690  0.23450  0.66810  Biso   1.000  H
  H95      1.0000 0.05290  0.66630  0.23270  Biso   1.000  H
  H96      1.0000 0.96050  0.66810  0.23450  Biso   1.000  H
  C1       1.0000 0.51422  0.54506  0.74002  Biso   1.000  C
  C2       1.0000 0.45923  0.59775  0.74077  Biso   1.000  C
  C3       1.0000 0.04506  0.01422  0.20070  Biso   1.000  C
  C4       1.0000 0.09775  0.95923  0.20225  Biso   1.000  C
  C5       1.0000 0.24002  0.20070  0.01422  Biso   1.000  C
  C6       1.0000 0.24077  0.20225  0.95923  Biso   1.000  C
  C7       1.0000 0.70070  0.74002  0.54506  Biso   1.000  C
  C8       1.0000 0.70225  0.74077  0.59775  Biso   1.000  C
  C9       1.0000 0.51422  0.74002  0.20070  Biso   1.000  C
  C10      1.0000 0.45923  0.74077  0.20225  Biso   1.000  C
  C11      1.0000 0.04506  0.20070  0.74002  Biso   1.000  C
  C12      1.0000 0.09775  0.20225  0.74077  Biso   1.000  C
  C13      1.0000 0.24002  0.01422  0.54506  Biso   1.000  C
  C14      1.0000 0.24077  0.95923  0.59775  Biso   1.000  C
  C15      1.0000 0.70070  0.54506  0.01422  Biso   1.000  C
  C16      1.0000 0.70225  0.59775  0.95923  Biso   1.000  C
  C17      1.0000 0.51422  0.20070  0.54506  Biso   1.000  C
  C18      1.0000 0.45923  0.20225  0.59775  Biso   1.000  C
  C19      1.0000 0.04506  0.74002  0.01422  Biso   1.000  C
  C20      1.0000 0.09775  0.74077  0.95923  Biso   1.000  C
  C21      1.0000 0.24002  0.54506  0.20070  Biso   1.000  C
  C22      1.0000 0.24077  0.59775  0.20225  Biso   1.000  C
  C23      1.0000 0.70070  0.01422  0.74002  Biso   1.000  C
  C24      1.0000 0.70225  0.95923  0.74077  Biso   1.000  C
  C25      1.0000 0.45494  0.48578  0.75998  Biso   1.000  C
  C26      1.0000 0.40225  0.54077  0.75923  Biso   1.000  C
  C27      1.0000 0.98578  0.95494  0.29930  Biso   1.000  C
  C28      1.0000 0.04077  0.90225  0.29775  Biso   1.000  C
  C29      1.0000 0.79930  0.75998  0.48578  Biso   1.000  C
  C30      1.0000 0.79775  0.75923  0.54077  Biso   1.000  C
  C31      1.0000 0.25998  0.29930  0.95494  Biso   1.000  C
  C32      1.0000 0.25923  0.29775  0.90225  Biso   1.000  C
  C33      1.0000 0.25998  0.48578  0.29930  Biso   1.000  C
  C34      1.0000 0.25923  0.54077  0.29775  Biso   1.000  C
  C35      1.0000 0.79930  0.95494  0.75998  Biso   1.000  C
  C36      1.0000 0.79775  0.90225  0.75923  Biso   1.000  C
  C37      1.0000 0.98578  0.75998  0.95494  Biso   1.000  C
  C38      1.0000 0.04077  0.75923  0.90225  Biso   1.000  C
  C39      1.0000 0.45494  0.29930  0.48578  Biso   1.000  C
  C40      1.0000 0.40225  0.29775  0.54077  Biso   1.000  C
  C41      1.0000 0.79930  0.48578  0.95494  Biso   1.000  C
  C42      1.0000 0.79775  0.54077  0.90225  Biso   1.000  C
  C43      1.0000 0.25998  0.95494  0.48578  Biso   1.000  C
  C44      1.0000 0.25923  0.90225  0.54077  Biso   1.000  C
  C45      1.0000 0.45494  0.75998  0.29930  Biso   1.000  C
  C46      1.0000 0.40225  0.75923  0.29775  Biso   1.000  C
  C47      1.0000 0.98578  0.29930  0.75998  Biso   1.000  C
  C48      1.0000 0.04077  0.29775  0.75923  Biso   1.000  C
  C49      1.0000 0.48578  0.45494  0.25998  Biso   1.000  C
  C50      1.0000 0.54077  0.40225  0.25923  Biso   1.000  C
  C51      1.0000 0.95494  0.98578  0.79930  Biso   1.000  C
  C52      1.0000 0.90225  0.04077  0.79775  Biso   1.000  C
  C53      1.0000 0.75998  0.79930  0.98578  Biso   1.000  C
  C54      1.0000 0.75923  0.79775  0.04077  Biso   1.000  C
  C55      1.0000 0.29930  0.25998  0.45494  Biso   1.000  C
  C56      1.0000 0.29775  0.25923  0.40225  Biso   1.000  C
  C57      1.0000 0.48578  0.25998  0.79930  Biso   1.000  C
  C58      1.0000 0.54077  0.25923  0.79775  Biso   1.000  C
  C59      1.0000 0.95494  0.79930  0.25998  Biso   1.000  C
  C60      1.0000 0.90225  0.79775  0.25923  Biso   1.000  C
  C61      1.0000 0.75998  0.98578  0.45494  Biso   1.000  C
  C62      1.0000 0.75923  0.04077  0.40225  Biso   1.000  C
  C63      1.0000 0.29930  0.45494  0.98578  Biso   1.000  C
  C64      1.0000 0.29775  0.40225  0.04077  Biso   1.000  C
  C65      1.0000 0.48578  0.79930  0.45494  Biso   1.000  C
  C66      1.0000 0.54077  0.79775  0.40225  Biso   1.000  C
  C67      1.0000 0.95494  0.25998  0.98578  Biso   1.000  C
  C68      1.0000 0.90225  0.25923  0.04077  Biso   1.000  C
  C69      1.0000 0.75998  0.45494  0.79930  Biso   1.000  C
  C70      1.0000 0.75923  0.40225  0.79775  Biso   1.000  C
  C71      1.0000 0.29930  0.98578  0.25998  Biso   1.000  C
  C72      1.0000 0.29775  0.04077  0.25923  Biso   1.000  C
  C73      1.0000 0.54506  0.51422  0.24002  Biso   1.000  C
  C74      1.0000 0.59775  0.45923  0.24077  Biso   1.000  C
  C75      1.0000 0.01422  0.04506  0.70070  Biso   1.000  C
  C76      1.0000 0.95923  0.09775  0.70225  Biso   1.000  C
  C77      1.0000 0.20070  0.24002  0.51422  Biso   1.000  C
  C78      1.0000 0.20225  0.24077  0.45923  Biso   1.000  C
  C79      1.0000 0.74002  0.70070  0.04506  Biso   1.000  C
  C80      1.0000 0.74077  0.70225  0.09775  Biso   1.000  C
  C81      1.0000 0.74002  0.51422  0.70070  Biso   1.000  C
  C82      1.0000 0.74077  0.45923  0.70225  Biso   1.000  C
  C83      1.0000 0.20070  0.04506  0.24002  Biso   1.000  C
  C84      1.0000 0.20225  0.09775  0.24077  Biso   1.000  C
  C85      1.0000 0.01422  0.24002  0.04506  Biso   1.000  C
  C86      1.0000 0.95923  0.24077  0.09775  Biso   1.000  C
  C87      1.0000 0.54506  0.70070  0.51422  Biso   1.000  C
  C88      1.0000 0.59775  0.70225  0.45923  Biso   1.000  C
  C89      1.0000 0.20070  0.51422  0.04506  Biso   1.000  C
  C90      1.0000 0.20225  0.45923  0.09775  Biso   1.000  C
  C91      1.0000 0.74002  0.04506  0.51422  Biso   1.000  C
  C92      1.0000 0.74077  0.09775  0.45923  Biso   1.000  C
  C93      1.0000 0.54506  0.24002  0.70070  Biso   1.000  C
  C94      1.0000 0.59775  0.24077  0.70225  Biso   1.000  C
  C95      1.0000 0.01422  0.70070  0.24002  Biso   1.000  C
  C96      1.0000 0.95923  0.70225  0.24077  Biso   1.000  C
  C97      1.0000 0.56912  0.43088  0.75000  Biso   1.000  C
  C98      1.0000 0.51216  0.48784  0.75000  Biso   1.000  C
  C99      1.0000 0.93088  0.06912  0.25000  Biso   1.000  C
  C100     1.0000 0.98784  0.01216  0.25000  Biso   1.000  C
  C101     1.0000 0.25000  0.25000  0.06912  Biso   1.000  C
  C102     1.0000 0.25000  0.25000  0.01216  Biso   1.000  C
  C103     1.0000 0.75000  0.75000  0.43088  Biso   1.000  C
  C104     1.0000 0.75000  0.75000  0.48784  Biso   1.000  C
  C105     1.0000 0.56912  0.75000  0.25000  Biso   1.000  C
  C106     1.0000 0.51216  0.75000  0.25000  Biso   1.000  C
  C107     1.0000 0.93088  0.25000  0.75000  Biso   1.000  C
  C108     1.0000 0.98784  0.25000  0.75000  Biso   1.000  C
  C109     1.0000 0.25000  0.06912  0.43088  Biso   1.000  C
  C110     1.0000 0.25000  0.01216  0.48784  Biso   1.000  C
  C111     1.0000 0.75000  0.43088  0.06912  Biso   1.000  C
  C112     1.0000 0.75000  0.48784  0.01216  Biso   1.000  C
  C113     1.0000 0.56912  0.25000  0.43088  Biso   1.000  C
  C114     1.0000 0.51216  0.25000  0.48784  Biso   1.000  C
  C115     1.0000 0.93088  0.75000  0.06912  Biso   1.000  C
  C116     1.0000 0.98784  0.75000  0.01216  Biso   1.000  C
  C117     1.0000 0.25000  0.43088  0.25000  Biso   1.000  C
  C118     1.0000 0.25000  0.48784  0.25000  Biso   1.000  C
  C119     1.0000 0.75000  0.06912  0.75000  Biso   1.000  C
  C120     1.0000 0.75000  0.01216  0.75000  Biso   1.000  C
  C121     1.0000 0.43088  0.56912  0.25000  Biso   1.000  C
  C122     1.0000 0.48784  0.51216  0.25000  Biso   1.000  C
  C123     1.0000 0.06912  0.93088  0.75000  Biso   1.000  C
  C124     1.0000 0.01216  0.98784  0.75000  Biso   1.000  C
  C125     1.0000 0.75000  0.75000  0.93088  Biso   1.000  C
  C126     1.0000 0.75000  0.75000  0.98784  Biso   1.000  C
  C127     1.0000 0.25000  0.25000  0.56912  Biso   1.000  C
  C128     1.0000 0.25000  0.25000  0.51216  Biso   1.000  C
  C129     1.0000 0.43088  0.25000  0.75000  Biso   1.000  C
  C130     1.0000 0.48784  0.25000  0.75000  Biso   1.000  C
  C131     1.0000 0.06912  0.75000  0.25000  Biso   1.000  C
  C132     1.0000 0.01216  0.75000  0.25000  Biso   1.000  C
  C133     1.0000 0.75000  0.93088  0.56912  Biso   1.000  C
  C134     1.0000 0.75000  0.98784  0.51216  Biso   1.000  C
  C135     1.0000 0.25000  0.56912  0.93088  Biso   1.000  C
  C136     1.0000 0.25000  0.51216  0.98784  Biso   1.000  C
  C137     1.0000 0.43088  0.75000  0.56912  Biso   1.000  C
  C138     1.0000 0.48784  0.75000  0.51216  Biso   1.000  C
  C139     1.0000 0.06912  0.25000  0.93088  Biso   1.000  C
  C140     1.0000 0.01216  0.25000  0.98784  Biso   1.000  C
  C141     1.0000 0.75000  0.56912  0.75000  Biso   1.000  C
  C142     1.0000 0.75000  0.51216  0.75000  Biso   1.000  C
  C143     1.0000 0.25000  0.93088  0.25000  Biso   1.000  C
  C144     1.0000 0.25000  0.98784  0.25000  Biso   1.000  C
  N1       1.0000 0.63182  0.33938  0.74886  Biso   1.000  N
  N2       1.0000 0.57347  0.37799  0.74821  Biso   1.000  N
  N3       1.0000 0.83938  0.13182  0.27994  Biso   1.000  N
  N4       1.0000 0.87799  0.07347  0.30033  Biso   1.000  N
  N5       1.0000 0.24886  0.27994  0.13182  Biso   1.000  N
  N6       1.0000 0.24821  0.30033  0.07347  Biso   1.000  N
  N7       1.0000 0.77994  0.74886  0.33938  Biso   1.000  N
  N8       1.0000 0.80033  0.74821  0.37799  Biso   1.000  N
  N9       1.0000 0.63182  0.74886  0.27994  Biso   1.000  N
  N10      1.0000 0.57347  0.74821  0.30033  Biso   1.000  N
  N11      1.0000 0.83938  0.27994  0.74886  Biso   1.000  N
  N12      1.0000 0.87799  0.30033  0.74821  Biso   1.000  N
  N13      1.0000 0.24886  0.13182  0.33938  Biso   1.000  N
  N14      1.0000 0.24821  0.07347  0.37799  Biso   1.000  N
  N15      1.0000 0.77994  0.33938  0.13182  Biso   1.000  N
  N16      1.0000 0.80033  0.37799  0.07347  Biso   1.000  N
  N17      1.0000 0.63182  0.27994  0.33938  Biso   1.000  N
  N18      1.0000 0.57347  0.30033  0.37799  Biso   1.000  N
  N19      1.0000 0.83938  0.74886  0.13182  Biso   1.000  N
  N20      1.0000 0.87799  0.74821  0.07347  Biso   1.000  N
  N21      1.0000 0.24886  0.33938  0.27994  Biso   1.000  N
  N22      1.0000 0.24821  0.37799  0.30033  Biso   1.000  N
  N23      1.0000 0.77994  0.13182  0.74886  Biso   1.000  N
  N24      1.0000 0.80033  0.07347  0.74821  Biso   1.000  N
  N25      1.0000 0.66062  0.36818  0.75114  Biso   1.000  N
  N26      1.0000 0.62201  0.42653  0.75179  Biso   1.000  N
  N27      1.0000 0.86818  0.16062  0.22006  Biso   1.000  N
  N28      1.0000 0.92653  0.12201  0.19967  Biso   1.000  N
  N29      1.0000 0.72006  0.75114  0.36818  Biso   1.000  N
  N30      1.0000 0.69967  0.75179  0.42653  Biso   1.000  N
  N31      1.0000 0.25114  0.22006  0.16062  Biso   1.000  N
  N32      1.0000 0.25179  0.19967  0.12201  Biso   1.000  N
  N33      1.0000 0.25114  0.36818  0.22006  Biso   1.000  N
  N34      1.0000 0.25179  0.42653  0.19967  Biso   1.000  N
  N35      1.0000 0.72006  0.16062  0.75114  Biso   1.000  N
  N36      1.0000 0.69967  0.12201  0.75179  Biso   1.000  N
  N37      1.0000 0.86818  0.75114  0.16062  Biso   1.000  N
  N38      1.0000 0.92653  0.75179  0.12201  Biso   1.000  N
  N39      1.0000 0.66062  0.22006  0.36818  Biso   1.000  N
  N40      1.0000 0.62201  0.19967  0.42653  Biso   1.000  N
  N41      1.0000 0.72006  0.36818  0.16062  Biso   1.000  N
  N42      1.0000 0.69967  0.42653  0.12201  Biso   1.000  N
  N43      1.0000 0.25114  0.16062  0.36818  Biso   1.000  N
  N44      1.0000 0.25179  0.12201  0.42653  Biso   1.000  N
  N45      1.0000 0.66062  0.75114  0.22006  Biso   1.000  N
  N46      1.0000 0.62201  0.75179  0.19967  Biso   1.000  N
  N47      1.0000 0.86818  0.22006  0.75114  Biso   1.000  N
  N48      1.0000 0.92653  0.19967  0.75179  Biso   1.000  N
  N49      1.0000 0.36818  0.66062  0.25114  Biso   1.000  N
  N50      1.0000 0.42653  0.62201  0.25179  Biso   1.000  N
  N51      1.0000 0.16062  0.86818  0.72006  Biso   1.000  N
  N52      1.0000 0.12201  0.92653  0.69967  Biso   1.000  N
  N53      1.0000 0.75114  0.72006  0.86818  Biso   1.000  N
  N54      1.0000 0.75179  0.69967  0.92653  Biso   1.000  N
  N55      1.0000 0.22006  0.25114  0.66062  Biso   1.000  N
  N56      1.0000 0.19967  0.25179  0.62201  Biso   1.000  N
  N57      1.0000 0.36818  0.25114  0.72006  Biso   1.000  N
  N58      1.0000 0.42653  0.25179  0.69967  Biso   1.000  N
  N59      1.0000 0.16062  0.72006  0.25114  Biso   1.000  N
  N60      1.0000 0.12201  0.69967  0.25179  Biso   1.000  N
  N61      1.0000 0.75114  0.86818  0.66062  Biso   1.000  N
  N62      1.0000 0.75179  0.92653  0.62201  Biso   1.000  N
  N63      1.0000 0.22006  0.66062  0.86818  Biso   1.000  N
  N64      1.0000 0.19967  0.62201  0.92653  Biso   1.000  N
  N65      1.0000 0.36818  0.72006  0.66062  Biso   1.000  N
  N66      1.0000 0.42653  0.69967  0.62201  Biso   1.000  N
  N67      1.0000 0.16062  0.25114  0.86818  Biso   1.000  N
  N68      1.0000 0.12201  0.25179  0.92653  Biso   1.000  N
  N69      1.0000 0.75114  0.66062  0.72006  Biso   1.000  N
  N70      1.0000 0.75179  0.62201  0.69967  Biso   1.000  N
  N71      1.0000 0.22006  0.86818  0.25114  Biso   1.000  N
  N72      1.0000 0.19967  0.92653  0.25179  Biso   1.000  N
  N73      1.0000 0.33938  0.63182  0.24886  Biso   1.000  N
  N74      1.0000 0.37799  0.57347  0.24821  Biso   1.000  N
  N75      1.0000 0.13182  0.83938  0.77994  Biso   1.000  N
  N76      1.0000 0.07347  0.87799  0.80033  Biso   1.000  N
  N77      1.0000 0.27994  0.24886  0.63182  Biso   1.000  N
  N78      1.0000 0.30033  0.24821  0.57347  Biso   1.000  N
  N79      1.0000 0.74886  0.77994  0.83938  Biso   1.000  N
  N80      1.0000 0.74821  0.80033  0.87799  Biso   1.000  N
  N81      1.0000 0.74886  0.63182  0.77994  Biso   1.000  N
  N82      1.0000 0.74821  0.57347  0.80033  Biso   1.000  N
  N83      1.0000 0.27994  0.83938  0.24886  Biso   1.000  N
  N84      1.0000 0.30033  0.87799  0.24821  Biso   1.000  N
  N85      1.0000 0.13182  0.24886  0.83938  Biso   1.000  N
  N86      1.0000 0.07347  0.24821  0.87799  Biso   1.000  N
  N87      1.0000 0.33938  0.77994  0.63182  Biso   1.000  N
  N88      1.0000 0.37799  0.80033  0.57347  Biso   1.000  N
  N89      1.0000 0.27994  0.63182  0.83938  Biso   1.000  N
  N90      1.0000 0.30033  0.57347  0.87799  Biso   1.000  N
  N91      1.0000 0.74886  0.83938  0.63182  Biso   1.000  N
  N92      1.0000 0.74821  0.87799  0.57347  Biso   1.000  N
  N93      1.0000 0.33938  0.24886  0.77994  Biso   1.000  N
  N94      1.0000 0.37799  0.24821  0.80033  Biso   1.000  N
  N95      1.0000 0.13182  0.77994  0.24886  Biso   1.000  N
  N96      1.0000 0.07347  0.80033  0.24821  Biso   1.000  N
  N97      1.0000 0.40472  0.59528  0.75000  Biso   1.000  N
  N98      1.0000 0.09528  0.90472  0.25000  Biso   1.000  N
  N99      1.0000 0.25000  0.25000  0.90472  Biso   1.000  N
  N100     1.0000 0.75000  0.75000  0.59528  Biso   1.000  N
  N101     1.0000 0.40472  0.75000  0.25000  Biso   1.000  N
  N102     1.0000 0.09528  0.25000  0.75000  Biso   1.000  N
  N103     1.0000 0.25000  0.90472  0.59528  Biso   1.000  N
  N104     1.0000 0.75000  0.59528  0.90472  Biso   1.000  N
  N105     1.0000 0.40472  0.25000  0.59528  Biso   1.000  N
  N106     1.0000 0.09528  0.75000  0.90472  Biso   1.000  N
  N107     1.0000 0.25000  0.59528  0.25000  Biso   1.000  N
  N108     1.0000 0.75000  0.90472  0.75000  Biso   1.000  N
  N109     1.0000 0.59528  0.40472  0.25000  Biso   1.000  N
  N110     1.0000 0.90472  0.09528  0.75000  Biso   1.000  N
  N111     1.0000 0.75000  0.75000  0.09528  Biso   1.000  N
  N112     1.0000 0.25000  0.25000  0.40472  Biso   1.000  N
  N113     1.0000 0.59528  0.25000  0.75000  Biso   1.000  N
  N114     1.0000 0.90472  0.75000  0.25000  Biso   1.000  N
  N115     1.0000 0.75000  0.09528  0.40472  Biso   1.000  N
  N116     1.0000 0.25000  0.40472  0.09528  Biso   1.000  N
  N117     1.0000 0.59528  0.75000  0.40472  Biso   1.000  N
  N118     1.0000 0.90472  0.25000  0.09528  Biso   1.000  N
  N119     1.0000 0.75000  0.40472  0.75000  Biso   1.000  N
  N120     1.0000 0.25000  0.09528  0.25000  Biso   1.000  N
  O1       1.0000 0.75000  0.25000  0.75000  Biso   1.000  O
  O2       1.0000 0.75000  0.25000  0.25000  Biso   1.000  O
  O3       1.0000 0.25000  0.25000  0.25000  Biso   1.000  O
  O4       1.0000 0.75000  0.75000  0.25000  Biso   1.000  O
  O5       1.0000 0.25000  0.75000  0.25000  Biso   1.000  O
  O6       1.0000 0.25000  0.75000  0.75000  Biso   1.000  O
  O7       1.0000 0.75000  0.75000  0.75000  Biso   1.000  O
  O8       1.0000 0.25000  0.25000  0.75000  Biso   1.000  O
