data_image0
_cell_length_a       9.1337
_cell_length_b       14.4635
_cell_length_c       18.0343
_cell_angle_alpha    93.353
_cell_angle_beta     102.988
_cell_angle_gamma    91.068

_symmetry_space_group_name_H-M    "P 1"
_symmetry_int_tables_number       1

loop_
  _symmetry_equiv_pos_as_xyz
  'x, y, z'

loop_
  _atom_site_label
  _atom_site_occupancy
  _atom_site_fract_x
  _atom_site_fract_y
  _atom_site_fract_z
  _atom_site_thermal_displace_type
  _atom_site_B_iso_or_equiv
  _atom_site_type_symbol
  Zn1      1.0000 0.16031  0.73439  0.59942  Biso   1.000  Zn
  Zn2      1.0000 0.85378  0.27461  0.92466  Biso   1.000  Zn
  C1       1.0000 0.71650  0.12960  0.82970  Biso   1.000  C
  C2       1.0000 0.59230  0.06020  0.80380  Biso   1.000  C
  C3       1.0000 0.47930  0.03940  0.83730  Biso   1.000  C
  H1       1.0000 0.46900  0.06760  0.88340  Biso   1.000  H
  C4       1.0000 0.38060  0.97220  0.79630  Biso   1.000  C
  H2       1.0000 0.29690  0.95030  0.81220  Biso   1.000  H
  C5       1.0000 0.41680  0.94070  0.73060  Biso   1.000  C
  C6       1.0000 0.34200  0.86980  0.67220  Biso   1.000  C
  C7       1.0000 0.76110  0.24970  0.07270  Biso   1.000  C
  H3       1.0000 0.69090  0.20250  0.05150  Biso   1.000  H
  C8       1.0000 0.79580  0.27990  0.14610  Biso   1.000  C
  H4       1.0000 0.75360  0.25900  0.18470  Biso   1.000  H
  C9       1.0000 0.92910  0.35660  0.08510  Biso   1.000  C
  H5       1.0000 0.99790  0.39920  0.07450  Biso   1.000  H
  C10      1.0000 0.98560  0.39940  0.22330  Biso   1.000  C
  H6       1.0000 0.09230  0.38880  0.23060  Biso   1.000  H
  H7       1.0000 0.95260  0.37670  0.26660  Biso   1.000  H
  C11      1.0000 0.96110  0.50130  0.22100  Biso   1.000  C
  H8       1.0000 0.85560  0.51320  0.21740  Biso   1.000  H
  H9       1.0000 0.98950  0.52440  0.17660  Biso   1.000  H
  C12      1.0000 0.05620  0.55040  0.29350  Biso   1.000  C
  H10      1.0000 0.02620  0.52740  0.33740  Biso   1.000  H
  H11      1.0000 0.16100  0.53640  0.29740  Biso   1.000  H
  C13      1.0000 0.04020  0.65090  0.29430  Biso   1.000  C
  H12      1.0000 0.93430  0.66480  0.28390  Biso   1.000  H
  H13      1.0000 0.08250  0.67530  0.25440  Biso   1.000  H
  C14      1.0000 0.22550  0.76220  0.38130  Biso   1.000  C
  H14      1.0000 0.27120  0.78720  0.34540  Biso   1.000  H
  C15      1.0000 0.25500  0.78520  0.45560  Biso   1.000  C
  H15      1.0000 0.32580  0.83030  0.48050  Biso   1.000  H
  C16      1.0000 0.08450  0.68100  0.43420  Biso   1.000  C
  H16      1.0000 0.01170  0.63830  0.44060  Biso   1.000  H
  C17      1.0000 0.13120  0.23170  0.86680  Biso   1.000  C
  H17      1.0000 0.08310  0.18770  0.82910  Biso   1.000  H
  C18      1.0000 0.27630  0.25990  0.87930  Biso   1.000  C
  H18      1.0000 0.34610  0.23880  0.85240  Biso   1.000  H
  C19      1.0000 0.17410  0.33270  0.96080  Biso   1.000  C
  H19      1.0000 0.16160  0.37190  0.00140  Biso   1.000  H
  C20      1.0000 0.44250  0.37150  0.97590  Biso   1.000  C
  H20      1.0000 0.52030  0.35240  0.95000  Biso   1.000  H
  H21      1.0000 0.47140  0.35360  0.02810  Biso   1.000  H
  C21      1.0000 0.42990  0.47590  0.97590  Biso   1.000  C
  H22      1.0000 0.41460  0.49470  0.92400  Biso   1.000  H
  H23      1.0000 0.34360  0.49420  0.99560  Biso   1.000  H
  C22      1.0000 0.86040  0.77500  0.63520  Biso   1.000  C
  H24      1.0000 0.89960  0.82740  0.66610  Biso   1.000  H
  C23      1.0000 0.71650  0.74640  0.61920  Biso   1.000  C
  H25      1.0000 0.63880  0.77440  0.63670  Biso   1.000  H
  C24      1.0000 0.84400  0.65250  0.56200  Biso   1.000  C
  H26      1.0000 0.86780  0.60290  0.53220  Biso   1.000  H
  C25      1.0000 0.56360  0.62140  0.53070  Biso   1.000  C
  H27      1.0000 0.48430  0.63760  0.55650  Biso   1.000  H
  H28      1.0000 0.53630  0.64310  0.47970  Biso   1.000  H
  C26      1.0000 0.57480  0.52220  0.52560  Biso   1.000  C
  H29      1.0000 0.59180  0.49900  0.57610  Biso   1.000  H
  H30      1.0000 0.65900  0.50550  0.50350  Biso   1.000  H
  C27      1.0000 0.70950  0.44120  0.84930  Biso   1.000  C
  C28      1.0000 0.57750  0.44840  0.78470  Biso   1.000  C
  C29      1.0000 0.49840  0.37700  0.74090  Biso   1.000  C
  H31      1.0000 0.52060  0.31520  0.74750  Biso   1.000  H
  C30      1.0000 0.38010  0.40620  0.68490  Biso   1.000  C
  H32      1.0000 0.31490  0.36580  0.65020  Biso   1.000  H
  C31      1.0000 0.37060  0.49860  0.68660  Biso   1.000  C
  C32      1.0000 0.26060  0.55580  0.63710  Biso   1.000  C
  O1       1.0000 0.72890  0.16420  0.89674  Biso   1.000  O
  O2       1.0000 0.79800  0.14920  0.78740  Biso   1.000  O
  O3       1.0000 0.21340  0.84010  0.67654  Biso   1.000  O
  O4       1.0000 0.40500  0.84240  0.62159  Biso   1.000  O
  O5       1.0000 0.74520  0.35930  0.86000  Biso   1.000  O
  O6       1.0000 0.76910  0.51010  0.88510  Biso   1.000  O
  O7       1.0000 0.16330  0.51950  0.58468  Biso   1.000  O
  O8       1.0000 0.27880  0.64150  0.65498  Biso   1.000  O
  N1       1.0000 0.84430  0.29850  0.03375  Biso   1.000  N
  N2       1.0000 0.90470  0.34710  0.15360  Biso   1.000  N
  N3       1.0000 0.11640  0.69580  0.36802  Biso   1.000  N
  N4       1.0000 0.16810  0.73390  0.48986  Biso   1.000  N
  N5       1.0000 0.06640  0.27780  0.91820  Biso   1.000  N
  N6       1.0000 0.30180  0.32480  0.93840  Biso   1.000  N
  N7       1.0000 0.94160  0.71630  0.59971  Biso   1.000  N
  N8       1.0000 0.70580  0.66860  0.57230  Biso   1.000  N
  S1       1.0000 0.57634  0.99578  0.71972  Biso   1.000  S
  S2       1.0000 0.50739  0.55187  0.75769  Biso   1.000  S
  Zn3      1.0000 0.83969  0.26561  0.40058  Biso   1.000  Zn
  Zn4      1.0000 0.14622  0.72539  0.07534  Biso   1.000  Zn
  C33      1.0000 0.28350  0.87040  0.17030  Biso   1.000  C
  C34      1.0000 0.40770  0.93980  0.19620  Biso   1.000  C
  C35      1.0000 0.52070  0.96060  0.16270  Biso   1.000  C
  H33      1.0000 0.53100  0.93240  0.11660  Biso   1.000  H
  C36      1.0000 0.61940  0.02780  0.20370  Biso   1.000  C
  H34      1.0000 0.70310  0.04970  0.18780  Biso   1.000  H
  C37      1.0000 0.58320  0.05930  0.26940  Biso   1.000  C
  C38      1.0000 0.65800  0.13020  0.32780  Biso   1.000  C
  C39      1.0000 0.23890  0.75030  0.92730  Biso   1.000  C
  H35      1.0000 0.30910  0.79750  0.94850  Biso   1.000  H
  C40      1.0000 0.20420  0.72010  0.85390  Biso   1.000  C
  H36      1.0000 0.24640  0.74100  0.81530  Biso   1.000  H
  C41      1.0000 0.07090  0.64340  0.91490  Biso   1.000  C
  H37      1.0000 0.00210  0.60080  0.92550  Biso   1.000  H
  C42      1.0000 0.01440  0.60060  0.77670  Biso   1.000  C
  H38      1.0000 0.90770  0.61120  0.76940  Biso   1.000  H
  H39      1.0000 0.04740  0.62330  0.73340  Biso   1.000  H
  C43      1.0000 0.03890  0.49870  0.77900  Biso   1.000  C
  H40      1.0000 0.14440  0.48680  0.78260  Biso   1.000  H
  H41      1.0000 0.01050  0.47560  0.82340  Biso   1.000  H
  C44      1.0000 0.94380  0.44960  0.70650  Biso   1.000  C
  H42      1.0000 0.97380  0.47260  0.66260  Biso   1.000  H
  H43      1.0000 0.83900  0.46360  0.70260  Biso   1.000  H
  C45      1.0000 0.95980  0.34910  0.70570  Biso   1.000  C
  H44      1.0000 0.06570  0.33520  0.71610  Biso   1.000  H
  H45      1.0000 0.91750  0.32470  0.74560  Biso   1.000  H
  C46      1.0000 0.77450  0.23780  0.61870  Biso   1.000  C
  H46      1.0000 0.72880  0.21280  0.65460  Biso   1.000  H
  C47      1.0000 0.74500  0.21480  0.54440  Biso   1.000  C
  H47      1.0000 0.67420  0.16970  0.51950  Biso   1.000  H
  C48      1.0000 0.91550  0.31900  0.56580  Biso   1.000  C
  H48      1.0000 0.98830  0.36170  0.55940  Biso   1.000  H
  C49      1.0000 0.86880  0.76830  0.13320  Biso   1.000  C
  H49      1.0000 0.91690  0.81230  0.17090  Biso   1.000  H
  C50      1.0000 0.72370  0.74010  0.12070  Biso   1.000  C
  H50      1.0000 0.65390  0.76120  0.14760  Biso   1.000  H
  C51      1.0000 0.82590  0.66730  0.03920  Biso   1.000  C
  H51      1.0000 0.83840  0.62810  0.99860  Biso   1.000  H
  C52      1.0000 0.55750  0.62850  0.02410  Biso   1.000  C
  H52      1.0000 0.47970  0.64760  0.05000  Biso   1.000  H
  H53      1.0000 0.52860  0.64640  0.97190  Biso   1.000  H
  C53      1.0000 0.57010  0.52410  0.02410  Biso   1.000  C
  H54      1.0000 0.58540  0.50530  0.07600  Biso   1.000  H
  H55      1.0000 0.65640  0.50580  0.00440  Biso   1.000  H
  C54      1.0000 0.13960  0.22500  0.36480  Biso   1.000  C
  H56      1.0000 0.10040  0.17260  0.33390  Biso   1.000  H
  C55      1.0000 0.28350  0.25360  0.38080  Biso   1.000  C
  H57      1.0000 0.36120  0.22560  0.36330  Biso   1.000  H
  C56      1.0000 0.15600  0.34750  0.43800  Biso   1.000  C
  H58      1.0000 0.13220  0.39710  0.46780  Biso   1.000  H
  C57      1.0000 0.43640  0.37860  0.46930  Biso   1.000  C
  H59      1.0000 0.51570  0.36240  0.44350  Biso   1.000  H
  H60      1.0000 0.46370  0.35690  0.52030  Biso   1.000  H
  C58      1.0000 0.42520  0.47780  0.47440  Biso   1.000  C
  H61      1.0000 0.40820  0.50100  0.42390  Biso   1.000  H
  H62      1.0000 0.34100  0.49450  0.49650  Biso   1.000  H
  C59      1.0000 0.29050  0.55880  0.15070  Biso   1.000  C
  C60      1.0000 0.42250  0.55160  0.21530  Biso   1.000  C
  C61      1.0000 0.50160  0.62300  0.25910  Biso   1.000  C
  H63      1.0000 0.47940  0.68480  0.25250  Biso   1.000  H
  C62      1.0000 0.61990  0.59380  0.31510  Biso   1.000  C
  H64      1.0000 0.68510  0.63420  0.34980  Biso   1.000  H
  C63      1.0000 0.62940  0.50140  0.31340  Biso   1.000  C
  C64      1.0000 0.73940  0.44420  0.36290  Biso   1.000  C
  O9       1.0000 0.27110  0.83580  0.10326  Biso   1.000  O
  O10      1.0000 0.20200  0.85080  0.21260  Biso   1.000  O
  O11      1.0000 0.78660  0.15990  0.32346  Biso   1.000  O
  O12      1.0000 0.59500  0.15760  0.37841  Biso   1.000  O
  O13      1.0000 0.25480  0.64070  0.14000  Biso   1.000  O
  O14      1.0000 0.23090  0.48990  0.11490  Biso   1.000  O
  O15      1.0000 0.83670  0.48050  0.41532  Biso   1.000  O
  O16      1.0000 0.72120  0.35850  0.34502  Biso   1.000  O
  N9       1.0000 0.15570  0.70150  0.96625  Biso   1.000  N
  N10      1.0000 0.09530  0.65290  0.84640  Biso   1.000  N
  N11      1.0000 0.88360  0.30420  0.63198  Biso   1.000  N
  N12      1.0000 0.83190  0.26610  0.51014  Biso   1.000  N
  N13      1.0000 0.93360  0.72220  0.08180  Biso   1.000  N
  N14      1.0000 0.69820  0.67520  0.06160  Biso   1.000  N
  N15      1.0000 0.05840  0.28370  0.40029  Biso   1.000  N
  N16      1.0000 0.29420  0.33140  0.42770  Biso   1.000  N
  S3       1.0000 0.42366  0.00422  0.28028  Biso   1.000  S
  S4       1.0000 0.49261  0.44813  0.24231  Biso   1.000  S
