data_image0
_cell_length_a       33.4968
_cell_length_b       33.4968
_cell_length_c       8.5164
_cell_angle_alpha    90
_cell_angle_beta     90
_cell_angle_gamma    120

_symmetry_space_group_name_H-M    "P 1"
_symmetry_int_tables_number       1

loop_
  _symmetry_equiv_pos_as_xyz
  'x, y, z'

loop_
  _atom_site_label
  _atom_site_occupancy
  _atom_site_fract_x
  _atom_site_fract_y
  _atom_site_fract_z
  _atom_site_thermal_displace_type
  _atom_site_B_iso_or_equiv
  _atom_site_type_symbol
  Ag1      1.0000 0.14725  0.32307  0.50308  Biso   1.000  Ag
  O1       1.0000 0.33676  0.33306  0.78490  Biso   1.000  O
  N1       1.0000 0.20678  0.34446  0.65880  Biso   1.000  N
  N2       1.0000 0.28152  0.19960  0.62170  Biso   1.000  N
  C1       1.0000 0.21791  0.37884  0.76250  Biso   1.000  C
  H1       1.0000 0.20070  0.39430  0.76190  Biso   1.000  H
  C2       1.0000 0.25350  0.39251  0.87000  Biso   1.000  C
  H2       1.0000 0.26020  0.41660  0.94250  Biso   1.000  H
  C3       1.0000 0.27891  0.37043  0.86970  Biso   1.000  C
  H3       1.0000 0.30410  0.37970  0.93970  Biso   1.000  H
  C4       1.0000 0.26700  0.33432  0.76490  Biso   1.000  C
  C5       1.0000 0.23083  0.32234  0.66310  Biso   1.000  C
  H4       1.0000 0.22260  0.29740  0.59290  Biso   1.000  H
  C6       1.0000 0.29514  0.31102  0.76020  Biso   1.000  C
  C7       1.0000 0.27219  0.26080  0.72830  Biso   1.000  C
  C8       1.0000 0.22840  0.22990  0.77750  Biso   1.000  C
  H5       1.0000 0.21000  0.24010  0.82950  Biso   1.000  H
  C9       1.0000 0.21140  0.18330  0.74990  Biso   1.000  C
  H6       1.0000 0.18150  0.16120  0.78480  Biso   1.000  H
  C10      1.0000 0.23830  0.16965  0.67200  Biso   1.000  C
  H7       1.0000 0.22600  0.13770  0.65230  Biso   1.000  H
  C11      1.0000 0.29763  0.24404  0.65090  Biso   1.000  C
  H8       1.0000 0.32800  0.26550  0.61740  Biso   1.000  H
  Ag2      1.0000 0.81392  0.65640  0.83641  Biso   1.000  Ag
  O2       1.0000 0.00343  0.66639  0.11823  Biso   1.000  O
  N3       1.0000 0.87345  0.67779  0.99213  Biso   1.000  N
  N4       1.0000 0.94819  0.53293  0.95503  Biso   1.000  N
  C12      1.0000 0.88458  0.71217  0.09583  Biso   1.000  C
  H9       1.0000 0.86737  0.72763  0.09523  Biso   1.000  H
  C13      1.0000 0.92017  0.72584  0.20333  Biso   1.000  C
  H10      1.0000 0.92687  0.74993  0.27583  Biso   1.000  H
  C14      1.0000 0.94558  0.70376  0.20303  Biso   1.000  C
  H11      1.0000 0.97077  0.71303  0.27303  Biso   1.000  H
  C15      1.0000 0.93367  0.66765  0.09823  Biso   1.000  C
  C16      1.0000 0.89750  0.65567  0.99643  Biso   1.000  C
  H12      1.0000 0.88927  0.63073  0.92623  Biso   1.000  H
  C17      1.0000 0.96181  0.64435  0.09353  Biso   1.000  C
  C18      1.0000 0.93886  0.59413  0.06163  Biso   1.000  C
  C19      1.0000 0.89507  0.56323  0.11083  Biso   1.000  C
  H13      1.0000 0.87667  0.57343  0.16283  Biso   1.000  H
  C20      1.0000 0.87807  0.51663  0.08323  Biso   1.000  C
  H14      1.0000 0.84817  0.49453  0.11813  Biso   1.000  H
  C21      1.0000 0.90497  0.50298  0.00533  Biso   1.000  C
  H15      1.0000 0.89267  0.47103  0.98563  Biso   1.000  H
  C22      1.0000 0.96430  0.57737  0.98423  Biso   1.000  C
  H16      1.0000 0.99467  0.59883  0.95073  Biso   1.000  H
  Ag3      1.0000 0.48059  0.98973  0.16975  Biso   1.000  Ag
  O3       1.0000 0.67009  0.99973  0.45157  Biso   1.000  O
  N5       1.0000 0.54011  0.01113  0.32547  Biso   1.000  N
  N6       1.0000 0.61485  0.86627  0.28837  Biso   1.000  N
  C23      1.0000 0.55124  0.04551  0.42917  Biso   1.000  C
  H17      1.0000 0.53403  0.06097  0.42857  Biso   1.000  H
  C24      1.0000 0.58683  0.05918  0.53667  Biso   1.000  C
  H18      1.0000 0.59353  0.08327  0.60917  Biso   1.000  H
  C25      1.0000 0.61224  0.03710  0.53637  Biso   1.000  C
  H19      1.0000 0.63743  0.04637  0.60637  Biso   1.000  H
  C26      1.0000 0.60033  0.00099  0.43157  Biso   1.000  C
  C27      1.0000 0.56416  0.98901  0.32977  Biso   1.000  C
  H20      1.0000 0.55593  0.96407  0.25957  Biso   1.000  H
  C28      1.0000 0.62847  0.97769  0.42687  Biso   1.000  C
  C29      1.0000 0.60552  0.92747  0.39497  Biso   1.000  C
  C30      1.0000 0.56173  0.89657  0.44417  Biso   1.000  C
  H21      1.0000 0.54333  0.90677  0.49617  Biso   1.000  H
  C31      1.0000 0.54473  0.84997  0.41657  Biso   1.000  C
  H22      1.0000 0.51483  0.82787  0.45147  Biso   1.000  H
  C32      1.0000 0.57163  0.83632  0.33867  Biso   1.000  C
  H23      1.0000 0.55933  0.80437  0.31897  Biso   1.000  H
  C33      1.0000 0.63096  0.91071  0.31757  Biso   1.000  C
  H24      1.0000 0.66133  0.93217  0.28407  Biso   1.000  H
  Ag4      1.0000 0.67693  0.82419  0.50308  Biso   1.000  Ag
  O4       1.0000 0.66694  0.00370  0.78490  Biso   1.000  O
  N7       1.0000 0.65554  0.86232  0.65880  Biso   1.000  N
  N8       1.0000 0.80040  0.08192  0.62170  Biso   1.000  N
  C34      1.0000 0.62116  0.83907  0.76250  Biso   1.000  C
  H25      1.0000 0.60570  0.80640  0.76190  Biso   1.000  H
  C35      1.0000 0.60749  0.86099  0.87000  Biso   1.000  C
  H26      1.0000 0.58340  0.84360  0.94250  Biso   1.000  H
  C36      1.0000 0.62957  0.90848  0.86970  Biso   1.000  C
  H27      1.0000 0.62030  0.92440  0.93970  Biso   1.000  H
  C37      1.0000 0.66568  0.93268  0.76490  Biso   1.000  C
  C38      1.0000 0.67766  0.90849  0.66310  Biso   1.000  C
  H28      1.0000 0.70260  0.92520  0.59290  Biso   1.000  H
  C39      1.0000 0.68898  0.98412  0.76020  Biso   1.000  C
  C40      1.0000 0.73920  0.01139  0.72830  Biso   1.000  C
  C41      1.0000 0.77010  0.99850  0.77750  Biso   1.000  C
  H29      1.0000 0.75990  0.96990  0.82950  Biso   1.000  H
  C42      1.0000 0.81670  0.02810  0.74990  Biso   1.000  C
  H30      1.0000 0.83880  0.02030  0.78480  Biso   1.000  H
  C43      1.0000 0.83035  0.06865  0.67200  Biso   1.000  C
  H31      1.0000 0.86230  0.08830  0.65230  Biso   1.000  H
  C44      1.0000 0.75596  0.05359  0.65090  Biso   1.000  C
  H32      1.0000 0.73450  0.06250  0.61740  Biso   1.000  H
  Ag5      1.0000 0.34360  0.15752  0.83641  Biso   1.000  Ag
  O5       1.0000 0.33361  0.33703  0.11823  Biso   1.000  O
  N9       1.0000 0.32221  0.19565  0.99213  Biso   1.000  N
  N10      1.0000 0.46707  0.41525  0.95503  Biso   1.000  N
  C45      1.0000 0.28783  0.17240  0.09583  Biso   1.000  C
  H33      1.0000 0.27237  0.13973  0.09523  Biso   1.000  H
  C46      1.0000 0.27416  0.19432  0.20333  Biso   1.000  C
  H34      1.0000 0.25007  0.17693  0.27583  Biso   1.000  H
  C47      1.0000 0.29624  0.24181  0.20303  Biso   1.000  C
  H35      1.0000 0.28697  0.25773  0.27303  Biso   1.000  H
  C48      1.0000 0.33235  0.26601  0.09823  Biso   1.000  C
  C49      1.0000 0.34433  0.24182  0.99643  Biso   1.000  C
  H36      1.0000 0.36927  0.25853  0.92623  Biso   1.000  H
  C50      1.0000 0.35565  0.31745  0.09353  Biso   1.000  C
  C51      1.0000 0.40587  0.34472  0.06163  Biso   1.000  C
  C52      1.0000 0.43677  0.33183  0.11083  Biso   1.000  C
  H37      1.0000 0.42657  0.30323  0.16283  Biso   1.000  H
  C53      1.0000 0.48337  0.36143  0.08323  Biso   1.000  C
  H38      1.0000 0.50547  0.35363  0.11813  Biso   1.000  H
  C54      1.0000 0.49702  0.40198  0.00533  Biso   1.000  C
  H39      1.0000 0.52897  0.42163  0.98563  Biso   1.000  H
  C55      1.0000 0.42263  0.38692  0.98423  Biso   1.000  C
  H40      1.0000 0.40117  0.39583  0.95073  Biso   1.000  H
  Ag6      1.0000 0.01027  0.49085  0.16975  Biso   1.000  Ag
  O6       1.0000 0.00027  0.67037  0.45157  Biso   1.000  O
  N11      1.0000 0.98887  0.52899  0.32547  Biso   1.000  N
  N12      1.0000 0.13373  0.74859  0.28837  Biso   1.000  N
  C56      1.0000 0.95449  0.50574  0.42917  Biso   1.000  C
  H41      1.0000 0.93903  0.47307  0.42857  Biso   1.000  H
  C57      1.0000 0.94082  0.52766  0.53667  Biso   1.000  C
  H42      1.0000 0.91673  0.51027  0.60917  Biso   1.000  H
  C58      1.0000 0.96290  0.57515  0.53637  Biso   1.000  C
  H43      1.0000 0.95363  0.59107  0.60637  Biso   1.000  H
  C59      1.0000 0.99901  0.59935  0.43157  Biso   1.000  C
  C60      1.0000 0.01099  0.57516  0.32977  Biso   1.000  C
  H44      1.0000 0.03593  0.59187  0.25957  Biso   1.000  H
  C61      1.0000 0.02231  0.65079  0.42687  Biso   1.000  C
  C62      1.0000 0.07253  0.67806  0.39497  Biso   1.000  C
  C63      1.0000 0.10343  0.66517  0.44417  Biso   1.000  C
  H45      1.0000 0.09323  0.63657  0.49617  Biso   1.000  H
  C64      1.0000 0.15003  0.69477  0.41657  Biso   1.000  C
  H46      1.0000 0.17213  0.68697  0.45147  Biso   1.000  H
  C65      1.0000 0.16368  0.73532  0.33867  Biso   1.000  C
  H47      1.0000 0.19563  0.75497  0.31897  Biso   1.000  H
  C66      1.0000 0.08929  0.72026  0.31757  Biso   1.000  C
  H48      1.0000 0.06783  0.72917  0.28407  Biso   1.000  H
  Ag7      1.0000 0.17581  0.85275  0.50308  Biso   1.000  Ag
  O7       1.0000 0.99630  0.66324  0.78490  Biso   1.000  O
  N13      1.0000 0.13768  0.79322  0.65880  Biso   1.000  N
  N14      1.0000 0.91808  0.71848  0.62170  Biso   1.000  N
  C67      1.0000 0.16093  0.78209  0.76250  Biso   1.000  C
  H49      1.0000 0.19360  0.79930  0.76190  Biso   1.000  H
  C68      1.0000 0.13901  0.74650  0.87000  Biso   1.000  C
  H50      1.0000 0.15640  0.73980  0.94250  Biso   1.000  H
  C69      1.0000 0.09152  0.72109  0.86970  Biso   1.000  C
  H51      1.0000 0.07560  0.69590  0.93970  Biso   1.000  H
  C70      1.0000 0.06732  0.73300  0.76490  Biso   1.000  C
  C71      1.0000 0.09151  0.76917  0.66310  Biso   1.000  C
  H52      1.0000 0.07480  0.77740  0.59290  Biso   1.000  H
  C72      1.0000 0.01588  0.70486  0.76020  Biso   1.000  C
  C73      1.0000 0.98861  0.72781  0.72830  Biso   1.000  C
  C74      1.0000 0.00150  0.77160  0.77750  Biso   1.000  C
  H53      1.0000 0.03010  0.79000  0.82950  Biso   1.000  H
  C75      1.0000 0.97190  0.78860  0.74990  Biso   1.000  C
  H54      1.0000 0.97970  0.81850  0.78480  Biso   1.000  H
  C76      1.0000 0.93135  0.76170  0.67200  Biso   1.000  C
  H55      1.0000 0.91170  0.77400  0.65230  Biso   1.000  H
  C77      1.0000 0.94641  0.70237  0.65090  Biso   1.000  C
  H56      1.0000 0.93750  0.67200  0.61740  Biso   1.000  H
  Ag8      1.0000 0.84248  0.18608  0.83641  Biso   1.000  Ag
  O8       1.0000 0.66297  0.99657  0.11823  Biso   1.000  O
  N15      1.0000 0.80435  0.12655  0.99213  Biso   1.000  N
  N16      1.0000 0.58475  0.05181  0.95503  Biso   1.000  N
  C78      1.0000 0.82760  0.11542  0.09583  Biso   1.000  C
  H57      1.0000 0.86027  0.13263  0.09523  Biso   1.000  H
  C79      1.0000 0.80568  0.07983  0.20333  Biso   1.000  C
  H58      1.0000 0.82307  0.07313  0.27583  Biso   1.000  H
  C80      1.0000 0.75819  0.05442  0.20303  Biso   1.000  C
  H59      1.0000 0.74227  0.02923  0.27303  Biso   1.000  H
  C81      1.0000 0.73399  0.06633  0.09823  Biso   1.000  C
  C82      1.0000 0.75818  0.10250  0.99643  Biso   1.000  C
  H60      1.0000 0.74147  0.11073  0.92623  Biso   1.000  H
  C83      1.0000 0.68255  0.03819  0.09353  Biso   1.000  C
  C84      1.0000 0.65528  0.06114  0.06163  Biso   1.000  C
  C85      1.0000 0.66817  0.10493  0.11083  Biso   1.000  C
  H61      1.0000 0.69677  0.12333  0.16283  Biso   1.000  H
  C86      1.0000 0.63857  0.12193  0.08323  Biso   1.000  C
  H62      1.0000 0.64637  0.15183  0.11813  Biso   1.000  H
  C87      1.0000 0.59802  0.09503  0.00533  Biso   1.000  C
  H63      1.0000 0.57837  0.10733  0.98563  Biso   1.000  H
  C88      1.0000 0.61308  0.03570  0.98423  Biso   1.000  C
  H64      1.0000 0.60417  0.00533  0.95073  Biso   1.000  H
  Ag9      1.0000 0.50915  0.51941  0.16975  Biso   1.000  Ag
  O9       1.0000 0.32963  0.32991  0.45157  Biso   1.000  O
  N17      1.0000 0.47101  0.45989  0.32547  Biso   1.000  N
  N18      1.0000 0.25141  0.38515  0.28837  Biso   1.000  N
  C89      1.0000 0.49426  0.44876  0.42917  Biso   1.000  C
  H65      1.0000 0.52693  0.46597  0.42857  Biso   1.000  H
  C90      1.0000 0.47234  0.41317  0.53667  Biso   1.000  C
  H66      1.0000 0.48973  0.40647  0.60917  Biso   1.000  H
  C91      1.0000 0.42485  0.38776  0.53637  Biso   1.000  C
  H67      1.0000 0.40893  0.36257  0.60637  Biso   1.000  H
  C92      1.0000 0.40065  0.39967  0.43157  Biso   1.000  C
  C93      1.0000 0.42484  0.43584  0.32977  Biso   1.000  C
  H68      1.0000 0.40813  0.44407  0.25957  Biso   1.000  H
  C94      1.0000 0.34921  0.37153  0.42687  Biso   1.000  C
  C95      1.0000 0.32194  0.39448  0.39497  Biso   1.000  C
  C96      1.0000 0.33483  0.43827  0.44417  Biso   1.000  C
  H69      1.0000 0.36343  0.45667  0.49617  Biso   1.000  H
  C97      1.0000 0.30523  0.45527  0.41657  Biso   1.000  C
  H70      1.0000 0.31303  0.48517  0.45147  Biso   1.000  H
  C98      1.0000 0.26468  0.42837  0.33867  Biso   1.000  C
  H71      1.0000 0.24503  0.44067  0.31897  Biso   1.000  H
  C99      1.0000 0.27974  0.36904  0.31757  Biso   1.000  C
  H72      1.0000 0.27083  0.33867  0.28407  Biso   1.000  H
  Ag10     1.0000 0.85274  0.67693  0.49692  Biso   1.000  Ag
  O10      1.0000 0.66324  0.66694  0.21510  Biso   1.000  O
  N19      1.0000 0.79322  0.65554  0.34120  Biso   1.000  N
  N20      1.0000 0.71848  0.80040  0.37830  Biso   1.000  N
  C100     1.0000 0.78209  0.62116  0.23750  Biso   1.000  C
  H73      1.0000 0.79930  0.60570  0.23810  Biso   1.000  H
  C101     1.0000 0.74650  0.60749  0.13000  Biso   1.000  C
  H74      1.0000 0.73980  0.58340  0.05750  Biso   1.000  H
  C102     1.0000 0.72109  0.62957  0.13030  Biso   1.000  C
  H75      1.0000 0.69590  0.62030  0.06030  Biso   1.000  H
  C103     1.0000 0.73300  0.66568  0.23510  Biso   1.000  C
  C104     1.0000 0.76917  0.67766  0.33690  Biso   1.000  C
  H76      1.0000 0.77740  0.70260  0.40710  Biso   1.000  H
  C105     1.0000 0.70486  0.68898  0.23980  Biso   1.000  C
  C106     1.0000 0.72781  0.73920  0.27170  Biso   1.000  C
  C107     1.0000 0.77160  0.77010  0.22250  Biso   1.000  C
  H77      1.0000 0.79000  0.75990  0.17050  Biso   1.000  H
  C108     1.0000 0.78860  0.81670  0.25010  Biso   1.000  C
  H78      1.0000 0.81850  0.83880  0.21520  Biso   1.000  H
  C109     1.0000 0.76170  0.83035  0.32800  Biso   1.000  C
  H79      1.0000 0.77400  0.86230  0.34770  Biso   1.000  H
  C110     1.0000 0.70237  0.75596  0.34910  Biso   1.000  C
  H80      1.0000 0.67200  0.73450  0.38260  Biso   1.000  H
  Ag11     1.0000 0.51941  0.01027  0.83025  Biso   1.000  Ag
  O11      1.0000 0.32991  0.00027  0.54843  Biso   1.000  O
  N21      1.0000 0.45989  0.98887  0.67453  Biso   1.000  N
  N22      1.0000 0.38515  0.13373  0.71163  Biso   1.000  N
  C111     1.0000 0.44876  0.95449  0.57083  Biso   1.000  C
  H81      1.0000 0.46597  0.93903  0.57143  Biso   1.000  H
  C112     1.0000 0.41317  0.94082  0.46333  Biso   1.000  C
  H82      1.0000 0.40647  0.91673  0.39083  Biso   1.000  H
  C113     1.0000 0.38776  0.96290  0.46363  Biso   1.000  C
  H83      1.0000 0.36257  0.95363  0.39363  Biso   1.000  H
  C114     1.0000 0.39967  0.99901  0.56843  Biso   1.000  C
  C115     1.0000 0.43584  0.01099  0.67023  Biso   1.000  C
  H84      1.0000 0.44407  0.03593  0.74043  Biso   1.000  H
  C116     1.0000 0.37153  0.02231  0.57313  Biso   1.000  C
  C117     1.0000 0.39448  0.07253  0.60503  Biso   1.000  C
  C118     1.0000 0.43827  0.10343  0.55583  Biso   1.000  C
  H85      1.0000 0.45667  0.09323  0.50383  Biso   1.000  H
  C119     1.0000 0.45527  0.15003  0.58343  Biso   1.000  C
  H86      1.0000 0.48517  0.17213  0.54853  Biso   1.000  H
  C120     1.0000 0.42837  0.16368  0.66133  Biso   1.000  C
  H87      1.0000 0.44067  0.19563  0.68103  Biso   1.000  H
  C121     1.0000 0.36904  0.08929  0.68243  Biso   1.000  C
  H88      1.0000 0.33867  0.06783  0.71593  Biso   1.000  H
  Ag12     1.0000 0.18608  0.34360  0.16359  Biso   1.000  Ag
  O12      1.0000 0.99657  0.33361  0.88177  Biso   1.000  O
  N23      1.0000 0.12655  0.32221  0.00787  Biso   1.000  N
  N24      1.0000 0.05181  0.46707  0.04497  Biso   1.000  N
  C122     1.0000 0.11542  0.28783  0.90417  Biso   1.000  C
  H89      1.0000 0.13263  0.27237  0.90477  Biso   1.000  H
  C123     1.0000 0.07983  0.27416  0.79667  Biso   1.000  C
  H90      1.0000 0.07313  0.25007  0.72417  Biso   1.000  H
  C124     1.0000 0.05442  0.29624  0.79697  Biso   1.000  C
  H91      1.0000 0.02923  0.28697  0.72697  Biso   1.000  H
  C125     1.0000 0.06633  0.33235  0.90177  Biso   1.000  C
  C126     1.0000 0.10250  0.34433  0.00357  Biso   1.000  C
  H92      1.0000 0.11073  0.36927  0.07377  Biso   1.000  H
  C127     1.0000 0.03819  0.35565  0.90647  Biso   1.000  C
  C128     1.0000 0.06114  0.40587  0.93837  Biso   1.000  C
  C129     1.0000 0.10493  0.43677  0.88917  Biso   1.000  C
  H93      1.0000 0.12333  0.42657  0.83717  Biso   1.000  H
  C130     1.0000 0.12193  0.48337  0.91677  Biso   1.000  C
  H94      1.0000 0.15183  0.50547  0.88187  Biso   1.000  H
  C131     1.0000 0.09503  0.49702  0.99467  Biso   1.000  C
  H95      1.0000 0.10733  0.52897  0.01437  Biso   1.000  H
  C132     1.0000 0.03570  0.42263  0.01577  Biso   1.000  C
  H96      1.0000 0.00533  0.40117  0.04927  Biso   1.000  H
  Ag13     1.0000 0.32307  0.17581  0.49692  Biso   1.000  Ag
  O13      1.0000 0.33306  0.99630  0.21510  Biso   1.000  O
  N25      1.0000 0.34446  0.13768  0.34120  Biso   1.000  N
  N26      1.0000 0.19960  0.91808  0.37830  Biso   1.000  N
  C133     1.0000 0.37884  0.16093  0.23750  Biso   1.000  C
  H97      1.0000 0.39430  0.19360  0.23810  Biso   1.000  H
  C134     1.0000 0.39251  0.13901  0.13000  Biso   1.000  C
  H98      1.0000 0.41660  0.15640  0.05750  Biso   1.000  H
  C135     1.0000 0.37043  0.09152  0.13030  Biso   1.000  C
  H99      1.0000 0.37970  0.07560  0.06030  Biso   1.000  H
  C136     1.0000 0.33432  0.06732  0.23510  Biso   1.000  C
  C137     1.0000 0.32234  0.09151  0.33690  Biso   1.000  C
  H100     1.0000 0.29740  0.07480  0.40710  Biso   1.000  H
  C138     1.0000 0.31102  0.01588  0.23980  Biso   1.000  C
  C139     1.0000 0.26080  0.98861  0.27170  Biso   1.000  C
  C140     1.0000 0.22990  0.00150  0.22250  Biso   1.000  C
  H101     1.0000 0.24010  0.03010  0.17050  Biso   1.000  H
  C141     1.0000 0.18330  0.97190  0.25010  Biso   1.000  C
  H102     1.0000 0.16120  0.97970  0.21520  Biso   1.000  H
  C142     1.0000 0.16965  0.93135  0.32800  Biso   1.000  C
  H103     1.0000 0.13770  0.91170  0.34770  Biso   1.000  H
  C143     1.0000 0.24404  0.94641  0.34910  Biso   1.000  C
  H104     1.0000 0.26550  0.93750  0.38260  Biso   1.000  H
  Ag14     1.0000 0.98973  0.50915  0.83025  Biso   1.000  Ag
  O14      1.0000 0.99973  0.32963  0.54843  Biso   1.000  O
  N27      1.0000 0.01113  0.47101  0.67453  Biso   1.000  N
  N28      1.0000 0.86627  0.25141  0.71163  Biso   1.000  N
  C144     1.0000 0.04551  0.49426  0.57083  Biso   1.000  C
  H105     1.0000 0.06097  0.52693  0.57143  Biso   1.000  H
  C145     1.0000 0.05918  0.47234  0.46333  Biso   1.000  C
  H106     1.0000 0.08327  0.48973  0.39083  Biso   1.000  H
  C146     1.0000 0.03710  0.42485  0.46363  Biso   1.000  C
  H107     1.0000 0.04637  0.40893  0.39363  Biso   1.000  H
  C147     1.0000 0.00099  0.40065  0.56843  Biso   1.000  C
  C148     1.0000 0.98901  0.42484  0.67023  Biso   1.000  C
  H108     1.0000 0.96407  0.40813  0.74043  Biso   1.000  H
  C149     1.0000 0.97769  0.34921  0.57313  Biso   1.000  C
  C150     1.0000 0.92747  0.32194  0.60503  Biso   1.000  C
  C151     1.0000 0.89657  0.33483  0.55583  Biso   1.000  C
  H109     1.0000 0.90677  0.36343  0.50383  Biso   1.000  H
  C152     1.0000 0.84997  0.30523  0.58343  Biso   1.000  C
  H110     1.0000 0.82787  0.31303  0.54853  Biso   1.000  H
  C153     1.0000 0.83632  0.26468  0.66133  Biso   1.000  C
  H111     1.0000 0.80437  0.24503  0.68103  Biso   1.000  H
  C154     1.0000 0.91071  0.27974  0.68243  Biso   1.000  C
  H112     1.0000 0.93217  0.27083  0.71593  Biso   1.000  H
  Ag15     1.0000 0.65640  0.84248  0.16359  Biso   1.000  Ag
  O15      1.0000 0.66639  0.66297  0.88177  Biso   1.000  O
  N29      1.0000 0.67779  0.80435  0.00787  Biso   1.000  N
  N30      1.0000 0.53293  0.58475  0.04497  Biso   1.000  N
  C155     1.0000 0.71217  0.82760  0.90417  Biso   1.000  C
  H113     1.0000 0.72763  0.86027  0.90477  Biso   1.000  H
  C156     1.0000 0.72584  0.80568  0.79667  Biso   1.000  C
  H114     1.0000 0.74993  0.82307  0.72417  Biso   1.000  H
  C157     1.0000 0.70376  0.75819  0.79697  Biso   1.000  C
  H115     1.0000 0.71303  0.74227  0.72697  Biso   1.000  H
  C158     1.0000 0.66765  0.73399  0.90177  Biso   1.000  C
  C159     1.0000 0.65567  0.75818  0.00357  Biso   1.000  C
  H116     1.0000 0.63073  0.74147  0.07377  Biso   1.000  H
  C160     1.0000 0.64435  0.68255  0.90647  Biso   1.000  C
  C161     1.0000 0.59413  0.65528  0.93837  Biso   1.000  C
  C162     1.0000 0.56323  0.66817  0.88917  Biso   1.000  C
  H117     1.0000 0.57343  0.69677  0.83717  Biso   1.000  H
  C163     1.0000 0.51663  0.63857  0.91677  Biso   1.000  C
  H118     1.0000 0.49453  0.64637  0.88187  Biso   1.000  H
  C164     1.0000 0.50298  0.59802  0.99467  Biso   1.000  C
  H119     1.0000 0.47103  0.57837  0.01437  Biso   1.000  H
  C165     1.0000 0.57737  0.61308  0.01577  Biso   1.000  C
  H120     1.0000 0.59883  0.60417  0.04927  Biso   1.000  H
  Ag16     1.0000 0.82419  0.14725  0.49692  Biso   1.000  Ag
  O16      1.0000 0.00370  0.33676  0.21510  Biso   1.000  O
  N31      1.0000 0.86232  0.20678  0.34120  Biso   1.000  N
  N32      1.0000 0.08192  0.28152  0.37830  Biso   1.000  N
  C166     1.0000 0.83907  0.21791  0.23750  Biso   1.000  C
  H121     1.0000 0.80640  0.20070  0.23810  Biso   1.000  H
  C167     1.0000 0.86099  0.25350  0.13000  Biso   1.000  C
  H122     1.0000 0.84360  0.26020  0.05750  Biso   1.000  H
  C168     1.0000 0.90848  0.27891  0.13030  Biso   1.000  C
  H123     1.0000 0.92440  0.30410  0.06030  Biso   1.000  H
  C169     1.0000 0.93268  0.26700  0.23510  Biso   1.000  C
  C170     1.0000 0.90849  0.23083  0.33690  Biso   1.000  C
  H124     1.0000 0.92520  0.22260  0.40710  Biso   1.000  H
  C171     1.0000 0.98412  0.29514  0.23980  Biso   1.000  C
  C172     1.0000 0.01139  0.27219  0.27170  Biso   1.000  C
  C173     1.0000 0.99850  0.22840  0.22250  Biso   1.000  C
  H125     1.0000 0.96990  0.21000  0.17050  Biso   1.000  H
  C174     1.0000 0.02810  0.21140  0.25010  Biso   1.000  C
  H126     1.0000 0.02030  0.18150  0.21520  Biso   1.000  H
  C175     1.0000 0.06865  0.23830  0.32800  Biso   1.000  C
  H127     1.0000 0.08830  0.22600  0.34770  Biso   1.000  H
  C176     1.0000 0.05359  0.29763  0.34910  Biso   1.000  C
  H128     1.0000 0.06250  0.32800  0.38260  Biso   1.000  H
  Ag17     1.0000 0.49085  0.48059  0.83025  Biso   1.000  Ag
  O17      1.0000 0.67037  0.67009  0.54843  Biso   1.000  O
  N33      1.0000 0.52899  0.54011  0.67453  Biso   1.000  N
  N34      1.0000 0.74859  0.61485  0.71163  Biso   1.000  N
  C177     1.0000 0.50574  0.55124  0.57083  Biso   1.000  C
  H129     1.0000 0.47307  0.53403  0.57143  Biso   1.000  H
  C178     1.0000 0.52766  0.58683  0.46333  Biso   1.000  C
  H130     1.0000 0.51027  0.59353  0.39083  Biso   1.000  H
  C179     1.0000 0.57515  0.61224  0.46363  Biso   1.000  C
  H131     1.0000 0.59107  0.63743  0.39363  Biso   1.000  H
  C180     1.0000 0.59935  0.60033  0.56843  Biso   1.000  C
  C181     1.0000 0.57516  0.56416  0.67023  Biso   1.000  C
  H132     1.0000 0.59187  0.55593  0.74043  Biso   1.000  H
  C182     1.0000 0.65079  0.62847  0.57313  Biso   1.000  C
  C183     1.0000 0.67806  0.60552  0.60503  Biso   1.000  C
  C184     1.0000 0.66517  0.56173  0.55583  Biso   1.000  C
  H133     1.0000 0.63657  0.54333  0.50383  Biso   1.000  H
  C185     1.0000 0.69477  0.54473  0.58343  Biso   1.000  C
  H134     1.0000 0.68697  0.51483  0.54853  Biso   1.000  H
  C186     1.0000 0.73532  0.57163  0.66133  Biso   1.000  C
  H135     1.0000 0.75497  0.55933  0.68103  Biso   1.000  H
  C187     1.0000 0.72026  0.63096  0.68243  Biso   1.000  C
  H136     1.0000 0.72917  0.66133  0.71593  Biso   1.000  H
  Ag18     1.0000 0.15752  0.81392  0.16359  Biso   1.000  Ag
  O18      1.0000 0.33703  0.00343  0.88177  Biso   1.000  O
  N35      1.0000 0.19565  0.87345  0.00787  Biso   1.000  N
  N36      1.0000 0.41525  0.94819  0.04497  Biso   1.000  N
  C188     1.0000 0.17240  0.88458  0.90417  Biso   1.000  C
  H137     1.0000 0.13973  0.86737  0.90477  Biso   1.000  H
  C189     1.0000 0.19432  0.92017  0.79667  Biso   1.000  C
  H138     1.0000 0.17693  0.92687  0.72417  Biso   1.000  H
  C190     1.0000 0.24181  0.94558  0.79697  Biso   1.000  C
  H139     1.0000 0.25773  0.97077  0.72697  Biso   1.000  H
  C191     1.0000 0.26601  0.93367  0.90177  Biso   1.000  C
  C192     1.0000 0.24182  0.89750  0.00357  Biso   1.000  C
  H140     1.0000 0.25853  0.88927  0.07377  Biso   1.000  H
  C193     1.0000 0.31745  0.96181  0.90647  Biso   1.000  C
  C194     1.0000 0.34472  0.93886  0.93837  Biso   1.000  C
  C195     1.0000 0.33183  0.89507  0.88917  Biso   1.000  C
  H141     1.0000 0.30323  0.87667  0.83717  Biso   1.000  H
  C196     1.0000 0.36143  0.87807  0.91677  Biso   1.000  C
  H142     1.0000 0.35363  0.84817  0.88187  Biso   1.000  H
  C197     1.0000 0.40198  0.90497  0.99467  Biso   1.000  C
  H143     1.0000 0.42163  0.89267  0.01437  Biso   1.000  H
  C198     1.0000 0.38692  0.96430  0.01577  Biso   1.000  C
  H144     1.0000 0.39583  0.99467  0.04927  Biso   1.000  H
