data_image0
_cell_length_a       33.786
_cell_length_b       33.786
_cell_length_c       8.417
_cell_angle_alpha    90
_cell_angle_beta     90
_cell_angle_gamma    120

_symmetry_space_group_name_H-M    "P 1"
_symmetry_int_tables_number       1

loop_
  _symmetry_equiv_pos_as_xyz
  'x, y, z'

loop_
  _atom_site_label
  _atom_site_occupancy
  _atom_site_fract_x
  _atom_site_fract_y
  _atom_site_fract_z
  _atom_site_thermal_displace_type
  _atom_site_B_iso_or_equiv
  _atom_site_type_symbol
  Ag1      1.0000 0.14745  0.32186  0.50460  Biso   1.000  Ag
  O1       1.0000 0.33579  0.33034  0.78520  Biso   1.000  O
  N1       1.0000 0.20642  0.34187  0.66210  Biso   1.000  N
  N2       1.0000 0.27930  0.19753  0.61630  Biso   1.000  N
  C1       1.0000 0.21927  0.37744  0.76100  Biso   1.000  C
  H1       1.0000 0.20270  0.39330  0.75980  Biso   1.000  H
  C2       1.0000 0.25576  0.39191  0.86480  Biso   1.000  C
  H2       1.0000 0.26360  0.41700  0.93410  Biso   1.000  H
  C3       1.0000 0.28063  0.36950  0.86640  Biso   1.000  C
  H3       1.0000 0.30640  0.37940  0.93410  Biso   1.000  H
  C4       1.0000 0.26681  0.33200  0.76590  Biso   1.000  C
  C5       1.0000 0.23000  0.31953  0.66650  Biso   1.000  C
  H4       1.0000 0.22090  0.29400  0.59820  Biso   1.000  H
  C6       1.0000 0.29469  0.30859  0.76130  Biso   1.000  C
  C7       1.0000 0.27161  0.25873  0.72800  Biso   1.000  C
  C8       1.0000 0.22809  0.22797  0.78380  Biso   1.000  C
  H5       1.0000 0.21060  0.23830  0.84060  Biso   1.000  H
  C9       1.0000 0.21080  0.18161  0.75400  Biso   1.000  C
  H6       1.0000 0.18130  0.15960  0.79140  Biso   1.000  H
  C10      1.0000 0.23695  0.16820  0.66980  Biso   1.000  C
  H7       1.0000 0.22450  0.13660  0.64830  Biso   1.000  H
  C11      1.0000 0.29613  0.24195  0.64640  Biso   1.000  C
  H8       1.0000 0.32610  0.26300  0.61080  Biso   1.000  H
  Ag2      1.0000 0.81412  0.65519  0.83793  Biso   1.000  Ag
  O2       1.0000 0.00246  0.66367  0.11853  Biso   1.000  O
  N3       1.0000 0.87309  0.67520  0.99543  Biso   1.000  N
  N4       1.0000 0.94597  0.53086  0.94963  Biso   1.000  N
  C12      1.0000 0.88594  0.71077  0.09433  Biso   1.000  C
  H9       1.0000 0.86937  0.72663  0.09313  Biso   1.000  H
  C13      1.0000 0.92243  0.72524  0.19813  Biso   1.000  C
  H10      1.0000 0.93027  0.75033  0.26743  Biso   1.000  H
  C14      1.0000 0.94730  0.70283  0.19973  Biso   1.000  C
  H11      1.0000 0.97307  0.71273  0.26743  Biso   1.000  H
  C15      1.0000 0.93348  0.66533  0.09923  Biso   1.000  C
  C16      1.0000 0.89667  0.65286  0.99983  Biso   1.000  C
  H12      1.0000 0.88757  0.62733  0.93153  Biso   1.000  H
  C17      1.0000 0.96136  0.64192  0.09463  Biso   1.000  C
  C18      1.0000 0.93828  0.59206  0.06133  Biso   1.000  C
  C19      1.0000 0.89476  0.56130  0.11713  Biso   1.000  C
  H13      1.0000 0.87727  0.57163  0.17393  Biso   1.000  H
  C20      1.0000 0.87747  0.51494  0.08733  Biso   1.000  C
  H14      1.0000 0.84797  0.49293  0.12473  Biso   1.000  H
  C21      1.0000 0.90362  0.50153  0.00313  Biso   1.000  C
  H15      1.0000 0.89117  0.46993  0.98163  Biso   1.000  H
  C22      1.0000 0.96280  0.57528  0.97973  Biso   1.000  C
  H16      1.0000 0.99277  0.59633  0.94413  Biso   1.000  H
  Ag3      1.0000 0.48079  0.98852  0.17127  Biso   1.000  Ag
  O3       1.0000 0.66912  0.99701  0.45187  Biso   1.000  O
  N5       1.0000 0.53975  0.00854  0.32877  Biso   1.000  N
  N6       1.0000 0.61263  0.86420  0.28297  Biso   1.000  N
  C23      1.0000 0.55260  0.04411  0.42767  Biso   1.000  C
  H17      1.0000 0.53603  0.05997  0.42647  Biso   1.000  H
  C24      1.0000 0.58909  0.05858  0.53147  Biso   1.000  C
  H18      1.0000 0.59693  0.08367  0.60077  Biso   1.000  H
  C25      1.0000 0.61396  0.03617  0.53307  Biso   1.000  C
  H19      1.0000 0.63973  0.04607  0.60077  Biso   1.000  H
  C26      1.0000 0.60014  0.99867  0.43257  Biso   1.000  C
  C27      1.0000 0.56333  0.98620  0.33317  Biso   1.000  C
  H20      1.0000 0.55423  0.96067  0.26487  Biso   1.000  H
  C28      1.0000 0.62802  0.97526  0.42797  Biso   1.000  C
  C29      1.0000 0.60494  0.92540  0.39467  Biso   1.000  C
  C30      1.0000 0.56142  0.89464  0.45047  Biso   1.000  C
  H21      1.0000 0.54393  0.90497  0.50727  Biso   1.000  H
  C31      1.0000 0.54413  0.84828  0.42067  Biso   1.000  C
  H22      1.0000 0.51463  0.82627  0.45807  Biso   1.000  H
  C32      1.0000 0.57028  0.83487  0.33647  Biso   1.000  C
  H23      1.0000 0.55783  0.80327  0.31497  Biso   1.000  H
  C33      1.0000 0.62946  0.90862  0.31307  Biso   1.000  C
  H24      1.0000 0.65943  0.92967  0.27747  Biso   1.000  H
  Ag4      1.0000 0.67814  0.82560  0.50460  Biso   1.000  Ag
  O4       1.0000 0.66966  0.00545  0.78520  Biso   1.000  O
  N7       1.0000 0.65813  0.86455  0.66210  Biso   1.000  N
  N8       1.0000 0.80247  0.08177  0.61630  Biso   1.000  N
  C34      1.0000 0.62256  0.84183  0.76100  Biso   1.000  C
  H25      1.0000 0.60670  0.80940  0.75980  Biso   1.000  H
  C35      1.0000 0.60809  0.86385  0.86480  Biso   1.000  C
  H26      1.0000 0.58300  0.84660  0.93410  Biso   1.000  H
  C36      1.0000 0.63050  0.91113  0.86640  Biso   1.000  C
  H27      1.0000 0.62060  0.92700  0.93410  Biso   1.000  H
  C37      1.0000 0.66800  0.93481  0.76590  Biso   1.000  C
  C38      1.0000 0.68047  0.91047  0.66650  Biso   1.000  C
  H28      1.0000 0.70600  0.92690  0.59820  Biso   1.000  H
  C39      1.0000 0.69141  0.98610  0.76130  Biso   1.000  C
  C40      1.0000 0.74127  0.01288  0.72800  Biso   1.000  C
  C41      1.0000 0.77203  0.00012  0.78380  Biso   1.000  C
  H29      1.0000 0.76170  0.97230  0.84060  Biso   1.000  H
  C42      1.0000 0.81839  0.02919  0.75400  Biso   1.000  C
  H30      1.0000 0.84040  0.02170  0.79140  Biso   1.000  H
  C43      1.0000 0.83180  0.06875  0.66980  Biso   1.000  C
  H31      1.0000 0.86340  0.08790  0.64830  Biso   1.000  H
  C44      1.0000 0.75805  0.05418  0.64640  Biso   1.000  C
  H32      1.0000 0.73700  0.06310  0.61080  Biso   1.000  H
  Ag5      1.0000 0.34481  0.15893  0.83793  Biso   1.000  Ag
  O5       1.0000 0.33633  0.33878  0.11853  Biso   1.000  O
  N9       1.0000 0.32480  0.19788  0.99543  Biso   1.000  N
  N10      1.0000 0.46914  0.41510  0.94963  Biso   1.000  N
  C45      1.0000 0.28923  0.17516  0.09433  Biso   1.000  C
  H33      1.0000 0.27337  0.14273  0.09313  Biso   1.000  H
  C46      1.0000 0.27476  0.19718  0.19813  Biso   1.000  C
  H34      1.0000 0.24967  0.17993  0.26743  Biso   1.000  H
  C47      1.0000 0.29717  0.24446  0.19973  Biso   1.000  C
  H35      1.0000 0.28727  0.26033  0.26743  Biso   1.000  H
  C48      1.0000 0.33467  0.26814  0.09923  Biso   1.000  C
  C49      1.0000 0.34714  0.24380  0.99983  Biso   1.000  C
  H36      1.0000 0.37267  0.26023  0.93153  Biso   1.000  H
  C50      1.0000 0.35808  0.31943  0.09463  Biso   1.000  C
  C51      1.0000 0.40794  0.34621  0.06133  Biso   1.000  C
  C52      1.0000 0.43870  0.33345  0.11713  Biso   1.000  C
  H37      1.0000 0.42837  0.30563  0.17393  Biso   1.000  H
  C53      1.0000 0.48506  0.36252  0.08733  Biso   1.000  C
  H38      1.0000 0.50707  0.35503  0.12473  Biso   1.000  H
  C54      1.0000 0.49847  0.40208  0.00313  Biso   1.000  C
  H39      1.0000 0.53007  0.42123  0.98163  Biso   1.000  H
  C55      1.0000 0.42472  0.38751  0.97973  Biso   1.000  C
  H40      1.0000 0.40367  0.39643  0.94413  Biso   1.000  H
  Ag6      1.0000 0.01148  0.49226  0.17127  Biso   1.000  Ag
  O6       1.0000 0.00299  0.67212  0.45187  Biso   1.000  O
  N11      1.0000 0.99146  0.53122  0.32877  Biso   1.000  N
  N12      1.0000 0.13580  0.74844  0.28297  Biso   1.000  N
  C56      1.0000 0.95589  0.50850  0.42767  Biso   1.000  C
  H41      1.0000 0.94003  0.47607  0.42647  Biso   1.000  H
  C57      1.0000 0.94142  0.53052  0.53147  Biso   1.000  C
  H42      1.0000 0.91633  0.51327  0.60077  Biso   1.000  H
  C58      1.0000 0.96383  0.57780  0.53307  Biso   1.000  C
  H43      1.0000 0.95393  0.59367  0.60077  Biso   1.000  H
  C59      1.0000 0.00133  0.60148  0.43257  Biso   1.000  C
  C60      1.0000 0.01380  0.57714  0.33317  Biso   1.000  C
  H44      1.0000 0.03933  0.59357  0.26487  Biso   1.000  H
  C61      1.0000 0.02474  0.65277  0.42797  Biso   1.000  C
  C62      1.0000 0.07460  0.67955  0.39467  Biso   1.000  C
  C63      1.0000 0.10536  0.66679  0.45047  Biso   1.000  C
  H45      1.0000 0.09503  0.63897  0.50727  Biso   1.000  H
  C64      1.0000 0.15172  0.69586  0.42067  Biso   1.000  C
  H46      1.0000 0.17373  0.68837  0.45807  Biso   1.000  H
  C65      1.0000 0.16513  0.73542  0.33647  Biso   1.000  C
  H47      1.0000 0.19673  0.75457  0.31497  Biso   1.000  H
  C66      1.0000 0.09138  0.72085  0.31307  Biso   1.000  C
  H48      1.0000 0.07033  0.72977  0.27747  Biso   1.000  H
  Ag7      1.0000 0.17440  0.85255  0.50460  Biso   1.000  Ag
  O7       1.0000 0.99455  0.66421  0.78520  Biso   1.000  O
  N13      1.0000 0.13545  0.79358  0.66210  Biso   1.000  N
  N14      1.0000 0.91823  0.72070  0.61630  Biso   1.000  N
  C67      1.0000 0.15817  0.78073  0.76100  Biso   1.000  C
  H49      1.0000 0.19060  0.79730  0.75980  Biso   1.000  H
  C68      1.0000 0.13615  0.74424  0.86480  Biso   1.000  C
  H50      1.0000 0.15340  0.73640  0.93410  Biso   1.000  H
  C69      1.0000 0.08887  0.71937  0.86640  Biso   1.000  C
  H51      1.0000 0.07300  0.69360  0.93410  Biso   1.000  H
  C70      1.0000 0.06519  0.73319  0.76590  Biso   1.000  C
  C71      1.0000 0.08953  0.77000  0.66650  Biso   1.000  C
  H52      1.0000 0.07310  0.77910  0.59820  Biso   1.000  H
  C72      1.0000 0.01390  0.70531  0.76130  Biso   1.000  C
  C73      1.0000 0.98712  0.72839  0.72800  Biso   1.000  C
  C74      1.0000 0.99988  0.77191  0.78380  Biso   1.000  C
  H53      1.0000 0.02770  0.78940  0.84060  Biso   1.000  H
  C75      1.0000 0.97081  0.78920  0.75400  Biso   1.000  C
  H54      1.0000 0.97830  0.81870  0.79140  Biso   1.000  H
  C76      1.0000 0.93125  0.76305  0.66980  Biso   1.000  C
  H55      1.0000 0.91210  0.77550  0.64830  Biso   1.000  H
  C77      1.0000 0.94582  0.70387  0.64640  Biso   1.000  C
  H56      1.0000 0.93690  0.67390  0.61080  Biso   1.000  H
  Ag8      1.0000 0.84107  0.18588  0.83793  Biso   1.000  Ag
  O8       1.0000 0.66122  0.99754  0.11853  Biso   1.000  O
  N15      1.0000 0.80212  0.12691  0.99543  Biso   1.000  N
  N16      1.0000 0.58490  0.05403  0.94963  Biso   1.000  N
  C78      1.0000 0.82484  0.11406  0.09433  Biso   1.000  C
  H57      1.0000 0.85727  0.13063  0.09313  Biso   1.000  H
  C79      1.0000 0.80282  0.07757  0.19813  Biso   1.000  C
  H58      1.0000 0.82007  0.06973  0.26743  Biso   1.000  H
  C80      1.0000 0.75554  0.05270  0.19973  Biso   1.000  C
  H59      1.0000 0.73967  0.02693  0.26743  Biso   1.000  H
  C81      1.0000 0.73186  0.06652  0.09923  Biso   1.000  C
  C82      1.0000 0.75620  0.10333  0.99983  Biso   1.000  C
  H60      1.0000 0.73977  0.11243  0.93153  Biso   1.000  H
  C83      1.0000 0.68057  0.03864  0.09463  Biso   1.000  C
  C84      1.0000 0.65379  0.06172  0.06133  Biso   1.000  C
  C85      1.0000 0.66655  0.10524  0.11713  Biso   1.000  C
  H61      1.0000 0.69437  0.12273  0.17393  Biso   1.000  H
  C86      1.0000 0.63748  0.12253  0.08733  Biso   1.000  C
  H62      1.0000 0.64497  0.15203  0.12473  Biso   1.000  H
  C87      1.0000 0.59792  0.09638  0.00313  Biso   1.000  C
  H63      1.0000 0.57877  0.10883  0.98163  Biso   1.000  H
  C88      1.0000 0.61249  0.03720  0.97973  Biso   1.000  C
  H64      1.0000 0.60357  0.00723  0.94413  Biso   1.000  H
  Ag9      1.0000 0.50774  0.51921  0.17127  Biso   1.000  Ag
  O9       1.0000 0.32788  0.33088  0.45187  Biso   1.000  O
  N17      1.0000 0.46878  0.46025  0.32877  Biso   1.000  N
  N18      1.0000 0.25156  0.38737  0.28297  Biso   1.000  N
  C89      1.0000 0.49150  0.44740  0.42767  Biso   1.000  C
  H65      1.0000 0.52393  0.46397  0.42647  Biso   1.000  H
  C90      1.0000 0.46948  0.41091  0.53147  Biso   1.000  C
  H66      1.0000 0.48673  0.40307  0.60077  Biso   1.000  H
  C91      1.0000 0.42220  0.38604  0.53307  Biso   1.000  C
  H67      1.0000 0.40633  0.36027  0.60077  Biso   1.000  H
  C92      1.0000 0.39852  0.39986  0.43257  Biso   1.000  C
  C93      1.0000 0.42286  0.43667  0.33317  Biso   1.000  C
  H68      1.0000 0.40643  0.44577  0.26487  Biso   1.000  H
  C94      1.0000 0.34723  0.37198  0.42797  Biso   1.000  C
  C95      1.0000 0.32045  0.39506  0.39467  Biso   1.000  C
  C96      1.0000 0.33321  0.43858  0.45047  Biso   1.000  C
  H69      1.0000 0.36103  0.45607  0.50727  Biso   1.000  H
  C97      1.0000 0.30414  0.45587  0.42067  Biso   1.000  C
  H70      1.0000 0.31163  0.48537  0.45807  Biso   1.000  H
  C98      1.0000 0.26458  0.42972  0.33647  Biso   1.000  C
  H71      1.0000 0.24543  0.44217  0.31497  Biso   1.000  H
  C99      1.0000 0.27915  0.37054  0.31307  Biso   1.000  C
  H72      1.0000 0.27023  0.34057  0.27747  Biso   1.000  H
  Ag10     1.0000 0.85255  0.67814  0.49540  Biso   1.000  Ag
  O10      1.0000 0.66421  0.66966  0.21480  Biso   1.000  O
  N19      1.0000 0.79358  0.65813  0.33790  Biso   1.000  N
  N20      1.0000 0.72070  0.80247  0.38370  Biso   1.000  N
  C100     1.0000 0.78073  0.62256  0.23900  Biso   1.000  C
  H73      1.0000 0.79730  0.60670  0.24020  Biso   1.000  H
  C101     1.0000 0.74424  0.60809  0.13520  Biso   1.000  C
  H74      1.0000 0.73640  0.58300  0.06590  Biso   1.000  H
  C102     1.0000 0.71937  0.63050  0.13360  Biso   1.000  C
  H75      1.0000 0.69360  0.62060  0.06590  Biso   1.000  H
  C103     1.0000 0.73319  0.66800  0.23410  Biso   1.000  C
  C104     1.0000 0.77000  0.68047  0.33350  Biso   1.000  C
  H76      1.0000 0.77910  0.70600  0.40180  Biso   1.000  H
  C105     1.0000 0.70531  0.69141  0.23870  Biso   1.000  C
  C106     1.0000 0.72839  0.74127  0.27200  Biso   1.000  C
  C107     1.0000 0.77191  0.77203  0.21620  Biso   1.000  C
  H77      1.0000 0.78940  0.76170  0.15940  Biso   1.000  H
  C108     1.0000 0.78920  0.81839  0.24600  Biso   1.000  C
  H78      1.0000 0.81870  0.84040  0.20860  Biso   1.000  H
  C109     1.0000 0.76305  0.83180  0.33020  Biso   1.000  C
  H79      1.0000 0.77550  0.86340  0.35170  Biso   1.000  H
  C110     1.0000 0.70387  0.75805  0.35360  Biso   1.000  C
  H80      1.0000 0.67390  0.73700  0.38920  Biso   1.000  H
  Ag11     1.0000 0.51921  0.01148  0.82873  Biso   1.000  Ag
  O11      1.0000 0.33088  0.00299  0.54813  Biso   1.000  O
  N21      1.0000 0.46025  0.99146  0.67123  Biso   1.000  N
  N22      1.0000 0.38737  0.13580  0.71703  Biso   1.000  N
  C111     1.0000 0.44740  0.95589  0.57233  Biso   1.000  C
  H81      1.0000 0.46397  0.94003  0.57353  Biso   1.000  H
  C112     1.0000 0.41091  0.94142  0.46853  Biso   1.000  C
  H82      1.0000 0.40307  0.91633  0.39923  Biso   1.000  H
  C113     1.0000 0.38604  0.96383  0.46693  Biso   1.000  C
  H83      1.0000 0.36027  0.95393  0.39923  Biso   1.000  H
  C114     1.0000 0.39986  0.00133  0.56743  Biso   1.000  C
  C115     1.0000 0.43667  0.01380  0.66683  Biso   1.000  C
  H84      1.0000 0.44577  0.03933  0.73513  Biso   1.000  H
  C116     1.0000 0.37198  0.02474  0.57203  Biso   1.000  C
  C117     1.0000 0.39506  0.07460  0.60533  Biso   1.000  C
  C118     1.0000 0.43858  0.10536  0.54953  Biso   1.000  C
  H85      1.0000 0.45607  0.09503  0.49273  Biso   1.000  H
  C119     1.0000 0.45587  0.15172  0.57933  Biso   1.000  C
  H86      1.0000 0.48537  0.17373  0.54193  Biso   1.000  H
  C120     1.0000 0.42972  0.16513  0.66353  Biso   1.000  C
  H87      1.0000 0.44217  0.19673  0.68503  Biso   1.000  H
  C121     1.0000 0.37054  0.09138  0.68693  Biso   1.000  C
  H88      1.0000 0.34057  0.07033  0.72253  Biso   1.000  H
  Ag12     1.0000 0.18588  0.34481  0.16207  Biso   1.000  Ag
  O12      1.0000 0.99754  0.33633  0.88147  Biso   1.000  O
  N23      1.0000 0.12691  0.32480  0.00457  Biso   1.000  N
  N24      1.0000 0.05403  0.46914  0.05037  Biso   1.000  N
  C122     1.0000 0.11406  0.28923  0.90567  Biso   1.000  C
  H89      1.0000 0.13063  0.27337  0.90687  Biso   1.000  H
  C123     1.0000 0.07757  0.27476  0.80187  Biso   1.000  C
  H90      1.0000 0.06973  0.24967  0.73257  Biso   1.000  H
  C124     1.0000 0.05270  0.29717  0.80027  Biso   1.000  C
  H91      1.0000 0.02693  0.28727  0.73257  Biso   1.000  H
  C125     1.0000 0.06652  0.33467  0.90077  Biso   1.000  C
  C126     1.0000 0.10333  0.34714  0.00017  Biso   1.000  C
  H92      1.0000 0.11243  0.37267  0.06847  Biso   1.000  H
  C127     1.0000 0.03864  0.35808  0.90537  Biso   1.000  C
  C128     1.0000 0.06172  0.40794  0.93867  Biso   1.000  C
  C129     1.0000 0.10524  0.43870  0.88287  Biso   1.000  C
  H93      1.0000 0.12273  0.42837  0.82607  Biso   1.000  H
  C130     1.0000 0.12253  0.48506  0.91267  Biso   1.000  C
  H94      1.0000 0.15203  0.50707  0.87527  Biso   1.000  H
  C131     1.0000 0.09638  0.49847  0.99687  Biso   1.000  C
  H95      1.0000 0.10883  0.53007  0.01837  Biso   1.000  H
  C132     1.0000 0.03720  0.42472  0.02027  Biso   1.000  C
  H96      1.0000 0.00723  0.40367  0.05587  Biso   1.000  H
  Ag13     1.0000 0.32186  0.17440  0.49540  Biso   1.000  Ag
  O13      1.0000 0.33034  0.99455  0.21480  Biso   1.000  O
  N25      1.0000 0.34187  0.13545  0.33790  Biso   1.000  N
  N26      1.0000 0.19753  0.91823  0.38370  Biso   1.000  N
  C133     1.0000 0.37744  0.15817  0.23900  Biso   1.000  C
  H97      1.0000 0.39330  0.19060  0.24020  Biso   1.000  H
  C134     1.0000 0.39191  0.13615  0.13520  Biso   1.000  C
  H98      1.0000 0.41700  0.15340  0.06590  Biso   1.000  H
  C135     1.0000 0.36950  0.08887  0.13360  Biso   1.000  C
  H99      1.0000 0.37940  0.07300  0.06590  Biso   1.000  H
  C136     1.0000 0.33200  0.06519  0.23410  Biso   1.000  C
  C137     1.0000 0.31953  0.08953  0.33350  Biso   1.000  C
  H100     1.0000 0.29400  0.07310  0.40180  Biso   1.000  H
  C138     1.0000 0.30859  0.01390  0.23870  Biso   1.000  C
  C139     1.0000 0.25873  0.98712  0.27200  Biso   1.000  C
  C140     1.0000 0.22797  0.99988  0.21620  Biso   1.000  C
  H101     1.0000 0.23830  0.02770  0.15940  Biso   1.000  H
  C141     1.0000 0.18161  0.97081  0.24600  Biso   1.000  C
  H102     1.0000 0.15960  0.97830  0.20860  Biso   1.000  H
  C142     1.0000 0.16820  0.93125  0.33020  Biso   1.000  C
  H103     1.0000 0.13660  0.91210  0.35170  Biso   1.000  H
  C143     1.0000 0.24195  0.94582  0.35360  Biso   1.000  C
  H104     1.0000 0.26300  0.93690  0.38920  Biso   1.000  H
  Ag14     1.0000 0.98852  0.50774  0.82873  Biso   1.000  Ag
  O14      1.0000 0.99701  0.32788  0.54813  Biso   1.000  O
  N27      1.0000 0.00854  0.46878  0.67123  Biso   1.000  N
  N28      1.0000 0.86420  0.25156  0.71703  Biso   1.000  N
  C144     1.0000 0.04411  0.49150  0.57233  Biso   1.000  C
  H105     1.0000 0.05997  0.52393  0.57353  Biso   1.000  H
  C145     1.0000 0.05858  0.46948  0.46853  Biso   1.000  C
  H106     1.0000 0.08367  0.48673  0.39923  Biso   1.000  H
  C146     1.0000 0.03617  0.42220  0.46693  Biso   1.000  C
  H107     1.0000 0.04607  0.40633  0.39923  Biso   1.000  H
  C147     1.0000 0.99867  0.39852  0.56743  Biso   1.000  C
  C148     1.0000 0.98620  0.42286  0.66683  Biso   1.000  C
  H108     1.0000 0.96067  0.40643  0.73513  Biso   1.000  H
  C149     1.0000 0.97526  0.34723  0.57203  Biso   1.000  C
  C150     1.0000 0.92540  0.32045  0.60533  Biso   1.000  C
  C151     1.0000 0.89464  0.33321  0.54953  Biso   1.000  C
  H109     1.0000 0.90497  0.36103  0.49273  Biso   1.000  H
  C152     1.0000 0.84828  0.30414  0.57933  Biso   1.000  C
  H110     1.0000 0.82627  0.31163  0.54193  Biso   1.000  H
  C153     1.0000 0.83487  0.26458  0.66353  Biso   1.000  C
  H111     1.0000 0.80327  0.24543  0.68503  Biso   1.000  H
  C154     1.0000 0.90862  0.27915  0.68693  Biso   1.000  C
  H112     1.0000 0.92967  0.27023  0.72253  Biso   1.000  H
  Ag15     1.0000 0.65519  0.84107  0.16207  Biso   1.000  Ag
  O15      1.0000 0.66367  0.66122  0.88147  Biso   1.000  O
  N29      1.0000 0.67520  0.80212  0.00457  Biso   1.000  N
  N30      1.0000 0.53086  0.58490  0.05037  Biso   1.000  N
  C155     1.0000 0.71077  0.82484  0.90567  Biso   1.000  C
  H113     1.0000 0.72663  0.85727  0.90687  Biso   1.000  H
  C156     1.0000 0.72524  0.80282  0.80187  Biso   1.000  C
  H114     1.0000 0.75033  0.82007  0.73257  Biso   1.000  H
  C157     1.0000 0.70283  0.75554  0.80027  Biso   1.000  C
  H115     1.0000 0.71273  0.73967  0.73257  Biso   1.000  H
  C158     1.0000 0.66533  0.73186  0.90077  Biso   1.000  C
  C159     1.0000 0.65286  0.75620  0.00017  Biso   1.000  C
  H116     1.0000 0.62733  0.73977  0.06847  Biso   1.000  H
  C160     1.0000 0.64192  0.68057  0.90537  Biso   1.000  C
  C161     1.0000 0.59206  0.65379  0.93867  Biso   1.000  C
  C162     1.0000 0.56130  0.66655  0.88287  Biso   1.000  C
  H117     1.0000 0.57163  0.69437  0.82607  Biso   1.000  H
  C163     1.0000 0.51494  0.63748  0.91267  Biso   1.000  C
  H118     1.0000 0.49293  0.64497  0.87527  Biso   1.000  H
  C164     1.0000 0.50153  0.59792  0.99687  Biso   1.000  C
  H119     1.0000 0.46993  0.57877  0.01837  Biso   1.000  H
  C165     1.0000 0.57528  0.61249  0.02027  Biso   1.000  C
  H120     1.0000 0.59633  0.60357  0.05587  Biso   1.000  H
  Ag16     1.0000 0.82560  0.14745  0.49540  Biso   1.000  Ag
  O16      1.0000 0.00545  0.33579  0.21480  Biso   1.000  O
  N31      1.0000 0.86455  0.20642  0.33790  Biso   1.000  N
  N32      1.0000 0.08177  0.27930  0.38370  Biso   1.000  N
  C166     1.0000 0.84183  0.21927  0.23900  Biso   1.000  C
  H121     1.0000 0.80940  0.20270  0.24020  Biso   1.000  H
  C167     1.0000 0.86385  0.25576  0.13520  Biso   1.000  C
  H122     1.0000 0.84660  0.26360  0.06590  Biso   1.000  H
  C168     1.0000 0.91113  0.28063  0.13360  Biso   1.000  C
  H123     1.0000 0.92700  0.30640  0.06590  Biso   1.000  H
  C169     1.0000 0.93481  0.26681  0.23410  Biso   1.000  C
  C170     1.0000 0.91047  0.23000  0.33350  Biso   1.000  C
  H124     1.0000 0.92690  0.22090  0.40180  Biso   1.000  H
  C171     1.0000 0.98610  0.29469  0.23870  Biso   1.000  C
  C172     1.0000 0.01288  0.27161  0.27200  Biso   1.000  C
  C173     1.0000 0.00012  0.22809  0.21620  Biso   1.000  C
  H125     1.0000 0.97230  0.21060  0.15940  Biso   1.000  H
  C174     1.0000 0.02919  0.21080  0.24600  Biso   1.000  C
  H126     1.0000 0.02170  0.18130  0.20860  Biso   1.000  H
  C175     1.0000 0.06875  0.23695  0.33020  Biso   1.000  C
  H127     1.0000 0.08790  0.22450  0.35170  Biso   1.000  H
  C176     1.0000 0.05418  0.29613  0.35360  Biso   1.000  C
  H128     1.0000 0.06310  0.32610  0.38920  Biso   1.000  H
  Ag17     1.0000 0.49226  0.48079  0.82873  Biso   1.000  Ag
  O17      1.0000 0.67212  0.66912  0.54813  Biso   1.000  O
  N33      1.0000 0.53122  0.53975  0.67123  Biso   1.000  N
  N34      1.0000 0.74844  0.61263  0.71703  Biso   1.000  N
  C177     1.0000 0.50850  0.55260  0.57233  Biso   1.000  C
  H129     1.0000 0.47607  0.53603  0.57353  Biso   1.000  H
  C178     1.0000 0.53052  0.58909  0.46853  Biso   1.000  C
  H130     1.0000 0.51327  0.59693  0.39923  Biso   1.000  H
  C179     1.0000 0.57780  0.61396  0.46693  Biso   1.000  C
  H131     1.0000 0.59367  0.63973  0.39923  Biso   1.000  H
  C180     1.0000 0.60148  0.60014  0.56743  Biso   1.000  C
  C181     1.0000 0.57714  0.56333  0.66683  Biso   1.000  C
  H132     1.0000 0.59357  0.55423  0.73513  Biso   1.000  H
  C182     1.0000 0.65277  0.62802  0.57203  Biso   1.000  C
  C183     1.0000 0.67955  0.60494  0.60533  Biso   1.000  C
  C184     1.0000 0.66679  0.56142  0.54953  Biso   1.000  C
  H133     1.0000 0.63897  0.54393  0.49273  Biso   1.000  H
  C185     1.0000 0.69586  0.54413  0.57933  Biso   1.000  C
  H134     1.0000 0.68837  0.51463  0.54193  Biso   1.000  H
  C186     1.0000 0.73542  0.57028  0.66353  Biso   1.000  C
  H135     1.0000 0.75457  0.55783  0.68503  Biso   1.000  H
  C187     1.0000 0.72085  0.62946  0.68693  Biso   1.000  C
  H136     1.0000 0.72977  0.65943  0.72253  Biso   1.000  H
  Ag18     1.0000 0.15893  0.81412  0.16207  Biso   1.000  Ag
  O18      1.0000 0.33878  0.00246  0.88147  Biso   1.000  O
  N35      1.0000 0.19788  0.87309  0.00457  Biso   1.000  N
  N36      1.0000 0.41510  0.94597  0.05037  Biso   1.000  N
  C188     1.0000 0.17516  0.88594  0.90567  Biso   1.000  C
  H137     1.0000 0.14273  0.86937  0.90687  Biso   1.000  H
  C189     1.0000 0.19718  0.92243  0.80187  Biso   1.000  C
  H138     1.0000 0.17993  0.93027  0.73257  Biso   1.000  H
  C190     1.0000 0.24446  0.94730  0.80027  Biso   1.000  C
  H139     1.0000 0.26033  0.97307  0.73257  Biso   1.000  H
  C191     1.0000 0.26814  0.93348  0.90077  Biso   1.000  C
  C192     1.0000 0.24380  0.89667  0.00017  Biso   1.000  C
  H140     1.0000 0.26023  0.88757  0.06847  Biso   1.000  H
  C193     1.0000 0.31943  0.96136  0.90537  Biso   1.000  C
  C194     1.0000 0.34621  0.93828  0.93867  Biso   1.000  C
  C195     1.0000 0.33345  0.89476  0.88287  Biso   1.000  C
  H141     1.0000 0.30563  0.87727  0.82607  Biso   1.000  H
  C196     1.0000 0.36252  0.87747  0.91267  Biso   1.000  C
  H142     1.0000 0.35503  0.84797  0.87527  Biso   1.000  H
  C197     1.0000 0.40208  0.90362  0.99687  Biso   1.000  C
  H143     1.0000 0.42123  0.89117  0.01837  Biso   1.000  H
  C198     1.0000 0.38751  0.96280  0.02027  Biso   1.000  C
  H144     1.0000 0.39643  0.99277  0.05587  Biso   1.000  H
