data_image0
_cell_length_a       33.453
_cell_length_b       33.453
_cell_length_c       8.4275
_cell_angle_alpha    90
_cell_angle_beta     90
_cell_angle_gamma    120

_symmetry_space_group_name_H-M    "P 1"
_symmetry_int_tables_number       1

loop_
  _symmetry_equiv_pos_as_xyz
  'x, y, z'

loop_
  _atom_site_label
  _atom_site_occupancy
  _atom_site_fract_x
  _atom_site_fract_y
  _atom_site_fract_z
  _atom_site_thermal_displace_type
  _atom_site_B_iso_or_equiv
  _atom_site_type_symbol
  Ag1      1.0000 0.14706  0.32181  0.50263  Biso   1.000  Ag
  O1       1.0000 0.33491  0.33006  0.79240  Biso   1.000  O
  N1       1.0000 0.20605  0.34242  0.66150  Biso   1.000  N
  N2       1.0000 0.27857  0.19738  0.61820  Biso   1.000  N
  C1       1.0000 0.21847  0.37789  0.76020  Biso   1.000  C
  H1       1.0000 0.20180  0.39400  0.75720  Biso   1.000  H
  C2       1.0000 0.25446  0.39209  0.86640  Biso   1.000  C
  H2       1.0000 0.26210  0.41720  0.93600  Biso   1.000  H
  C3       1.0000 0.27909  0.36936  0.87000  Biso   1.000  C
  H3       1.0000 0.30450  0.37900  0.94040  Biso   1.000  H
  C4       1.0000 0.26631  0.33225  0.76970  Biso   1.000  C
  C5       1.0000 0.22944  0.31975  0.66750  Biso   1.000  C
  H4       1.0000 0.22050  0.29410  0.59910  Biso   1.000  H
  C6       1.0000 0.29388  0.30853  0.76650  Biso   1.000  C
  C7       1.0000 0.27083  0.25845  0.73210  Biso   1.000  C
  C8       1.0000 0.22695  0.22745  0.78580  Biso   1.000  C
  H5       1.0000 0.20920  0.23770  0.84300  Biso   1.000  H
  C9       1.0000 0.20962  0.18099  0.75360  Biso   1.000  C
  H6       1.0000 0.17970  0.15870  0.78910  Biso   1.000  H
  C10      1.0000 0.23600  0.16772  0.67040  Biso   1.000  C
  H7       1.0000 0.22360  0.13580  0.64850  Biso   1.000  H
  C11      1.0000 0.29543  0.24189  0.65090  Biso   1.000  C
  H8       1.0000 0.32590  0.26330  0.61680  Biso   1.000  H
  Ag2      1.0000 0.81372  0.65514  0.83596  Biso   1.000  Ag
  O2       1.0000 0.00158  0.66339  0.12573  Biso   1.000  O
  N3       1.0000 0.87272  0.67575  0.99483  Biso   1.000  N
  N4       1.0000 0.94524  0.53071  0.95153  Biso   1.000  N
  C12      1.0000 0.88514  0.71122  0.09353  Biso   1.000  C
  H9       1.0000 0.86847  0.72733  0.09053  Biso   1.000  H
  C13      1.0000 0.92113  0.72542  0.19973  Biso   1.000  C
  H10      1.0000 0.92877  0.75053  0.26933  Biso   1.000  H
  C14      1.0000 0.94576  0.70269  0.20333  Biso   1.000  C
  H11      1.0000 0.97117  0.71233  0.27373  Biso   1.000  H
  C15      1.0000 0.93298  0.66558  0.10303  Biso   1.000  C
  C16      1.0000 0.89611  0.65308  0.00083  Biso   1.000  C
  H12      1.0000 0.88717  0.62743  0.93243  Biso   1.000  H
  C17      1.0000 0.96055  0.64186  0.09983  Biso   1.000  C
  C18      1.0000 0.93750  0.59178  0.06543  Biso   1.000  C
  C19      1.0000 0.89362  0.56078  0.11913  Biso   1.000  C
  H13      1.0000 0.87587  0.57103  0.17633  Biso   1.000  H
  C20      1.0000 0.87629  0.51432  0.08693  Biso   1.000  C
  H14      1.0000 0.84637  0.49203  0.12243  Biso   1.000  H
  C21      1.0000 0.90267  0.50105  0.00373  Biso   1.000  C
  H15      1.0000 0.89027  0.46913  0.98183  Biso   1.000  H
  C22      1.0000 0.96210  0.57522  0.98423  Biso   1.000  C
  H16      1.0000 0.99257  0.59663  0.95013  Biso   1.000  H
  Ag3      1.0000 0.48039  0.98848  0.16930  Biso   1.000  Ag
  O3       1.0000 0.66824  0.99673  0.45907  Biso   1.000  O
  N5       1.0000 0.53938  0.00909  0.32817  Biso   1.000  N
  N6       1.0000 0.61190  0.86405  0.28487  Biso   1.000  N
  C23      1.0000 0.55180  0.04456  0.42687  Biso   1.000  C
  H17      1.0000 0.53513  0.06067  0.42387  Biso   1.000  H
  C24      1.0000 0.58779  0.05876  0.53307  Biso   1.000  C
  H18      1.0000 0.59543  0.08387  0.60267  Biso   1.000  H
  C25      1.0000 0.61242  0.03603  0.53667  Biso   1.000  C
  H19      1.0000 0.63783  0.04567  0.60707  Biso   1.000  H
  C26      1.0000 0.59964  0.99892  0.43637  Biso   1.000  C
  C27      1.0000 0.56277  0.98642  0.33417  Biso   1.000  C
  H20      1.0000 0.55383  0.96077  0.26577  Biso   1.000  H
  C28      1.0000 0.62721  0.97520  0.43317  Biso   1.000  C
  C29      1.0000 0.60416  0.92512  0.39877  Biso   1.000  C
  C30      1.0000 0.56028  0.89412  0.45247  Biso   1.000  C
  H21      1.0000 0.54253  0.90437  0.50967  Biso   1.000  H
  C31      1.0000 0.54295  0.84766  0.42027  Biso   1.000  C
  H22      1.0000 0.51303  0.82537  0.45577  Biso   1.000  H
  C32      1.0000 0.56933  0.83439  0.33707  Biso   1.000  C
  H23      1.0000 0.55693  0.80247  0.31517  Biso   1.000  H
  C33      1.0000 0.62876  0.90856  0.31757  Biso   1.000  C
  H24      1.0000 0.65923  0.92997  0.28347  Biso   1.000  H
  Ag4      1.0000 0.67819  0.82525  0.50263  Biso   1.000  Ag
  O4       1.0000 0.66994  0.00485  0.79240  Biso   1.000  O
  N7       1.0000 0.65758  0.86363  0.66150  Biso   1.000  N
  N8       1.0000 0.80262  0.08119  0.61820  Biso   1.000  N
  C34      1.0000 0.62211  0.84058  0.76020  Biso   1.000  C
  H25      1.0000 0.60600  0.80780  0.75720  Biso   1.000  H
  C35      1.0000 0.60791  0.86237  0.86640  Biso   1.000  C
  H26      1.0000 0.58280  0.84490  0.93600  Biso   1.000  H
  C36      1.0000 0.63064  0.90973  0.87000  Biso   1.000  C
  H27      1.0000 0.62100  0.92550  0.94040  Biso   1.000  H
  C37      1.0000 0.66775  0.93406  0.76970  Biso   1.000  C
  C38      1.0000 0.68025  0.90969  0.66750  Biso   1.000  C
  H28      1.0000 0.70590  0.92640  0.59910  Biso   1.000  H
  C39      1.0000 0.69147  0.98535  0.76650  Biso   1.000  C
  C40      1.0000 0.74155  0.01238  0.73210  Biso   1.000  C
  C41      1.0000 0.77255  0.99950  0.78580  Biso   1.000  C
  H29      1.0000 0.76230  0.97150  0.84300  Biso   1.000  H
  C42      1.0000 0.81901  0.02863  0.75360  Biso   1.000  C
  H30      1.0000 0.84130  0.02100  0.78910  Biso   1.000  H
  C43      1.0000 0.83228  0.06828  0.67040  Biso   1.000  C
  H31      1.0000 0.86420  0.08780  0.64850  Biso   1.000  H
  C44      1.0000 0.75811  0.05354  0.65090  Biso   1.000  C
  H32      1.0000 0.73670  0.06260  0.61680  Biso   1.000  H
  Ag5      1.0000 0.34486  0.15858  0.83596  Biso   1.000  Ag
  O5       1.0000 0.33661  0.33818  0.12573  Biso   1.000  O
  N9       1.0000 0.32425  0.19696  0.99483  Biso   1.000  N
  N10      1.0000 0.46929  0.41452  0.95153  Biso   1.000  N
  C45      1.0000 0.28878  0.17391  0.09353  Biso   1.000  C
  H33      1.0000 0.27267  0.14113  0.09053  Biso   1.000  H
  C46      1.0000 0.27458  0.19570  0.19973  Biso   1.000  C
  H34      1.0000 0.24947  0.17823  0.26933  Biso   1.000  H
  C47      1.0000 0.29731  0.24306  0.20333  Biso   1.000  C
  H35      1.0000 0.28767  0.25883  0.27373  Biso   1.000  H
  C48      1.0000 0.33442  0.26739  0.10303  Biso   1.000  C
  C49      1.0000 0.34692  0.24302  0.00083  Biso   1.000  C
  H36      1.0000 0.37257  0.25973  0.93243  Biso   1.000  H
  C50      1.0000 0.35814  0.31868  0.09983  Biso   1.000  C
  C51      1.0000 0.40822  0.34571  0.06543  Biso   1.000  C
  C52      1.0000 0.43922  0.33283  0.11913  Biso   1.000  C
  H37      1.0000 0.42897  0.30483  0.17633  Biso   1.000  H
  C53      1.0000 0.48568  0.36196  0.08693  Biso   1.000  C
  H38      1.0000 0.50797  0.35433  0.12243  Biso   1.000  H
  C54      1.0000 0.49895  0.40161  0.00373  Biso   1.000  C
  H39      1.0000 0.53087  0.42113  0.98183  Biso   1.000  H
  C55      1.0000 0.42478  0.38687  0.98423  Biso   1.000  C
  H40      1.0000 0.40337  0.39593  0.95013  Biso   1.000  H
  Ag6      1.0000 0.01152  0.49191  0.16930  Biso   1.000  Ag
  O6       1.0000 0.00327  0.67152  0.45907  Biso   1.000  O
  N11      1.0000 0.99091  0.53030  0.32817  Biso   1.000  N
  N12      1.0000 0.13595  0.74786  0.28487  Biso   1.000  N
  C56      1.0000 0.95544  0.50725  0.42687  Biso   1.000  C
  H41      1.0000 0.93933  0.47447  0.42387  Biso   1.000  H
  C57      1.0000 0.94124  0.52904  0.53307  Biso   1.000  C
  H42      1.0000 0.91613  0.51157  0.60267  Biso   1.000  H
  C58      1.0000 0.96397  0.57640  0.53667  Biso   1.000  C
  H43      1.0000 0.95433  0.59217  0.60707  Biso   1.000  H
  C59      1.0000 0.00108  0.60073  0.43637  Biso   1.000  C
  C60      1.0000 0.01358  0.57636  0.33417  Biso   1.000  C
  H44      1.0000 0.03923  0.59307  0.26577  Biso   1.000  H
  C61      1.0000 0.02480  0.65202  0.43317  Biso   1.000  C
  C62      1.0000 0.07488  0.67905  0.39877  Biso   1.000  C
  C63      1.0000 0.10588  0.66617  0.45247  Biso   1.000  C
  H45      1.0000 0.09563  0.63817  0.50967  Biso   1.000  H
  C64      1.0000 0.15234  0.69530  0.42027  Biso   1.000  C
  H46      1.0000 0.17463  0.68767  0.45577  Biso   1.000  H
  C65      1.0000 0.16561  0.73495  0.33707  Biso   1.000  C
  H47      1.0000 0.19753  0.75447  0.31517  Biso   1.000  H
  C66      1.0000 0.09144  0.72021  0.31757  Biso   1.000  C
  H48      1.0000 0.07003  0.72927  0.28347  Biso   1.000  H
  Ag7      1.0000 0.17475  0.85294  0.50263  Biso   1.000  Ag
  O7       1.0000 0.99515  0.66509  0.79240  Biso   1.000  O
  N13      1.0000 0.13637  0.79395  0.66150  Biso   1.000  N
  N14      1.0000 0.91881  0.72143  0.61820  Biso   1.000  N
  C67      1.0000 0.15942  0.78153  0.76020  Biso   1.000  C
  H49      1.0000 0.19220  0.79820  0.75720  Biso   1.000  H
  C68      1.0000 0.13763  0.74554  0.86640  Biso   1.000  C
  H50      1.0000 0.15510  0.73790  0.93600  Biso   1.000  H
  C69      1.0000 0.09027  0.72091  0.87000  Biso   1.000  C
  H51      1.0000 0.07450  0.69550  0.94040  Biso   1.000  H
  C70      1.0000 0.06594  0.73369  0.76970  Biso   1.000  C
  C71      1.0000 0.09031  0.77056  0.66750  Biso   1.000  C
  H52      1.0000 0.07360  0.77950  0.59910  Biso   1.000  H
  C72      1.0000 0.01465  0.70612  0.76650  Biso   1.000  C
  C73      1.0000 0.98762  0.72917  0.73210  Biso   1.000  C
  C74      1.0000 0.00050  0.77305  0.78580  Biso   1.000  C
  H53      1.0000 0.02850  0.79080  0.84300  Biso   1.000  H
  C75      1.0000 0.97137  0.79038  0.75360  Biso   1.000  C
  H54      1.0000 0.97900  0.82030  0.78910  Biso   1.000  H
  C76      1.0000 0.93172  0.76400  0.67040  Biso   1.000  C
  H55      1.0000 0.91220  0.77640  0.64850  Biso   1.000  H
  C77      1.0000 0.94646  0.70457  0.65090  Biso   1.000  C
  H56      1.0000 0.93740  0.67410  0.61680  Biso   1.000  H
  Ag8      1.0000 0.84142  0.18628  0.83596  Biso   1.000  Ag
  O8       1.0000 0.66182  0.99842  0.12573  Biso   1.000  O
  N15      1.0000 0.80304  0.12728  0.99483  Biso   1.000  N
  N16      1.0000 0.58548  0.05476  0.95153  Biso   1.000  N
  C78      1.0000 0.82609  0.11486  0.09353  Biso   1.000  C
  H57      1.0000 0.85887  0.13153  0.09053  Biso   1.000  H
  C79      1.0000 0.80430  0.07887  0.19973  Biso   1.000  C
  H58      1.0000 0.82177  0.07123  0.26933  Biso   1.000  H
  C80      1.0000 0.75694  0.05424  0.20333  Biso   1.000  C
  H59      1.0000 0.74117  0.02883  0.27373  Biso   1.000  H
  C81      1.0000 0.73261  0.06702  0.10303  Biso   1.000  C
  C82      1.0000 0.75698  0.10389  0.00083  Biso   1.000  C
  H60      1.0000 0.74027  0.11283  0.93243  Biso   1.000  H
  C83      1.0000 0.68132  0.03945  0.09983  Biso   1.000  C
  C84      1.0000 0.65429  0.06250  0.06543  Biso   1.000  C
  C85      1.0000 0.66717  0.10638  0.11913  Biso   1.000  C
  H61      1.0000 0.69517  0.12413  0.17633  Biso   1.000  H
  C86      1.0000 0.63804  0.12371  0.08693  Biso   1.000  C
  H62      1.0000 0.64567  0.15363  0.12243  Biso   1.000  H
  C87      1.0000 0.59839  0.09733  0.00373  Biso   1.000  C
  H63      1.0000 0.57887  0.10973  0.98183  Biso   1.000  H
  C88      1.0000 0.61313  0.03790  0.98423  Biso   1.000  C
  H64      1.0000 0.60407  0.00743  0.95013  Biso   1.000  H
  Ag9      1.0000 0.50809  0.51961  0.16930  Biso   1.000  Ag
  O9       1.0000 0.32848  0.33176  0.45907  Biso   1.000  O
  N17      1.0000 0.46970  0.46062  0.32817  Biso   1.000  N
  N18      1.0000 0.25214  0.38810  0.28487  Biso   1.000  N
  C89      1.0000 0.49275  0.44820  0.42687  Biso   1.000  C
  H65      1.0000 0.52553  0.46487  0.42387  Biso   1.000  H
  C90      1.0000 0.47096  0.41221  0.53307  Biso   1.000  C
  H66      1.0000 0.48843  0.40457  0.60267  Biso   1.000  H
  C91      1.0000 0.42360  0.38758  0.53667  Biso   1.000  C
  H67      1.0000 0.40783  0.36217  0.60707  Biso   1.000  H
  C92      1.0000 0.39927  0.40036  0.43637  Biso   1.000  C
  C93      1.0000 0.42364  0.43723  0.33417  Biso   1.000  C
  H68      1.0000 0.40693  0.44617  0.26577  Biso   1.000  H
  C94      1.0000 0.34798  0.37279  0.43317  Biso   1.000  C
  C95      1.0000 0.32095  0.39584  0.39877  Biso   1.000  C
  C96      1.0000 0.33383  0.43972  0.45247  Biso   1.000  C
  H69      1.0000 0.36183  0.45747  0.50967  Biso   1.000  H
  C97      1.0000 0.30470  0.45705  0.42027  Biso   1.000  C
  H70      1.0000 0.31233  0.48697  0.45577  Biso   1.000  H
  C98      1.0000 0.26505  0.43067  0.33707  Biso   1.000  C
  H71      1.0000 0.24553  0.44307  0.31517  Biso   1.000  H
  C99      1.0000 0.27979  0.37124  0.31757  Biso   1.000  C
  H72      1.0000 0.27073  0.34077  0.28347  Biso   1.000  H
  Ag10     1.0000 0.85294  0.67819  0.49737  Biso   1.000  Ag
  O10      1.0000 0.66509  0.66994  0.20760  Biso   1.000  O
  N19      1.0000 0.79395  0.65758  0.33850  Biso   1.000  N
  N20      1.0000 0.72143  0.80262  0.38180  Biso   1.000  N
  C100     1.0000 0.78153  0.62211  0.23980  Biso   1.000  C
  H73      1.0000 0.79820  0.60600  0.24280  Biso   1.000  H
  C101     1.0000 0.74554  0.60791  0.13360  Biso   1.000  C
  H74      1.0000 0.73790  0.58280  0.06400  Biso   1.000  H
  C102     1.0000 0.72091  0.63064  0.13000  Biso   1.000  C
  H75      1.0000 0.69550  0.62100  0.05960  Biso   1.000  H
  C103     1.0000 0.73369  0.66775  0.23030  Biso   1.000  C
  C104     1.0000 0.77056  0.68025  0.33250  Biso   1.000  C
  H76      1.0000 0.77950  0.70590  0.40090  Biso   1.000  H
  C105     1.0000 0.70612  0.69147  0.23350  Biso   1.000  C
  C106     1.0000 0.72917  0.74155  0.26790  Biso   1.000  C
  C107     1.0000 0.77305  0.77255  0.21420  Biso   1.000  C
  H77      1.0000 0.79080  0.76230  0.15700  Biso   1.000  H
  C108     1.0000 0.79038  0.81901  0.24640  Biso   1.000  C
  H78      1.0000 0.82030  0.84130  0.21090  Biso   1.000  H
  C109     1.0000 0.76400  0.83228  0.32960  Biso   1.000  C
  H79      1.0000 0.77640  0.86420  0.35150  Biso   1.000  H
  C110     1.0000 0.70457  0.75811  0.34910  Biso   1.000  C
  H80      1.0000 0.67410  0.73670  0.38320  Biso   1.000  H
  Ag11     1.0000 0.51961  0.01152  0.83070  Biso   1.000  Ag
  O11      1.0000 0.33176  0.00327  0.54093  Biso   1.000  O
  N21      1.0000 0.46062  0.99091  0.67183  Biso   1.000  N
  N22      1.0000 0.38810  0.13595  0.71513  Biso   1.000  N
  C111     1.0000 0.44820  0.95544  0.57313  Biso   1.000  C
  H81      1.0000 0.46487  0.93933  0.57613  Biso   1.000  H
  C112     1.0000 0.41221  0.94124  0.46693  Biso   1.000  C
  H82      1.0000 0.40457  0.91613  0.39733  Biso   1.000  H
  C113     1.0000 0.38758  0.96397  0.46333  Biso   1.000  C
  H83      1.0000 0.36217  0.95433  0.39293  Biso   1.000  H
  C114     1.0000 0.40036  0.00108  0.56363  Biso   1.000  C
  C115     1.0000 0.43723  0.01358  0.66583  Biso   1.000  C
  H84      1.0000 0.44617  0.03923  0.73423  Biso   1.000  H
  C116     1.0000 0.37279  0.02480  0.56683  Biso   1.000  C
  C117     1.0000 0.39584  0.07488  0.60123  Biso   1.000  C
  C118     1.0000 0.43972  0.10588  0.54753  Biso   1.000  C
  H85      1.0000 0.45747  0.09563  0.49033  Biso   1.000  H
  C119     1.0000 0.45705  0.15234  0.57973  Biso   1.000  C
  H86      1.0000 0.48697  0.17463  0.54423  Biso   1.000  H
  C120     1.0000 0.43067  0.16561  0.66293  Biso   1.000  C
  H87      1.0000 0.44307  0.19753  0.68483  Biso   1.000  H
  C121     1.0000 0.37124  0.09144  0.68243  Biso   1.000  C
  H88      1.0000 0.34077  0.07003  0.71653  Biso   1.000  H
  Ag12     1.0000 0.18628  0.34486  0.16404  Biso   1.000  Ag
  O12      1.0000 0.99842  0.33661  0.87427  Biso   1.000  O
  N23      1.0000 0.12728  0.32425  0.00517  Biso   1.000  N
  N24      1.0000 0.05476  0.46929  0.04847  Biso   1.000  N
  C122     1.0000 0.11486  0.28878  0.90647  Biso   1.000  C
  H89      1.0000 0.13153  0.27267  0.90947  Biso   1.000  H
  C123     1.0000 0.07887  0.27458  0.80027  Biso   1.000  C
  H90      1.0000 0.07123  0.24947  0.73067  Biso   1.000  H
  C124     1.0000 0.05424  0.29731  0.79667  Biso   1.000  C
  H91      1.0000 0.02883  0.28767  0.72627  Biso   1.000  H
  C125     1.0000 0.06702  0.33442  0.89697  Biso   1.000  C
  C126     1.0000 0.10389  0.34692  0.99917  Biso   1.000  C
  H92      1.0000 0.11283  0.37257  0.06757  Biso   1.000  H
  C127     1.0000 0.03945  0.35814  0.90017  Biso   1.000  C
  C128     1.0000 0.06250  0.40822  0.93457  Biso   1.000  C
  C129     1.0000 0.10638  0.43922  0.88087  Biso   1.000  C
  H93      1.0000 0.12413  0.42897  0.82367  Biso   1.000  H
  C130     1.0000 0.12371  0.48568  0.91307  Biso   1.000  C
  H94      1.0000 0.15363  0.50797  0.87757  Biso   1.000  H
  C131     1.0000 0.09733  0.49895  0.99627  Biso   1.000  C
  H95      1.0000 0.10973  0.53087  0.01817  Biso   1.000  H
  C132     1.0000 0.03790  0.42478  0.01577  Biso   1.000  C
  H96      1.0000 0.00743  0.40337  0.04987  Biso   1.000  H
  Ag13     1.0000 0.32181  0.17475  0.49737  Biso   1.000  Ag
  O13      1.0000 0.33006  0.99515  0.20760  Biso   1.000  O
  N25      1.0000 0.34242  0.13637  0.33850  Biso   1.000  N
  N26      1.0000 0.19738  0.91881  0.38180  Biso   1.000  N
  C133     1.0000 0.37789  0.15942  0.23980  Biso   1.000  C
  H97      1.0000 0.39400  0.19220  0.24280  Biso   1.000  H
  C134     1.0000 0.39209  0.13763  0.13360  Biso   1.000  C
  H98      1.0000 0.41720  0.15510  0.06400  Biso   1.000  H
  C135     1.0000 0.36936  0.09027  0.13000  Biso   1.000  C
  H99      1.0000 0.37900  0.07450  0.05960  Biso   1.000  H
  C136     1.0000 0.33225  0.06594  0.23030  Biso   1.000  C
  C137     1.0000 0.31975  0.09031  0.33250  Biso   1.000  C
  H100     1.0000 0.29410  0.07360  0.40090  Biso   1.000  H
  C138     1.0000 0.30853  0.01465  0.23350  Biso   1.000  C
  C139     1.0000 0.25845  0.98762  0.26790  Biso   1.000  C
  C140     1.0000 0.22745  0.00050  0.21420  Biso   1.000  C
  H101     1.0000 0.23770  0.02850  0.15700  Biso   1.000  H
  C141     1.0000 0.18099  0.97137  0.24640  Biso   1.000  C
  H102     1.0000 0.15870  0.97900  0.21090  Biso   1.000  H
  C142     1.0000 0.16772  0.93172  0.32960  Biso   1.000  C
  H103     1.0000 0.13580  0.91220  0.35150  Biso   1.000  H
  C143     1.0000 0.24189  0.94646  0.34910  Biso   1.000  C
  H104     1.0000 0.26330  0.93740  0.38320  Biso   1.000  H
  Ag14     1.0000 0.98848  0.50809  0.83070  Biso   1.000  Ag
  O14      1.0000 0.99673  0.32848  0.54093  Biso   1.000  O
  N27      1.0000 0.00909  0.46970  0.67183  Biso   1.000  N
  N28      1.0000 0.86405  0.25214  0.71513  Biso   1.000  N
  C144     1.0000 0.04456  0.49275  0.57313  Biso   1.000  C
  H105     1.0000 0.06067  0.52553  0.57613  Biso   1.000  H
  C145     1.0000 0.05876  0.47096  0.46693  Biso   1.000  C
  H106     1.0000 0.08387  0.48843  0.39733  Biso   1.000  H
  C146     1.0000 0.03603  0.42360  0.46333  Biso   1.000  C
  H107     1.0000 0.04567  0.40783  0.39293  Biso   1.000  H
  C147     1.0000 0.99892  0.39927  0.56363  Biso   1.000  C
  C148     1.0000 0.98642  0.42364  0.66583  Biso   1.000  C
  H108     1.0000 0.96077  0.40693  0.73423  Biso   1.000  H
  C149     1.0000 0.97520  0.34798  0.56683  Biso   1.000  C
  C150     1.0000 0.92512  0.32095  0.60123  Biso   1.000  C
  C151     1.0000 0.89412  0.33383  0.54753  Biso   1.000  C
  H109     1.0000 0.90437  0.36183  0.49033  Biso   1.000  H
  C152     1.0000 0.84766  0.30470  0.57973  Biso   1.000  C
  H110     1.0000 0.82537  0.31233  0.54423  Biso   1.000  H
  C153     1.0000 0.83439  0.26505  0.66293  Biso   1.000  C
  H111     1.0000 0.80247  0.24553  0.68483  Biso   1.000  H
  C154     1.0000 0.90856  0.27979  0.68243  Biso   1.000  C
  H112     1.0000 0.92997  0.27073  0.71653  Biso   1.000  H
  Ag15     1.0000 0.65514  0.84142  0.16404  Biso   1.000  Ag
  O15      1.0000 0.66339  0.66182  0.87427  Biso   1.000  O
  N29      1.0000 0.67575  0.80304  0.00517  Biso   1.000  N
  N30      1.0000 0.53071  0.58548  0.04847  Biso   1.000  N
  C155     1.0000 0.71122  0.82609  0.90647  Biso   1.000  C
  H113     1.0000 0.72733  0.85887  0.90947  Biso   1.000  H
  C156     1.0000 0.72542  0.80430  0.80027  Biso   1.000  C
  H114     1.0000 0.75053  0.82177  0.73067  Biso   1.000  H
  C157     1.0000 0.70269  0.75694  0.79667  Biso   1.000  C
  H115     1.0000 0.71233  0.74117  0.72627  Biso   1.000  H
  C158     1.0000 0.66558  0.73261  0.89697  Biso   1.000  C
  C159     1.0000 0.65308  0.75698  0.99917  Biso   1.000  C
  H116     1.0000 0.62743  0.74027  0.06757  Biso   1.000  H
  C160     1.0000 0.64186  0.68132  0.90017  Biso   1.000  C
  C161     1.0000 0.59178  0.65429  0.93457  Biso   1.000  C
  C162     1.0000 0.56078  0.66717  0.88087  Biso   1.000  C
  H117     1.0000 0.57103  0.69517  0.82367  Biso   1.000  H
  C163     1.0000 0.51432  0.63804  0.91307  Biso   1.000  C
  H118     1.0000 0.49203  0.64567  0.87757  Biso   1.000  H
  C164     1.0000 0.50105  0.59839  0.99627  Biso   1.000  C
  H119     1.0000 0.46913  0.57887  0.01817  Biso   1.000  H
  C165     1.0000 0.57522  0.61313  0.01577  Biso   1.000  C
  H120     1.0000 0.59663  0.60407  0.04987  Biso   1.000  H
  Ag16     1.0000 0.82525  0.14706  0.49737  Biso   1.000  Ag
  O16      1.0000 0.00485  0.33491  0.20760  Biso   1.000  O
  N31      1.0000 0.86363  0.20605  0.33850  Biso   1.000  N
  N32      1.0000 0.08119  0.27857  0.38180  Biso   1.000  N
  C166     1.0000 0.84058  0.21847  0.23980  Biso   1.000  C
  H121     1.0000 0.80780  0.20180  0.24280  Biso   1.000  H
  C167     1.0000 0.86237  0.25446  0.13360  Biso   1.000  C
  H122     1.0000 0.84490  0.26210  0.06400  Biso   1.000  H
  C168     1.0000 0.90973  0.27909  0.13000  Biso   1.000  C
  H123     1.0000 0.92550  0.30450  0.05960  Biso   1.000  H
  C169     1.0000 0.93406  0.26631  0.23030  Biso   1.000  C
  C170     1.0000 0.90969  0.22944  0.33250  Biso   1.000  C
  H124     1.0000 0.92640  0.22050  0.40090  Biso   1.000  H
  C171     1.0000 0.98535  0.29388  0.23350  Biso   1.000  C
  C172     1.0000 0.01238  0.27083  0.26790  Biso   1.000  C
  C173     1.0000 0.99950  0.22695  0.21420  Biso   1.000  C
  H125     1.0000 0.97150  0.20920  0.15700  Biso   1.000  H
  C174     1.0000 0.02863  0.20962  0.24640  Biso   1.000  C
  H126     1.0000 0.02100  0.17970  0.21090  Biso   1.000  H
  C175     1.0000 0.06828  0.23600  0.32960  Biso   1.000  C
  H127     1.0000 0.08780  0.22360  0.35150  Biso   1.000  H
  C176     1.0000 0.05354  0.29543  0.34910  Biso   1.000  C
  H128     1.0000 0.06260  0.32590  0.38320  Biso   1.000  H
  Ag17     1.0000 0.49191  0.48039  0.83070  Biso   1.000  Ag
  O17      1.0000 0.67152  0.66824  0.54093  Biso   1.000  O
  N33      1.0000 0.53030  0.53938  0.67183  Biso   1.000  N
  N34      1.0000 0.74786  0.61190  0.71513  Biso   1.000  N
  C177     1.0000 0.50725  0.55180  0.57313  Biso   1.000  C
  H129     1.0000 0.47447  0.53513  0.57613  Biso   1.000  H
  C178     1.0000 0.52904  0.58779  0.46693  Biso   1.000  C
  H130     1.0000 0.51157  0.59543  0.39733  Biso   1.000  H
  C179     1.0000 0.57640  0.61242  0.46333  Biso   1.000  C
  H131     1.0000 0.59217  0.63783  0.39293  Biso   1.000  H
  C180     1.0000 0.60073  0.59964  0.56363  Biso   1.000  C
  C181     1.0000 0.57636  0.56277  0.66583  Biso   1.000  C
  H132     1.0000 0.59307  0.55383  0.73423  Biso   1.000  H
  C182     1.0000 0.65202  0.62721  0.56683  Biso   1.000  C
  C183     1.0000 0.67905  0.60416  0.60123  Biso   1.000  C
  C184     1.0000 0.66617  0.56028  0.54753  Biso   1.000  C
  H133     1.0000 0.63817  0.54253  0.49033  Biso   1.000  H
  C185     1.0000 0.69530  0.54295  0.57973  Biso   1.000  C
  H134     1.0000 0.68767  0.51303  0.54423  Biso   1.000  H
  C186     1.0000 0.73495  0.56933  0.66293  Biso   1.000  C
  H135     1.0000 0.75447  0.55693  0.68483  Biso   1.000  H
  C187     1.0000 0.72021  0.62876  0.68243  Biso   1.000  C
  H136     1.0000 0.72927  0.65923  0.71653  Biso   1.000  H
  Ag18     1.0000 0.15858  0.81372  0.16404  Biso   1.000  Ag
  O18      1.0000 0.33818  0.00158  0.87427  Biso   1.000  O
  N35      1.0000 0.19696  0.87272  0.00517  Biso   1.000  N
  N36      1.0000 0.41452  0.94524  0.04847  Biso   1.000  N
  C188     1.0000 0.17391  0.88514  0.90647  Biso   1.000  C
  H137     1.0000 0.14113  0.86847  0.90947  Biso   1.000  H
  C189     1.0000 0.19570  0.92113  0.80027  Biso   1.000  C
  H138     1.0000 0.17823  0.92877  0.73067  Biso   1.000  H
  C190     1.0000 0.24306  0.94576  0.79667  Biso   1.000  C
  H139     1.0000 0.25883  0.97117  0.72627  Biso   1.000  H
  C191     1.0000 0.26739  0.93298  0.89697  Biso   1.000  C
  C192     1.0000 0.24302  0.89611  0.99917  Biso   1.000  C
  H140     1.0000 0.25973  0.88717  0.06757  Biso   1.000  H
  C193     1.0000 0.31868  0.96055  0.90017  Biso   1.000  C
  C194     1.0000 0.34571  0.93750  0.93457  Biso   1.000  C
  C195     1.0000 0.33283  0.89362  0.88087  Biso   1.000  C
  H141     1.0000 0.30483  0.87587  0.82367  Biso   1.000  H
  C196     1.0000 0.36196  0.87629  0.91307  Biso   1.000  C
  H142     1.0000 0.35433  0.84637  0.87757  Biso   1.000  H
  C197     1.0000 0.40161  0.90267  0.99627  Biso   1.000  C
  H143     1.0000 0.42113  0.89027  0.01817  Biso   1.000  H
  C198     1.0000 0.38687  0.96210  0.01577  Biso   1.000  C
  H144     1.0000 0.39593  0.99257  0.04987  Biso   1.000  H
