data_image0
_cell_length_a       34.1447
_cell_length_b       34.1447
_cell_length_c       8.3594
_cell_angle_alpha    90
_cell_angle_beta     90
_cell_angle_gamma    120

_symmetry_space_group_name_H-M    "P 1"
_symmetry_int_tables_number       1

loop_
  _symmetry_equiv_pos_as_xyz
  'x, y, z'

loop_
  _atom_site_label
  _atom_site_occupancy
  _atom_site_fract_x
  _atom_site_fract_y
  _atom_site_fract_z
  _atom_site_thermal_displace_type
  _atom_site_B_iso_or_equiv
  _atom_site_type_symbol
  Ag1      1.0000 0.14711  0.32014  0.50711  Biso   1.000  Ag
  O1       1.0000 0.33472  0.32830  0.77580  Biso   1.000  O
  N1       1.0000 0.20603  0.33960  0.66120  Biso   1.000  N
  N2       1.0000 0.27764  0.19651  0.60940  Biso   1.000  N
  C1       1.0000 0.21966  0.37535  0.75960  Biso   1.000  C
  H1       1.0000 0.20310  0.39100  0.76060  Biso   1.000  H
  C2       1.0000 0.25698  0.39028  0.85960  Biso   1.000  C
  H2       1.0000 0.26580  0.41570  0.92750  Biso   1.000  H
  C3       1.0000 0.28109  0.36768  0.85890  Biso   1.000  C
  H3       1.0000 0.30690  0.37750  0.92520  Biso   1.000  H
  C4       1.0000 0.26696  0.33031  0.75980  Biso   1.000  C
  C5       1.0000 0.22933  0.31740  0.66300  Biso   1.000  C
  H4       1.0000 0.21970  0.29180  0.59540  Biso   1.000  H
  C6       1.0000 0.29392  0.30693  0.75310  Biso   1.000  C
  C7       1.0000 0.27079  0.25735  0.72120  Biso   1.000  C
  C8       1.0000 0.22820  0.22737  0.78170  Biso   1.000  C
  H5       1.0000 0.21140  0.23790  0.84020  Biso   1.000  H
  C9       1.0000 0.21096  0.18141  0.75360  Biso   1.000  C
  H6       1.0000 0.18200  0.15980  0.79350  Biso   1.000  H
  C10      1.0000 0.23631  0.16772  0.66730  Biso   1.000  C
  H7       1.0000 0.22400  0.13630  0.64770  Biso   1.000  H
  C11      1.0000 0.29427  0.24057  0.63840  Biso   1.000  C
  H8       1.0000 0.32370  0.26140  0.60010  Biso   1.000  H
  Ag2      1.0000 0.81378  0.65347  0.84044  Biso   1.000  Ag
  O2       1.0000 0.00139  0.66163  0.10913  Biso   1.000  O
  N3       1.0000 0.87270  0.67293  0.99453  Biso   1.000  N
  N4       1.0000 0.94431  0.52984  0.94273  Biso   1.000  N
  C12      1.0000 0.88633  0.70868  0.09293  Biso   1.000  C
  H9       1.0000 0.86977  0.72433  0.09393  Biso   1.000  H
  C13      1.0000 0.92365  0.72361  0.19293  Biso   1.000  C
  H10      1.0000 0.93247  0.74903  0.26083  Biso   1.000  H
  C14      1.0000 0.94776  0.70101  0.19223  Biso   1.000  C
  H11      1.0000 0.97357  0.71083  0.25853  Biso   1.000  H
  C15      1.0000 0.93363  0.66364  0.09313  Biso   1.000  C
  C16      1.0000 0.89600  0.65073  0.99633  Biso   1.000  C
  H12      1.0000 0.88637  0.62513  0.92873  Biso   1.000  H
  C17      1.0000 0.96059  0.64026  0.08643  Biso   1.000  C
  C18      1.0000 0.93746  0.59068  0.05453  Biso   1.000  C
  C19      1.0000 0.89487  0.56070  0.11503  Biso   1.000  C
  H13      1.0000 0.87807  0.57123  0.17353  Biso   1.000  H
  C20      1.0000 0.87763  0.51474  0.08693  Biso   1.000  C
  H14      1.0000 0.84867  0.49313  0.12683  Biso   1.000  H
  C21      1.0000 0.90298  0.50105  0.00063  Biso   1.000  C
  H15      1.0000 0.89067  0.46963  0.98103  Biso   1.000  H
  C22      1.0000 0.96094  0.57390  0.97173  Biso   1.000  C
  H16      1.0000 0.99037  0.59473  0.93343  Biso   1.000  H
  Ag3      1.0000 0.48045  0.98680  0.17378  Biso   1.000  Ag
  O3       1.0000 0.66805  0.99497  0.44247  Biso   1.000  O
  N5       1.0000 0.53936  0.00627  0.32787  Biso   1.000  N
  N6       1.0000 0.61097  0.86318  0.27607  Biso   1.000  N
  C23      1.0000 0.55299  0.04202  0.42627  Biso   1.000  C
  H17      1.0000 0.53643  0.05767  0.42727  Biso   1.000  H
  C24      1.0000 0.59031  0.05695  0.52627  Biso   1.000  C
  H18      1.0000 0.59913  0.08237  0.59417  Biso   1.000  H
  C25      1.0000 0.61442  0.03435  0.52557  Biso   1.000  C
  H19      1.0000 0.64023  0.04417  0.59187  Biso   1.000  H
  C26      1.0000 0.60029  0.99698  0.42647  Biso   1.000  C
  C27      1.0000 0.56266  0.98407  0.32967  Biso   1.000  C
  H20      1.0000 0.55303  0.95847  0.26207  Biso   1.000  H
  C28      1.0000 0.62725  0.97360  0.41977  Biso   1.000  C
  C29      1.0000 0.60412  0.92402  0.38787  Biso   1.000  C
  C30      1.0000 0.56153  0.89404  0.44837  Biso   1.000  C
  H21      1.0000 0.54473  0.90457  0.50687  Biso   1.000  H
  C31      1.0000 0.54429  0.84808  0.42027  Biso   1.000  C
  H22      1.0000 0.51533  0.82647  0.46017  Biso   1.000  H
  C32      1.0000 0.56964  0.83439  0.33397  Biso   1.000  C
  H23      1.0000 0.55733  0.80297  0.31437  Biso   1.000  H
  C33      1.0000 0.62760  0.90724  0.30507  Biso   1.000  C
  H24      1.0000 0.65703  0.92807  0.26677  Biso   1.000  H
  Ag4      1.0000 0.67986  0.82698  0.50711  Biso   1.000  Ag
  O4       1.0000 0.67170  0.00642  0.77580  Biso   1.000  O
  N7       1.0000 0.66040  0.86643  0.66120  Biso   1.000  N
  N8       1.0000 0.80349  0.08113  0.60940  Biso   1.000  N
  C34      1.0000 0.62465  0.84431  0.75960  Biso   1.000  C
  H25      1.0000 0.60900  0.81210  0.76060  Biso   1.000  H
  C35      1.0000 0.60972  0.86670  0.85960  Biso   1.000  C
  H26      1.0000 0.58430  0.85010  0.92750  Biso   1.000  H
  C36      1.0000 0.63232  0.91341  0.85890  Biso   1.000  C
  H27      1.0000 0.62250  0.92940  0.92520  Biso   1.000  H
  C37      1.0000 0.66969  0.93665  0.75980  Biso   1.000  C
  C38      1.0000 0.68260  0.91193  0.66300  Biso   1.000  C
  H28      1.0000 0.70820  0.92790  0.59540  Biso   1.000  H
  C39      1.0000 0.69307  0.98699  0.75310  Biso   1.000  C
  C40      1.0000 0.74265  0.01344  0.72120  Biso   1.000  C
  C41      1.0000 0.77263  0.00083  0.78170  Biso   1.000  C
  H29      1.0000 0.76210  0.97350  0.84020  Biso   1.000  H
  C42      1.0000 0.81859  0.02955  0.75360  Biso   1.000  C
  H30      1.0000 0.84020  0.02220  0.79350  Biso   1.000  H
  C43      1.0000 0.83228  0.06859  0.66730  Biso   1.000  C
  H31      1.0000 0.86370  0.08770  0.64770  Biso   1.000  H
  C44      1.0000 0.75943  0.05370  0.63840  Biso   1.000  C
  H32      1.0000 0.73860  0.06230  0.60010  Biso   1.000  H
  Ag5      1.0000 0.34653  0.16031  0.84044  Biso   1.000  Ag
  O5       1.0000 0.33837  0.33975  0.10913  Biso   1.000  O
  N9       1.0000 0.32707  0.19976  0.99453  Biso   1.000  N
  N10      1.0000 0.47016  0.41446  0.94273  Biso   1.000  N
  C45      1.0000 0.29132  0.17764  0.09293  Biso   1.000  C
  H33      1.0000 0.27567  0.14543  0.09393  Biso   1.000  H
  C46      1.0000 0.27639  0.20003  0.19293  Biso   1.000  C
  H34      1.0000 0.25097  0.18343  0.26083  Biso   1.000  H
  C47      1.0000 0.29899  0.24674  0.19223  Biso   1.000  C
  H35      1.0000 0.28917  0.26273  0.25853  Biso   1.000  H
  C48      1.0000 0.33636  0.26998  0.09313  Biso   1.000  C
  C49      1.0000 0.34927  0.24526  0.99633  Biso   1.000  C
  H36      1.0000 0.37487  0.26123  0.92873  Biso   1.000  H
  C50      1.0000 0.35974  0.32032  0.08643  Biso   1.000  C
  C51      1.0000 0.40932  0.34677  0.05453  Biso   1.000  C
  C52      1.0000 0.43930  0.33416  0.11503  Biso   1.000  C
  H37      1.0000 0.42877  0.30683  0.17353  Biso   1.000  H
  C53      1.0000 0.48526  0.36288  0.08693  Biso   1.000  C
  H38      1.0000 0.50687  0.35553  0.12683  Biso   1.000  H
  C54      1.0000 0.49895  0.40192  0.00063  Biso   1.000  C
  H39      1.0000 0.53037  0.42103  0.98103  Biso   1.000  H
  C55      1.0000 0.42610  0.38703  0.97173  Biso   1.000  C
  H40      1.0000 0.40527  0.39563  0.93343  Biso   1.000  H
  Ag6      1.0000 0.01320  0.49364  0.17378  Biso   1.000  Ag
  O6       1.0000 0.00503  0.67309  0.44247  Biso   1.000  O
  N11      1.0000 0.99373  0.53310  0.32787  Biso   1.000  N
  N12      1.0000 0.13682  0.74780  0.27607  Biso   1.000  N
  C56      1.0000 0.95798  0.51098  0.42627  Biso   1.000  C
  H41      1.0000 0.94233  0.47877  0.42727  Biso   1.000  H
  C57      1.0000 0.94305  0.53337  0.52627  Biso   1.000  C
  H42      1.0000 0.91763  0.51677  0.59417  Biso   1.000  H
  C58      1.0000 0.96565  0.58008  0.52557  Biso   1.000  C
  H43      1.0000 0.95583  0.59607  0.59187  Biso   1.000  H
  C59      1.0000 0.00302  0.60332  0.42647  Biso   1.000  C
  C60      1.0000 0.01593  0.57860  0.32967  Biso   1.000  C
  H44      1.0000 0.04153  0.59457  0.26207  Biso   1.000  H
  C61      1.0000 0.02640  0.65366  0.41977  Biso   1.000  C
  C62      1.0000 0.07598  0.68011  0.38787  Biso   1.000  C
  C63      1.0000 0.10596  0.66750  0.44837  Biso   1.000  C
  H45      1.0000 0.09543  0.64017  0.50687  Biso   1.000  H
  C64      1.0000 0.15192  0.69622  0.42027  Biso   1.000  C
  H46      1.0000 0.17353  0.68887  0.46017  Biso   1.000  H
  C65      1.0000 0.16561  0.73526  0.33397  Biso   1.000  C
  H47      1.0000 0.19703  0.75437  0.31437  Biso   1.000  H
  C66      1.0000 0.09276  0.72037  0.30507  Biso   1.000  C
  H48      1.0000 0.07193  0.72897  0.26677  Biso   1.000  H
  Ag7      1.0000 0.17302  0.85289  0.50711  Biso   1.000  Ag
  O7       1.0000 0.99358  0.66528  0.77580  Biso   1.000  O
  N13      1.0000 0.13357  0.79397  0.66120  Biso   1.000  N
  N14      1.0000 0.91887  0.72236  0.60940  Biso   1.000  N
  C67      1.0000 0.15569  0.78034  0.75960  Biso   1.000  C
  H49      1.0000 0.18790  0.79690  0.76060  Biso   1.000  H
  C68      1.0000 0.13330  0.74302  0.85960  Biso   1.000  C
  H50      1.0000 0.14990  0.73420  0.92750  Biso   1.000  H
  C69      1.0000 0.08659  0.71891  0.85890  Biso   1.000  C
  H51      1.0000 0.07060  0.69310  0.92520  Biso   1.000  H
  C70      1.0000 0.06335  0.73304  0.75980  Biso   1.000  C
  C71      1.0000 0.08807  0.77067  0.66300  Biso   1.000  C
  H52      1.0000 0.07210  0.78030  0.59540  Biso   1.000  H
  C72      1.0000 0.01301  0.70608  0.75310  Biso   1.000  C
  C73      1.0000 0.98656  0.72921  0.72120  Biso   1.000  C
  C74      1.0000 0.99917  0.77180  0.78170  Biso   1.000  C
  H53      1.0000 0.02650  0.78860  0.84020  Biso   1.000  H
  C75      1.0000 0.97045  0.78904  0.75360  Biso   1.000  C
  H54      1.0000 0.97780  0.81800  0.79350  Biso   1.000  H
  C76      1.0000 0.93141  0.76369  0.66730  Biso   1.000  C
  H55      1.0000 0.91230  0.77600  0.64770  Biso   1.000  H
  C77      1.0000 0.94630  0.70573  0.63840  Biso   1.000  C
  H56      1.0000 0.93770  0.67630  0.60010  Biso   1.000  H
  Ag8      1.0000 0.83969  0.18622  0.84044  Biso   1.000  Ag
  O8       1.0000 0.66025  0.99861  0.10913  Biso   1.000  O
  N15      1.0000 0.80024  0.12730  0.99453  Biso   1.000  N
  N16      1.0000 0.58554  0.05569  0.94273  Biso   1.000  N
  C78      1.0000 0.82236  0.11367  0.09293  Biso   1.000  C
  H57      1.0000 0.85457  0.13023  0.09393  Biso   1.000  H
  C79      1.0000 0.79997  0.07635  0.19293  Biso   1.000  C
  H58      1.0000 0.81657  0.06753  0.26083  Biso   1.000  H
  C80      1.0000 0.75326  0.05224  0.19223  Biso   1.000  C
  H59      1.0000 0.73727  0.02643  0.25853  Biso   1.000  H
  C81      1.0000 0.73002  0.06637  0.09313  Biso   1.000  C
  C82      1.0000 0.75474  0.10400  0.99633  Biso   1.000  C
  H60      1.0000 0.73877  0.11363  0.92873  Biso   1.000  H
  C83      1.0000 0.67968  0.03941  0.08643  Biso   1.000  C
  C84      1.0000 0.65323  0.06254  0.05453  Biso   1.000  C
  C85      1.0000 0.66584  0.10513  0.11503  Biso   1.000  C
  H61      1.0000 0.69317  0.12193  0.17353  Biso   1.000  H
  C86      1.0000 0.63712  0.12237  0.08693  Biso   1.000  C
  H62      1.0000 0.64447  0.15133  0.12683  Biso   1.000  H
  C87      1.0000 0.59808  0.09702  0.00063  Biso   1.000  C
  H63      1.0000 0.57897  0.10933  0.98103  Biso   1.000  H
  C88      1.0000 0.61297  0.03906  0.97173  Biso   1.000  C
  H64      1.0000 0.60437  0.00963  0.93343  Biso   1.000  H
  Ag9      1.0000 0.50636  0.51955  0.17378  Biso   1.000  Ag
  O9       1.0000 0.32691  0.33195  0.44247  Biso   1.000  O
  N17      1.0000 0.46690  0.46064  0.32787  Biso   1.000  N
  N18      1.0000 0.25220  0.38903  0.27607  Biso   1.000  N
  C89      1.0000 0.48902  0.44701  0.42627  Biso   1.000  C
  H65      1.0000 0.52123  0.46357  0.42727  Biso   1.000  H
  C90      1.0000 0.46663  0.40969  0.52627  Biso   1.000  C
  H66      1.0000 0.48323  0.40087  0.59417  Biso   1.000  H
  C91      1.0000 0.41992  0.38558  0.52557  Biso   1.000  C
  H67      1.0000 0.40393  0.35977  0.59187  Biso   1.000  H
  C92      1.0000 0.39668  0.39971  0.42647  Biso   1.000  C
  C93      1.0000 0.42140  0.43734  0.32967  Biso   1.000  C
  H68      1.0000 0.40543  0.44697  0.26207  Biso   1.000  H
  C94      1.0000 0.34634  0.37275  0.41977  Biso   1.000  C
  C95      1.0000 0.31989  0.39588  0.38787  Biso   1.000  C
  C96      1.0000 0.33250  0.43847  0.44837  Biso   1.000  C
  H69      1.0000 0.35983  0.45527  0.50687  Biso   1.000  H
  C97      1.0000 0.30378  0.45571  0.42027  Biso   1.000  C
  H70      1.0000 0.31113  0.48467  0.46017  Biso   1.000  H
  C98      1.0000 0.26474  0.43036  0.33397  Biso   1.000  C
  H71      1.0000 0.24563  0.44267  0.31437  Biso   1.000  H
  C99      1.0000 0.27963  0.37240  0.30507  Biso   1.000  C
  H72      1.0000 0.27103  0.34297  0.26677  Biso   1.000  H
  Ag10     1.0000 0.85289  0.67986  0.49289  Biso   1.000  Ag
  O10      1.0000 0.66528  0.67170  0.22420  Biso   1.000  O
  N19      1.0000 0.79397  0.66040  0.33880  Biso   1.000  N
  N20      1.0000 0.72236  0.80349  0.39060  Biso   1.000  N
  C100     1.0000 0.78034  0.62465  0.24040  Biso   1.000  C
  H73      1.0000 0.79690  0.60900  0.23940  Biso   1.000  H
  C101     1.0000 0.74302  0.60972  0.14040  Biso   1.000  C
  H74      1.0000 0.73420  0.58430  0.07250  Biso   1.000  H
  C102     1.0000 0.71891  0.63232  0.14110  Biso   1.000  C
  H75      1.0000 0.69310  0.62250  0.07480  Biso   1.000  H
  C103     1.0000 0.73304  0.66969  0.24020  Biso   1.000  C
  C104     1.0000 0.77067  0.68260  0.33700  Biso   1.000  C
  H76      1.0000 0.78030  0.70820  0.40460  Biso   1.000  H
  C105     1.0000 0.70608  0.69307  0.24690  Biso   1.000  C
  C106     1.0000 0.72921  0.74265  0.27880  Biso   1.000  C
  C107     1.0000 0.77180  0.77263  0.21830  Biso   1.000  C
  H77      1.0000 0.78860  0.76210  0.15980  Biso   1.000  H
  C108     1.0000 0.78904  0.81859  0.24640  Biso   1.000  C
  H78      1.0000 0.81800  0.84020  0.20650  Biso   1.000  H
  C109     1.0000 0.76369  0.83228  0.33270  Biso   1.000  C
  H79      1.0000 0.77600  0.86370  0.35230  Biso   1.000  H
  C110     1.0000 0.70573  0.75943  0.36160  Biso   1.000  C
  H80      1.0000 0.67630  0.73860  0.39990  Biso   1.000  H
  Ag11     1.0000 0.51955  0.01320  0.82622  Biso   1.000  Ag
  O11      1.0000 0.33195  0.00503  0.55753  Biso   1.000  O
  N21      1.0000 0.46064  0.99373  0.67213  Biso   1.000  N
  N22      1.0000 0.38903  0.13682  0.72393  Biso   1.000  N
  C111     1.0000 0.44701  0.95798  0.57373  Biso   1.000  C
  H81      1.0000 0.46357  0.94233  0.57273  Biso   1.000  H
  C112     1.0000 0.40969  0.94305  0.47373  Biso   1.000  C
  H82      1.0000 0.40087  0.91763  0.40583  Biso   1.000  H
  C113     1.0000 0.38558  0.96565  0.47443  Biso   1.000  C
  H83      1.0000 0.35977  0.95583  0.40813  Biso   1.000  H
  C114     1.0000 0.39971  0.00302  0.57353  Biso   1.000  C
  C115     1.0000 0.43734  0.01593  0.67033  Biso   1.000  C
  H84      1.0000 0.44697  0.04153  0.73793  Biso   1.000  H
  C116     1.0000 0.37275  0.02640  0.58023  Biso   1.000  C
  C117     1.0000 0.39588  0.07598  0.61213  Biso   1.000  C
  C118     1.0000 0.43847  0.10596  0.55163  Biso   1.000  C
  H85      1.0000 0.45527  0.09543  0.49313  Biso   1.000  H
  C119     1.0000 0.45571  0.15192  0.57973  Biso   1.000  C
  H86      1.0000 0.48467  0.17353  0.53983  Biso   1.000  H
  C120     1.0000 0.43036  0.16561  0.66603  Biso   1.000  C
  H87      1.0000 0.44267  0.19703  0.68563  Biso   1.000  H
  C121     1.0000 0.37240  0.09276  0.69493  Biso   1.000  C
  H88      1.0000 0.34297  0.07193  0.73323  Biso   1.000  H
  Ag12     1.0000 0.18622  0.34653  0.15956  Biso   1.000  Ag
  O12      1.0000 0.99861  0.33837  0.89087  Biso   1.000  O
  N23      1.0000 0.12730  0.32707  0.00547  Biso   1.000  N
  N24      1.0000 0.05569  0.47016  0.05727  Biso   1.000  N
  C122     1.0000 0.11367  0.29132  0.90707  Biso   1.000  C
  H89      1.0000 0.13023  0.27567  0.90607  Biso   1.000  H
  C123     1.0000 0.07635  0.27639  0.80707  Biso   1.000  C
  H90      1.0000 0.06753  0.25097  0.73917  Biso   1.000  H
  C124     1.0000 0.05224  0.29899  0.80777  Biso   1.000  C
  H91      1.0000 0.02643  0.28917  0.74147  Biso   1.000  H
  C125     1.0000 0.06637  0.33636  0.90687  Biso   1.000  C
  C126     1.0000 0.10400  0.34927  0.00367  Biso   1.000  C
  H92      1.0000 0.11363  0.37487  0.07127  Biso   1.000  H
  C127     1.0000 0.03941  0.35974  0.91357  Biso   1.000  C
  C128     1.0000 0.06254  0.40932  0.94547  Biso   1.000  C
  C129     1.0000 0.10513  0.43930  0.88497  Biso   1.000  C
  H93      1.0000 0.12193  0.42877  0.82647  Biso   1.000  H
  C130     1.0000 0.12237  0.48526  0.91307  Biso   1.000  C
  H94      1.0000 0.15133  0.50687  0.87317  Biso   1.000  H
  C131     1.0000 0.09702  0.49895  0.99937  Biso   1.000  C
  H95      1.0000 0.10933  0.53037  0.01897  Biso   1.000  H
  C132     1.0000 0.03906  0.42610  0.02827  Biso   1.000  C
  H96      1.0000 0.00963  0.40527  0.06657  Biso   1.000  H
  Ag13     1.0000 0.32014  0.17302  0.49289  Biso   1.000  Ag
  O13      1.0000 0.32830  0.99358  0.22420  Biso   1.000  O
  N25      1.0000 0.33960  0.13357  0.33880  Biso   1.000  N
  N26      1.0000 0.19651  0.91887  0.39060  Biso   1.000  N
  C133     1.0000 0.37535  0.15569  0.24040  Biso   1.000  C
  H97      1.0000 0.39100  0.18790  0.23940  Biso   1.000  H
  C134     1.0000 0.39028  0.13330  0.14040  Biso   1.000  C
  H98      1.0000 0.41570  0.14990  0.07250  Biso   1.000  H
  C135     1.0000 0.36768  0.08659  0.14110  Biso   1.000  C
  H99      1.0000 0.37750  0.07060  0.07480  Biso   1.000  H
  C136     1.0000 0.33031  0.06335  0.24020  Biso   1.000  C
  C137     1.0000 0.31740  0.08807  0.33700  Biso   1.000  C
  H100     1.0000 0.29180  0.07210  0.40460  Biso   1.000  H
  C138     1.0000 0.30693  0.01301  0.24690  Biso   1.000  C
  C139     1.0000 0.25735  0.98656  0.27880  Biso   1.000  C
  C140     1.0000 0.22737  0.99917  0.21830  Biso   1.000  C
  H101     1.0000 0.23790  0.02650  0.15980  Biso   1.000  H
  C141     1.0000 0.18141  0.97045  0.24640  Biso   1.000  C
  H102     1.0000 0.15980  0.97780  0.20650  Biso   1.000  H
  C142     1.0000 0.16772  0.93141  0.33270  Biso   1.000  C
  H103     1.0000 0.13630  0.91230  0.35230  Biso   1.000  H
  C143     1.0000 0.24057  0.94630  0.36160  Biso   1.000  C
  H104     1.0000 0.26140  0.93770  0.39990  Biso   1.000  H
  Ag14     1.0000 0.98680  0.50636  0.82622  Biso   1.000  Ag
  O14      1.0000 0.99497  0.32691  0.55753  Biso   1.000  O
  N27      1.0000 0.00627  0.46690  0.67213  Biso   1.000  N
  N28      1.0000 0.86318  0.25220  0.72393  Biso   1.000  N
  C144     1.0000 0.04202  0.48902  0.57373  Biso   1.000  C
  H105     1.0000 0.05767  0.52123  0.57273  Biso   1.000  H
  C145     1.0000 0.05695  0.46663  0.47373  Biso   1.000  C
  H106     1.0000 0.08237  0.48323  0.40583  Biso   1.000  H
  C146     1.0000 0.03435  0.41992  0.47443  Biso   1.000  C
  H107     1.0000 0.04417  0.40393  0.40813  Biso   1.000  H
  C147     1.0000 0.99698  0.39668  0.57353  Biso   1.000  C
  C148     1.0000 0.98407  0.42140  0.67033  Biso   1.000  C
  H108     1.0000 0.95847  0.40543  0.73793  Biso   1.000  H
  C149     1.0000 0.97360  0.34634  0.58023  Biso   1.000  C
  C150     1.0000 0.92402  0.31989  0.61213  Biso   1.000  C
  C151     1.0000 0.89404  0.33250  0.55163  Biso   1.000  C
  H109     1.0000 0.90457  0.35983  0.49313  Biso   1.000  H
  C152     1.0000 0.84808  0.30378  0.57973  Biso   1.000  C
  H110     1.0000 0.82647  0.31113  0.53983  Biso   1.000  H
  C153     1.0000 0.83439  0.26474  0.66603  Biso   1.000  C
  H111     1.0000 0.80297  0.24563  0.68563  Biso   1.000  H
  C154     1.0000 0.90724  0.27963  0.69493  Biso   1.000  C
  H112     1.0000 0.92807  0.27103  0.73323  Biso   1.000  H
  Ag15     1.0000 0.65347  0.83969  0.15956  Biso   1.000  Ag
  O15      1.0000 0.66163  0.66025  0.89087  Biso   1.000  O
  N29      1.0000 0.67293  0.80024  0.00547  Biso   1.000  N
  N30      1.0000 0.52984  0.58554  0.05727  Biso   1.000  N
  C155     1.0000 0.70868  0.82236  0.90707  Biso   1.000  C
  H113     1.0000 0.72433  0.85457  0.90607  Biso   1.000  H
  C156     1.0000 0.72361  0.79997  0.80707  Biso   1.000  C
  H114     1.0000 0.74903  0.81657  0.73917  Biso   1.000  H
  C157     1.0000 0.70101  0.75326  0.80777  Biso   1.000  C
  H115     1.0000 0.71083  0.73727  0.74147  Biso   1.000  H
  C158     1.0000 0.66364  0.73002  0.90687  Biso   1.000  C
  C159     1.0000 0.65073  0.75474  0.00367  Biso   1.000  C
  H116     1.0000 0.62513  0.73877  0.07127  Biso   1.000  H
  C160     1.0000 0.64026  0.67968  0.91357  Biso   1.000  C
  C161     1.0000 0.59068  0.65323  0.94547  Biso   1.000  C
  C162     1.0000 0.56070  0.66584  0.88497  Biso   1.000  C
  H117     1.0000 0.57123  0.69317  0.82647  Biso   1.000  H
  C163     1.0000 0.51474  0.63712  0.91307  Biso   1.000  C
  H118     1.0000 0.49313  0.64447  0.87317  Biso   1.000  H
  C164     1.0000 0.50105  0.59808  0.99937  Biso   1.000  C
  H119     1.0000 0.46963  0.57897  0.01897  Biso   1.000  H
  C165     1.0000 0.57390  0.61297  0.02827  Biso   1.000  C
  H120     1.0000 0.59473  0.60437  0.06657  Biso   1.000  H
  Ag16     1.0000 0.82698  0.14711  0.49289  Biso   1.000  Ag
  O16      1.0000 0.00642  0.33472  0.22420  Biso   1.000  O
  N31      1.0000 0.86643  0.20603  0.33880  Biso   1.000  N
  N32      1.0000 0.08113  0.27764  0.39060  Biso   1.000  N
  C166     1.0000 0.84431  0.21966  0.24040  Biso   1.000  C
  H121     1.0000 0.81210  0.20310  0.23940  Biso   1.000  H
  C167     1.0000 0.86670  0.25698  0.14040  Biso   1.000  C
  H122     1.0000 0.85010  0.26580  0.07250  Biso   1.000  H
  C168     1.0000 0.91341  0.28109  0.14110  Biso   1.000  C
  H123     1.0000 0.92940  0.30690  0.07480  Biso   1.000  H
  C169     1.0000 0.93665  0.26696  0.24020  Biso   1.000  C
  C170     1.0000 0.91193  0.22933  0.33700  Biso   1.000  C
  H124     1.0000 0.92790  0.21970  0.40460  Biso   1.000  H
  C171     1.0000 0.98699  0.29392  0.24690  Biso   1.000  C
  C172     1.0000 0.01344  0.27079  0.27880  Biso   1.000  C
  C173     1.0000 0.00083  0.22820  0.21830  Biso   1.000  C
  H125     1.0000 0.97350  0.21140  0.15980  Biso   1.000  H
  C174     1.0000 0.02955  0.21096  0.24640  Biso   1.000  C
  H126     1.0000 0.02220  0.18200  0.20650  Biso   1.000  H
  C175     1.0000 0.06859  0.23631  0.33270  Biso   1.000  C
  H127     1.0000 0.08770  0.22400  0.35230  Biso   1.000  H
  C176     1.0000 0.05370  0.29427  0.36160  Biso   1.000  C
  H128     1.0000 0.06230  0.32370  0.39990  Biso   1.000  H
  Ag17     1.0000 0.49364  0.48045  0.82622  Biso   1.000  Ag
  O17      1.0000 0.67309  0.66805  0.55753  Biso   1.000  O
  N33      1.0000 0.53310  0.53936  0.67213  Biso   1.000  N
  N34      1.0000 0.74780  0.61097  0.72393  Biso   1.000  N
  C177     1.0000 0.51098  0.55299  0.57373  Biso   1.000  C
  H129     1.0000 0.47877  0.53643  0.57273  Biso   1.000  H
  C178     1.0000 0.53337  0.59031  0.47373  Biso   1.000  C
  H130     1.0000 0.51677  0.59913  0.40583  Biso   1.000  H
  C179     1.0000 0.58008  0.61442  0.47443  Biso   1.000  C
  H131     1.0000 0.59607  0.64023  0.40813  Biso   1.000  H
  C180     1.0000 0.60332  0.60029  0.57353  Biso   1.000  C
  C181     1.0000 0.57860  0.56266  0.67033  Biso   1.000  C
  H132     1.0000 0.59457  0.55303  0.73793  Biso   1.000  H
  C182     1.0000 0.65366  0.62725  0.58023  Biso   1.000  C
  C183     1.0000 0.68011  0.60412  0.61213  Biso   1.000  C
  C184     1.0000 0.66750  0.56153  0.55163  Biso   1.000  C
  H133     1.0000 0.64017  0.54473  0.49313  Biso   1.000  H
  C185     1.0000 0.69622  0.54429  0.57973  Biso   1.000  C
  H134     1.0000 0.68887  0.51533  0.53983  Biso   1.000  H
  C186     1.0000 0.73526  0.56964  0.66603  Biso   1.000  C
  H135     1.0000 0.75437  0.55733  0.68563  Biso   1.000  H
  C187     1.0000 0.72037  0.62760  0.69493  Biso   1.000  C
  H136     1.0000 0.72897  0.65703  0.73323  Biso   1.000  H
  Ag18     1.0000 0.16031  0.81378  0.15956  Biso   1.000  Ag
  O18      1.0000 0.33975  0.00139  0.89087  Biso   1.000  O
  N35      1.0000 0.19976  0.87270  0.00547  Biso   1.000  N
  N36      1.0000 0.41446  0.94431  0.05727  Biso   1.000  N
  C188     1.0000 0.17764  0.88633  0.90707  Biso   1.000  C
  H137     1.0000 0.14543  0.86977  0.90607  Biso   1.000  H
  C189     1.0000 0.20003  0.92365  0.80707  Biso   1.000  C
  H138     1.0000 0.18343  0.93247  0.73917  Biso   1.000  H
  C190     1.0000 0.24674  0.94776  0.80777  Biso   1.000  C
  H139     1.0000 0.26273  0.97357  0.74147  Biso   1.000  H
  C191     1.0000 0.26998  0.93363  0.90687  Biso   1.000  C
  C192     1.0000 0.24526  0.89600  0.00367  Biso   1.000  C
  H140     1.0000 0.26123  0.88637  0.07127  Biso   1.000  H
  C193     1.0000 0.32032  0.96059  0.91357  Biso   1.000  C
  C194     1.0000 0.34677  0.93746  0.94547  Biso   1.000  C
  C195     1.0000 0.33416  0.89487  0.88497  Biso   1.000  C
  H141     1.0000 0.30683  0.87807  0.82647  Biso   1.000  H
  C196     1.0000 0.36288  0.87763  0.91307  Biso   1.000  C
  H142     1.0000 0.35553  0.84867  0.87317  Biso   1.000  H
  C197     1.0000 0.40192  0.90298  0.99937  Biso   1.000  C
  H143     1.0000 0.42103  0.89067  0.01897  Biso   1.000  H
  C198     1.0000 0.38703  0.96094  0.02827  Biso   1.000  C
  H144     1.0000 0.39563  0.99037  0.06657  Biso   1.000  H
