data_image0
_cell_length_a       34.471
_cell_length_b       34.471
_cell_length_c       8.463
_cell_angle_alpha    90
_cell_angle_beta     90
_cell_angle_gamma    120

_symmetry_space_group_name_H-M    "P 1"
_symmetry_int_tables_number       1

loop_
  _symmetry_equiv_pos_as_xyz
  'x, y, z'

loop_
  _atom_site_label
  _atom_site_occupancy
  _atom_site_fract_x
  _atom_site_fract_y
  _atom_site_fract_z
  _atom_site_thermal_displace_type
  _atom_site_B_iso_or_equiv
  _atom_site_type_symbol
  Ag1      1.0000 0.14570  0.31847  0.50522  Biso   1.000  Ag
  O1       1.0000 0.33385  0.32890  0.75730  Biso   1.000  O
  N1       1.0000 0.20490  0.33842  0.65500  Biso   1.000  N
  N2       1.0000 0.27686  0.19766  0.60700  Biso   1.000  N
  C1       1.0000 0.21891  0.37387  0.75080  Biso   1.000  C
  H1       1.0000 0.20260  0.38870  0.75330  Biso   1.000  H
  C2       1.0000 0.25570  0.38940  0.84460  Biso   1.000  C
  H2       1.0000 0.26430  0.41420  0.90890  Biso   1.000  H
  C3       1.0000 0.28020  0.36750  0.84300  Biso   1.000  C
  H3       1.0000 0.30570  0.37760  0.90540  Biso   1.000  H
  C4       1.0000 0.26623  0.33015  0.74650  Biso   1.000  C
  C5       1.0000 0.22835  0.31697  0.65410  Biso   1.000  C
  H4       1.0000 0.21880  0.29220  0.58870  Biso   1.000  H
  C6       1.0000 0.29322  0.30746  0.73810  Biso   1.000  C
  C7       1.0000 0.27085  0.25862  0.71090  Biso   1.000  C
  C8       1.0000 0.22900  0.22910  0.77190  Biso   1.000  C
  H5       1.0000 0.21270  0.23940  0.82720  Biso   1.000  H
  C9       1.0000 0.21230  0.18390  0.74840  Biso   1.000  C
  H6       1.0000 0.18450  0.16330  0.78970  Biso   1.000  H
  C10      1.0000 0.23640  0.16980  0.66510  Biso   1.000  C
  H7       1.0000 0.22410  0.13920  0.64770  Biso   1.000  H
  C11      1.0000 0.29337  0.24115  0.63160  Biso   1.000  C
  H8       1.0000 0.32180  0.26090  0.59290  Biso   1.000  H
  Ag2      1.0000 0.81237  0.65180  0.83855  Biso   1.000  Ag
  O2       1.0000 0.00052  0.66223  0.09063  Biso   1.000  O
  N3       1.0000 0.87157  0.67175  0.98833  Biso   1.000  N
  N4       1.0000 0.94353  0.53099  0.94033  Biso   1.000  N
  C12      1.0000 0.88558  0.70720  0.08413  Biso   1.000  C
  H9       1.0000 0.86927  0.72203  0.08663  Biso   1.000  H
  C13      1.0000 0.92237  0.72273  0.17793  Biso   1.000  C
  H10      1.0000 0.93097  0.74753  0.24223  Biso   1.000  H
  C14      1.0000 0.94687  0.70083  0.17633  Biso   1.000  C
  H11      1.0000 0.97237  0.71093  0.23873  Biso   1.000  H
  C15      1.0000 0.93290  0.66348  0.07983  Biso   1.000  C
  C16      1.0000 0.89502  0.65030  0.98743  Biso   1.000  C
  H12      1.0000 0.88547  0.62553  0.92203  Biso   1.000  H
  C17      1.0000 0.95989  0.64079  0.07143  Biso   1.000  C
  C18      1.0000 0.93752  0.59195  0.04423  Biso   1.000  C
  C19      1.0000 0.89567  0.56243  0.10523  Biso   1.000  C
  H13      1.0000 0.87937  0.57273  0.16053  Biso   1.000  H
  C20      1.0000 0.87897  0.51723  0.08173  Biso   1.000  C
  H14      1.0000 0.85117  0.49663  0.12303  Biso   1.000  H
  C21      1.0000 0.90307  0.50313  0.99843  Biso   1.000  C
  H15      1.0000 0.89077  0.47253  0.98103  Biso   1.000  H
  C22      1.0000 0.96004  0.57448  0.96493  Biso   1.000  C
  H16      1.0000 0.98847  0.59423  0.92623  Biso   1.000  H
  Ag3      1.0000 0.47904  0.98513  0.17189  Biso   1.000  Ag
  O3       1.0000 0.66718  0.99557  0.42397  Biso   1.000  O
  N5       1.0000 0.53823  0.00509  0.32167  Biso   1.000  N
  N6       1.0000 0.61019  0.86433  0.27367  Biso   1.000  N
  C23      1.0000 0.55224  0.04054  0.41747  Biso   1.000  C
  H17      1.0000 0.53593  0.05537  0.41997  Biso   1.000  H
  C24      1.0000 0.58903  0.05607  0.51127  Biso   1.000  C
  H18      1.0000 0.59763  0.08087  0.57557  Biso   1.000  H
  C25      1.0000 0.61353  0.03417  0.50967  Biso   1.000  C
  H19      1.0000 0.63903  0.04427  0.57207  Biso   1.000  H
  C26      1.0000 0.59956  0.99682  0.41317  Biso   1.000  C
  C27      1.0000 0.56168  0.98364  0.32077  Biso   1.000  C
  H20      1.0000 0.55213  0.95887  0.25537  Biso   1.000  H
  C28      1.0000 0.62655  0.97413  0.40477  Biso   1.000  C
  C29      1.0000 0.60418  0.92529  0.37757  Biso   1.000  C
  C30      1.0000 0.56233  0.89577  0.43857  Biso   1.000  C
  H21      1.0000 0.54603  0.90607  0.49387  Biso   1.000  H
  C31      1.0000 0.54563  0.85057  0.41507  Biso   1.000  C
  H22      1.0000 0.51783  0.82997  0.45637  Biso   1.000  H
  C32      1.0000 0.56973  0.83647  0.33177  Biso   1.000  C
  H23      1.0000 0.55743  0.80587  0.31437  Biso   1.000  H
  C33      1.0000 0.62670  0.90782  0.29827  Biso   1.000  C
  H24      1.0000 0.65513  0.92757  0.25957  Biso   1.000  H
  Ag4      1.0000 0.68153  0.82723  0.50522  Biso   1.000  Ag
  O4       1.0000 0.67110  0.00495  0.75730  Biso   1.000  O
  N7       1.0000 0.66158  0.86648  0.65500  Biso   1.000  N
  N8       1.0000 0.80234  0.07920  0.60700  Biso   1.000  N
  C34      1.0000 0.62613  0.84504  0.75080  Biso   1.000  C
  H25      1.0000 0.61130  0.81390  0.75330  Biso   1.000  H
  C35      1.0000 0.61060  0.86630  0.84460  Biso   1.000  C
  H26      1.0000 0.58580  0.85010  0.90890  Biso   1.000  H
  C36      1.0000 0.63250  0.91270  0.84300  Biso   1.000  C
  H27      1.0000 0.62240  0.92810  0.90540  Biso   1.000  H
  C37      1.0000 0.66985  0.93608  0.74650  Biso   1.000  C
  C38      1.0000 0.68303  0.91138  0.65410  Biso   1.000  C
  H28      1.0000 0.70780  0.92660  0.58870  Biso   1.000  H
  C39      1.0000 0.69254  0.98576  0.73810  Biso   1.000  C
  C40      1.0000 0.74138  0.01223  0.71090  Biso   1.000  C
  C41      1.0000 0.77090  0.99990  0.77190  Biso   1.000  C
  H29      1.0000 0.76060  0.97330  0.82720  Biso   1.000  H
  C42      1.0000 0.81610  0.02840  0.74840  Biso   1.000  C
  H30      1.0000 0.83670  0.02120  0.78970  Biso   1.000  H
  C43      1.0000 0.83020  0.06660  0.66510  Biso   1.000  C
  H31      1.0000 0.86080  0.08490  0.64770  Biso   1.000  H
  C44      1.0000 0.75885  0.05222  0.63160  Biso   1.000  C
  H32      1.0000 0.73910  0.06090  0.59290  Biso   1.000  H
  Ag5      1.0000 0.34820  0.16057  0.83855  Biso   1.000  Ag
  O5       1.0000 0.33777  0.33828  0.09063  Biso   1.000  O
  N9       1.0000 0.32825  0.19981  0.98833  Biso   1.000  N
  N10      1.0000 0.46901  0.41253  0.94033  Biso   1.000  N
  C45      1.0000 0.29280  0.17837  0.08413  Biso   1.000  C
  H33      1.0000 0.27797  0.14723  0.08663  Biso   1.000  H
  C46      1.0000 0.27727  0.19963  0.17793  Biso   1.000  C
  H34      1.0000 0.25247  0.18343  0.24223  Biso   1.000  H
  C47      1.0000 0.29917  0.24603  0.17633  Biso   1.000  C
  H35      1.0000 0.28907  0.26143  0.23873  Biso   1.000  H
  C48      1.0000 0.33652  0.26941  0.07983  Biso   1.000  C
  C49      1.0000 0.34970  0.24471  0.98743  Biso   1.000  C
  H36      1.0000 0.37447  0.25993  0.92203  Biso   1.000  H
  C50      1.0000 0.35921  0.31909  0.07143  Biso   1.000  C
  C51      1.0000 0.40805  0.34556  0.04423  Biso   1.000  C
  C52      1.0000 0.43757  0.33323  0.10523  Biso   1.000  C
  H37      1.0000 0.42727  0.30663  0.16053  Biso   1.000  H
  C53      1.0000 0.48277  0.36173  0.08173  Biso   1.000  C
  H38      1.0000 0.50337  0.35453  0.12303  Biso   1.000  H
  C54      1.0000 0.49687  0.39993  0.99843  Biso   1.000  C
  H39      1.0000 0.52747  0.41823  0.98103  Biso   1.000  H
  C55      1.0000 0.42552  0.38555  0.96493  Biso   1.000  C
  H40      1.0000 0.40577  0.39423  0.92623  Biso   1.000  H
  Ag6      1.0000 0.01487  0.49390  0.17189  Biso   1.000  Ag
  O6       1.0000 0.00443  0.67162  0.42397  Biso   1.000  O
  N11      1.0000 0.99491  0.53315  0.32167  Biso   1.000  N
  N12      1.0000 0.13567  0.74587  0.27367  Biso   1.000  N
  C56      1.0000 0.95946  0.51171  0.41747  Biso   1.000  C
  H41      1.0000 0.94463  0.48057  0.41997  Biso   1.000  H
  C57      1.0000 0.94393  0.53297  0.51127  Biso   1.000  C
  H42      1.0000 0.91913  0.51677  0.57557  Biso   1.000  H
  C58      1.0000 0.96583  0.57937  0.50967  Biso   1.000  C
  H43      1.0000 0.95573  0.59477  0.57207  Biso   1.000  H
  C59      1.0000 0.00318  0.60275  0.41317  Biso   1.000  C
  C60      1.0000 0.01636  0.57805  0.32077  Biso   1.000  C
  H44      1.0000 0.04113  0.59327  0.25537  Biso   1.000  H
  C61      1.0000 0.02587  0.65243  0.40477  Biso   1.000  C
  C62      1.0000 0.07471  0.67890  0.37757  Biso   1.000  C
  C63      1.0000 0.10423  0.66657  0.43857  Biso   1.000  C
  H45      1.0000 0.09393  0.63997  0.49387  Biso   1.000  H
  C64      1.0000 0.14943  0.69507  0.41507  Biso   1.000  C
  H46      1.0000 0.17003  0.68787  0.45637  Biso   1.000  H
  C65      1.0000 0.16353  0.73327  0.33177  Biso   1.000  C
  H47      1.0000 0.19413  0.75157  0.31437  Biso   1.000  H
  C66      1.0000 0.09218  0.71889  0.29827  Biso   1.000  C
  H48      1.0000 0.07243  0.72757  0.25957  Biso   1.000  H
  Ag7      1.0000 0.17277  0.85430  0.50522  Biso   1.000  Ag
  O7       1.0000 0.99505  0.66615  0.75730  Biso   1.000  O
  N13      1.0000 0.13352  0.79510  0.65500  Biso   1.000  N
  N14      1.0000 0.92080  0.72314  0.60700  Biso   1.000  N
  C67      1.0000 0.15496  0.78109  0.75080  Biso   1.000  C
  H49      1.0000 0.18610  0.79740  0.75330  Biso   1.000  H
  C68      1.0000 0.13370  0.74430  0.84460  Biso   1.000  C
  H50      1.0000 0.14990  0.73570  0.90890  Biso   1.000  H
  C69      1.0000 0.08730  0.71980  0.84300  Biso   1.000  C
  H51      1.0000 0.07190  0.69430  0.90540  Biso   1.000  H
  C70      1.0000 0.06392  0.73377  0.74650  Biso   1.000  C
  C71      1.0000 0.08862  0.77165  0.65410  Biso   1.000  C
  H52      1.0000 0.07340  0.78120  0.58870  Biso   1.000  H
  C72      1.0000 0.01424  0.70678  0.73810  Biso   1.000  C
  C73      1.0000 0.98777  0.72915  0.71090  Biso   1.000  C
  C74      1.0000 0.00010  0.77100  0.77190  Biso   1.000  C
  H53      1.0000 0.02670  0.78730  0.82720  Biso   1.000  H
  C75      1.0000 0.97160  0.78770  0.74840  Biso   1.000  C
  H54      1.0000 0.97880  0.81550  0.78970  Biso   1.000  H
  C76      1.0000 0.93340  0.76360  0.66510  Biso   1.000  C
  H55      1.0000 0.91510  0.77590  0.64770  Biso   1.000  H
  C77      1.0000 0.94778  0.70663  0.63160  Biso   1.000  C
  H56      1.0000 0.93910  0.67820  0.59290  Biso   1.000  H
  Ag8      1.0000 0.83943  0.18763  0.83855  Biso   1.000  Ag
  O8       1.0000 0.66172  0.99948  0.09063  Biso   1.000  O
  N15      1.0000 0.80019  0.12843  0.98833  Biso   1.000  N
  N16      1.0000 0.58747  0.05647  0.94033  Biso   1.000  N
  C78      1.0000 0.82163  0.11442  0.08413  Biso   1.000  C
  H57      1.0000 0.85277  0.13073  0.08663  Biso   1.000  H
  C79      1.0000 0.80037  0.07763  0.17793  Biso   1.000  C
  H58      1.0000 0.81657  0.06903  0.24223  Biso   1.000  H
  C80      1.0000 0.75397  0.05313  0.17633  Biso   1.000  C
  H59      1.0000 0.73857  0.02763  0.23873  Biso   1.000  H
  C81      1.0000 0.73059  0.06710  0.07983  Biso   1.000  C
  C82      1.0000 0.75529  0.10498  0.98743  Biso   1.000  C
  H60      1.0000 0.74007  0.11453  0.92203  Biso   1.000  H
  C83      1.0000 0.68091  0.04011  0.07143  Biso   1.000  C
  C84      1.0000 0.65444  0.06248  0.04423  Biso   1.000  C
  C85      1.0000 0.66677  0.10433  0.10523  Biso   1.000  C
  H61      1.0000 0.69337  0.12063  0.16053  Biso   1.000  H
  C86      1.0000 0.63827  0.12103  0.08173  Biso   1.000  C
  H62      1.0000 0.64547  0.14883  0.12303  Biso   1.000  H
  C87      1.0000 0.60007  0.09693  0.99843  Biso   1.000  C
  H63      1.0000 0.58177  0.10923  0.98103  Biso   1.000  H
  C88      1.0000 0.61445  0.03996  0.96493  Biso   1.000  C
  H64      1.0000 0.60577  0.01153  0.92623  Biso   1.000  H
  Ag9      1.0000 0.50610  0.52096  0.17189  Biso   1.000  Ag
  O9       1.0000 0.32838  0.33282  0.42397  Biso   1.000  O
  N17      1.0000 0.46685  0.46177  0.32167  Biso   1.000  N
  N18      1.0000 0.25413  0.38981  0.27367  Biso   1.000  N
  C89      1.0000 0.48829  0.44776  0.41747  Biso   1.000  C
  H65      1.0000 0.51943  0.46407  0.41997  Biso   1.000  H
  C90      1.0000 0.46703  0.41097  0.51127  Biso   1.000  C
  H66      1.0000 0.48323  0.40237  0.57557  Biso   1.000  H
  C91      1.0000 0.42063  0.38647  0.50967  Biso   1.000  C
  H67      1.0000 0.40523  0.36097  0.57207  Biso   1.000  H
  C92      1.0000 0.39725  0.40044  0.41317  Biso   1.000  C
  C93      1.0000 0.42195  0.43832  0.32077  Biso   1.000  C
  H68      1.0000 0.40673  0.44787  0.25537  Biso   1.000  H
  C94      1.0000 0.34757  0.37345  0.40477  Biso   1.000  C
  C95      1.0000 0.32110  0.39582  0.37757  Biso   1.000  C
  C96      1.0000 0.33343  0.43767  0.43857  Biso   1.000  C
  H69      1.0000 0.36003  0.45397  0.49387  Biso   1.000  H
  C97      1.0000 0.30493  0.45437  0.41507  Biso   1.000  C
  H70      1.0000 0.31213  0.48217  0.45637  Biso   1.000  H
  C98      1.0000 0.26673  0.43027  0.33177  Biso   1.000  C
  H71      1.0000 0.24843  0.44257  0.31437  Biso   1.000  H
  C99      1.0000 0.28111  0.37330  0.29827  Biso   1.000  C
  H72      1.0000 0.27243  0.34487  0.25957  Biso   1.000  H
  Ag10     1.0000 0.85430  0.68153  0.49478  Biso   1.000  Ag
  O10      1.0000 0.66615  0.67110  0.24270  Biso   1.000  O
  N19      1.0000 0.79510  0.66158  0.34500  Biso   1.000  N
  N20      1.0000 0.72314  0.80234  0.39300  Biso   1.000  N
  C100     1.0000 0.78109  0.62613  0.24920  Biso   1.000  C
  H73      1.0000 0.79740  0.61130  0.24670  Biso   1.000  H
  C101     1.0000 0.74430  0.61060  0.15540  Biso   1.000  C
  H74      1.0000 0.73570  0.58580  0.09110  Biso   1.000  H
  C102     1.0000 0.71980  0.63250  0.15700  Biso   1.000  C
  H75      1.0000 0.69430  0.62240  0.09460  Biso   1.000  H
  C103     1.0000 0.73377  0.66985  0.25350  Biso   1.000  C
  C104     1.0000 0.77165  0.68303  0.34590  Biso   1.000  C
  H76      1.0000 0.78120  0.70780  0.41130  Biso   1.000  H
  C105     1.0000 0.70678  0.69254  0.26190  Biso   1.000  C
  C106     1.0000 0.72915  0.74138  0.28910  Biso   1.000  C
  C107     1.0000 0.77100  0.77090  0.22810  Biso   1.000  C
  H77      1.0000 0.78730  0.76060  0.17280  Biso   1.000  H
  C108     1.0000 0.78770  0.81610  0.25160  Biso   1.000  C
  H78      1.0000 0.81550  0.83670  0.21030  Biso   1.000  H
  C109     1.0000 0.76360  0.83020  0.33490  Biso   1.000  C
  H79      1.0000 0.77590  0.86080  0.35230  Biso   1.000  H
  C110     1.0000 0.70663  0.75885  0.36840  Biso   1.000  C
  H80      1.0000 0.67820  0.73910  0.40710  Biso   1.000  H
  Ag11     1.0000 0.52096  0.01487  0.82811  Biso   1.000  Ag
  O11      1.0000 0.33282  0.00443  0.57603  Biso   1.000  O
  N21      1.0000 0.46177  0.99491  0.67833  Biso   1.000  N
  N22      1.0000 0.38981  0.13567  0.72633  Biso   1.000  N
  C111     1.0000 0.44776  0.95946  0.58253  Biso   1.000  C
  H81      1.0000 0.46407  0.94463  0.58003  Biso   1.000  H
  C112     1.0000 0.41097  0.94393  0.48873  Biso   1.000  C
  H82      1.0000 0.40237  0.91913  0.42443  Biso   1.000  H
  C113     1.0000 0.38647  0.96583  0.49033  Biso   1.000  C
  H83      1.0000 0.36097  0.95573  0.42793  Biso   1.000  H
  C114     1.0000 0.40044  0.00318  0.58683  Biso   1.000  C
  C115     1.0000 0.43832  0.01636  0.67923  Biso   1.000  C
  H84      1.0000 0.44787  0.04113  0.74463  Biso   1.000  H
  C116     1.0000 0.37345  0.02587  0.59523  Biso   1.000  C
  C117     1.0000 0.39582  0.07471  0.62243  Biso   1.000  C
  C118     1.0000 0.43767  0.10423  0.56143  Biso   1.000  C
  H85      1.0000 0.45397  0.09393  0.50613  Biso   1.000  H
  C119     1.0000 0.45437  0.14943  0.58493  Biso   1.000  C
  H86      1.0000 0.48217  0.17003  0.54363  Biso   1.000  H
  C120     1.0000 0.43027  0.16353  0.66823  Biso   1.000  C
  H87      1.0000 0.44257  0.19413  0.68563  Biso   1.000  H
  C121     1.0000 0.37330  0.09218  0.70173  Biso   1.000  C
  H88      1.0000 0.34487  0.07243  0.74043  Biso   1.000  H
  Ag12     1.0000 0.18763  0.34820  0.16145  Biso   1.000  Ag
  O12      1.0000 0.99948  0.33777  0.90937  Biso   1.000  O
  N23      1.0000 0.12843  0.32825  0.01167  Biso   1.000  N
  N24      1.0000 0.05647  0.46901  0.05967  Biso   1.000  N
  C122     1.0000 0.11442  0.29280  0.91587  Biso   1.000  C
  H89      1.0000 0.13073  0.27797  0.91337  Biso   1.000  H
  C123     1.0000 0.07763  0.27727  0.82207  Biso   1.000  C
  H90      1.0000 0.06903  0.25247  0.75777  Biso   1.000  H
  C124     1.0000 0.05313  0.29917  0.82367  Biso   1.000  C
  H91      1.0000 0.02763  0.28907  0.76127  Biso   1.000  H
  C125     1.0000 0.06710  0.33652  0.92017  Biso   1.000  C
  C126     1.0000 0.10498  0.34970  0.01257  Biso   1.000  C
  H92      1.0000 0.11453  0.37447  0.07797  Biso   1.000  H
  C127     1.0000 0.04011  0.35921  0.92857  Biso   1.000  C
  C128     1.0000 0.06248  0.40805  0.95577  Biso   1.000  C
  C129     1.0000 0.10433  0.43757  0.89477  Biso   1.000  C
  H93      1.0000 0.12063  0.42727  0.83947  Biso   1.000  H
  C130     1.0000 0.12103  0.48277  0.91827  Biso   1.000  C
  H94      1.0000 0.14883  0.50337  0.87697  Biso   1.000  H
  C131     1.0000 0.09693  0.49687  0.00157  Biso   1.000  C
  H95      1.0000 0.10923  0.52747  0.01897  Biso   1.000  H
  C132     1.0000 0.03996  0.42552  0.03507  Biso   1.000  C
  H96      1.0000 0.01153  0.40577  0.07377  Biso   1.000  H
  Ag13     1.0000 0.31847  0.17277  0.49478  Biso   1.000  Ag
  O13      1.0000 0.32890  0.99505  0.24270  Biso   1.000  O
  N25      1.0000 0.33842  0.13352  0.34500  Biso   1.000  N
  N26      1.0000 0.19766  0.92080  0.39300  Biso   1.000  N
  C133     1.0000 0.37387  0.15496  0.24920  Biso   1.000  C
  H97      1.0000 0.38870  0.18610  0.24670  Biso   1.000  H
  C134     1.0000 0.38940  0.13370  0.15540  Biso   1.000  C
  H98      1.0000 0.41420  0.14990  0.09110  Biso   1.000  H
  C135     1.0000 0.36750  0.08730  0.15700  Biso   1.000  C
  H99      1.0000 0.37760  0.07190  0.09460  Biso   1.000  H
  C136     1.0000 0.33015  0.06392  0.25350  Biso   1.000  C
  C137     1.0000 0.31697  0.08862  0.34590  Biso   1.000  C
  H100     1.0000 0.29220  0.07340  0.41130  Biso   1.000  H
  C138     1.0000 0.30746  0.01424  0.26190  Biso   1.000  C
  C139     1.0000 0.25862  0.98777  0.28910  Biso   1.000  C
  C140     1.0000 0.22910  0.00010  0.22810  Biso   1.000  C
  H101     1.0000 0.23940  0.02670  0.17280  Biso   1.000  H
  C141     1.0000 0.18390  0.97160  0.25160  Biso   1.000  C
  H102     1.0000 0.16330  0.97880  0.21030  Biso   1.000  H
  C142     1.0000 0.16980  0.93340  0.33490  Biso   1.000  C
  H103     1.0000 0.13920  0.91510  0.35230  Biso   1.000  H
  C143     1.0000 0.24115  0.94778  0.36840  Biso   1.000  C
  H104     1.0000 0.26090  0.93910  0.40710  Biso   1.000  H
  Ag14     1.0000 0.98513  0.50610  0.82811  Biso   1.000  Ag
  O14      1.0000 0.99557  0.32838  0.57603  Biso   1.000  O
  N27      1.0000 0.00509  0.46685  0.67833  Biso   1.000  N
  N28      1.0000 0.86433  0.25413  0.72633  Biso   1.000  N
  C144     1.0000 0.04054  0.48829  0.58253  Biso   1.000  C
  H105     1.0000 0.05537  0.51943  0.58003  Biso   1.000  H
  C145     1.0000 0.05607  0.46703  0.48873  Biso   1.000  C
  H106     1.0000 0.08087  0.48323  0.42443  Biso   1.000  H
  C146     1.0000 0.03417  0.42063  0.49033  Biso   1.000  C
  H107     1.0000 0.04427  0.40523  0.42793  Biso   1.000  H
  C147     1.0000 0.99682  0.39725  0.58683  Biso   1.000  C
  C148     1.0000 0.98364  0.42195  0.67923  Biso   1.000  C
  H108     1.0000 0.95887  0.40673  0.74463  Biso   1.000  H
  C149     1.0000 0.97413  0.34757  0.59523  Biso   1.000  C
  C150     1.0000 0.92529  0.32110  0.62243  Biso   1.000  C
  C151     1.0000 0.89577  0.33343  0.56143  Biso   1.000  C
  H109     1.0000 0.90607  0.36003  0.50613  Biso   1.000  H
  C152     1.0000 0.85057  0.30493  0.58493  Biso   1.000  C
  H110     1.0000 0.82997  0.31213  0.54363  Biso   1.000  H
  C153     1.0000 0.83647  0.26673  0.66823  Biso   1.000  C
  H111     1.0000 0.80587  0.24843  0.68563  Biso   1.000  H
  C154     1.0000 0.90782  0.28111  0.70173  Biso   1.000  C
  H112     1.0000 0.92757  0.27243  0.74043  Biso   1.000  H
  Ag15     1.0000 0.65180  0.83943  0.16145  Biso   1.000  Ag
  O15      1.0000 0.66223  0.66172  0.90937  Biso   1.000  O
  N29      1.0000 0.67175  0.80019  0.01167  Biso   1.000  N
  N30      1.0000 0.53099  0.58747  0.05967  Biso   1.000  N
  C155     1.0000 0.70720  0.82163  0.91587  Biso   1.000  C
  H113     1.0000 0.72203  0.85277  0.91337  Biso   1.000  H
  C156     1.0000 0.72273  0.80037  0.82207  Biso   1.000  C
  H114     1.0000 0.74753  0.81657  0.75777  Biso   1.000  H
  C157     1.0000 0.70083  0.75397  0.82367  Biso   1.000  C
  H115     1.0000 0.71093  0.73857  0.76127  Biso   1.000  H
  C158     1.0000 0.66348  0.73059  0.92017  Biso   1.000  C
  C159     1.0000 0.65030  0.75529  0.01257  Biso   1.000  C
  H116     1.0000 0.62553  0.74007  0.07797  Biso   1.000  H
  C160     1.0000 0.64079  0.68091  0.92857  Biso   1.000  C
  C161     1.0000 0.59195  0.65444  0.95577  Biso   1.000  C
  C162     1.0000 0.56243  0.66677  0.89477  Biso   1.000  C
  H117     1.0000 0.57273  0.69337  0.83947  Biso   1.000  H
  C163     1.0000 0.51723  0.63827  0.91827  Biso   1.000  C
  H118     1.0000 0.49663  0.64547  0.87697  Biso   1.000  H
  C164     1.0000 0.50313  0.60007  0.00157  Biso   1.000  C
  H119     1.0000 0.47253  0.58177  0.01897  Biso   1.000  H
  C165     1.0000 0.57448  0.61445  0.03507  Biso   1.000  C
  H120     1.0000 0.59423  0.60577  0.07377  Biso   1.000  H
  Ag16     1.0000 0.82723  0.14570  0.49478  Biso   1.000  Ag
  O16      1.0000 0.00495  0.33385  0.24270  Biso   1.000  O
  N31      1.0000 0.86648  0.20490  0.34500  Biso   1.000  N
  N32      1.0000 0.07920  0.27686  0.39300  Biso   1.000  N
  C166     1.0000 0.84504  0.21891  0.24920  Biso   1.000  C
  H121     1.0000 0.81390  0.20260  0.24670  Biso   1.000  H
  C167     1.0000 0.86630  0.25570  0.15540  Biso   1.000  C
  H122     1.0000 0.85010  0.26430  0.09110  Biso   1.000  H
  C168     1.0000 0.91270  0.28020  0.15700  Biso   1.000  C
  H123     1.0000 0.92810  0.30570  0.09460  Biso   1.000  H
  C169     1.0000 0.93608  0.26623  0.25350  Biso   1.000  C
  C170     1.0000 0.91138  0.22835  0.34590  Biso   1.000  C
  H124     1.0000 0.92660  0.21880  0.41130  Biso   1.000  H
  C171     1.0000 0.98576  0.29322  0.26190  Biso   1.000  C
  C172     1.0000 0.01223  0.27085  0.28910  Biso   1.000  C
  C173     1.0000 0.99990  0.22900  0.22810  Biso   1.000  C
  H125     1.0000 0.97330  0.21270  0.17280  Biso   1.000  H
  C174     1.0000 0.02840  0.21230  0.25160  Biso   1.000  C
  H126     1.0000 0.02120  0.18450  0.21030  Biso   1.000  H
  C175     1.0000 0.06660  0.23640  0.33490  Biso   1.000  C
  H127     1.0000 0.08490  0.22410  0.35230  Biso   1.000  H
  C176     1.0000 0.05222  0.29337  0.36840  Biso   1.000  C
  H128     1.0000 0.06090  0.32180  0.40710  Biso   1.000  H
  Ag17     1.0000 0.49390  0.47904  0.82811  Biso   1.000  Ag
  O17      1.0000 0.67162  0.66718  0.57603  Biso   1.000  O
  N33      1.0000 0.53315  0.53823  0.67833  Biso   1.000  N
  N34      1.0000 0.74587  0.61019  0.72633  Biso   1.000  N
  C177     1.0000 0.51171  0.55224  0.58253  Biso   1.000  C
  H129     1.0000 0.48057  0.53593  0.58003  Biso   1.000  H
  C178     1.0000 0.53297  0.58903  0.48873  Biso   1.000  C
  H130     1.0000 0.51677  0.59763  0.42443  Biso   1.000  H
  C179     1.0000 0.57937  0.61353  0.49033  Biso   1.000  C
  H131     1.0000 0.59477  0.63903  0.42793  Biso   1.000  H
  C180     1.0000 0.60275  0.59956  0.58683  Biso   1.000  C
  C181     1.0000 0.57805  0.56168  0.67923  Biso   1.000  C
  H132     1.0000 0.59327  0.55213  0.74463  Biso   1.000  H
  C182     1.0000 0.65243  0.62655  0.59523  Biso   1.000  C
  C183     1.0000 0.67890  0.60418  0.62243  Biso   1.000  C
  C184     1.0000 0.66657  0.56233  0.56143  Biso   1.000  C
  H133     1.0000 0.63997  0.54603  0.50613  Biso   1.000  H
  C185     1.0000 0.69507  0.54563  0.58493  Biso   1.000  C
  H134     1.0000 0.68787  0.51783  0.54363  Biso   1.000  H
  C186     1.0000 0.73327  0.56973  0.66823  Biso   1.000  C
  H135     1.0000 0.75157  0.55743  0.68563  Biso   1.000  H
  C187     1.0000 0.71889  0.62670  0.70173  Biso   1.000  C
  H136     1.0000 0.72757  0.65513  0.74043  Biso   1.000  H
  Ag18     1.0000 0.16057  0.81237  0.16145  Biso   1.000  Ag
  O18      1.0000 0.33828  0.00052  0.90937  Biso   1.000  O
  N35      1.0000 0.19981  0.87157  0.01167  Biso   1.000  N
  N36      1.0000 0.41253  0.94353  0.05967  Biso   1.000  N
  C188     1.0000 0.17837  0.88558  0.91587  Biso   1.000  C
  H137     1.0000 0.14723  0.86927  0.91337  Biso   1.000  H
  C189     1.0000 0.19963  0.92237  0.82207  Biso   1.000  C
  H138     1.0000 0.18343  0.93097  0.75777  Biso   1.000  H
  C190     1.0000 0.24603  0.94687  0.82367  Biso   1.000  C
  H139     1.0000 0.26143  0.97237  0.76127  Biso   1.000  H
  C191     1.0000 0.26941  0.93290  0.92017  Biso   1.000  C
  C192     1.0000 0.24471  0.89502  0.01257  Biso   1.000  C
  H140     1.0000 0.25993  0.88547  0.07797  Biso   1.000  H
  C193     1.0000 0.31909  0.95989  0.92857  Biso   1.000  C
  C194     1.0000 0.34556  0.93752  0.95577  Biso   1.000  C
  C195     1.0000 0.33323  0.89567  0.89477  Biso   1.000  C
  H141     1.0000 0.30663  0.87937  0.83947  Biso   1.000  H
  C196     1.0000 0.36173  0.87897  0.91827  Biso   1.000  C
  H142     1.0000 0.35453  0.85117  0.87697  Biso   1.000  H
  C197     1.0000 0.39993  0.90307  0.00157  Biso   1.000  C
  H143     1.0000 0.41823  0.89077  0.01897  Biso   1.000  H
  C198     1.0000 0.38555  0.96004  0.03507  Biso   1.000  C
  H144     1.0000 0.39423  0.98847  0.07377  Biso   1.000  H
