data_image0
_cell_length_a       16.5413
_cell_length_b       16.5957
_cell_length_c       16.5957
_cell_angle_alpha    70.4625
_cell_angle_beta     70.5951
_cell_angle_gamma    109.405

_symmetry_space_group_name_H-M    P 1
_symmetry_int_tables_number       1

loop_
  _symmetry_equiv_pos_as_xyz
  'x, y, z'

loop_
  _atom_site_label
  _atom_site_occupancy
  _atom_site_fract_x
  _atom_site_fract_y
  _atom_site_fract_z
  _atom_site_thermal_displace_type
  _atom_site_B_iso_or_equiv
  _atom_site_type_symbol
  Fe1      1.0000 0.07241  0.59857  0.40143  Biso   1.000  Fe
  Fe2      1.0000 0.47384  0.40143  1.00000  Biso   1.000  Fe
  Fe3      1.0000 0.47384  1.00000  0.59857  Biso   1.000  Fe
  Fe4      1.0000 0.52616  0.00000  0.40143  Biso   1.000  Fe
  Fe5      1.0000 0.52616  0.59857  1.00000  Biso   1.000  Fe
  Fe6      1.0000 0.92759  0.40143  0.59857  Biso   1.000  Fe
  H1       1.0000 0.96910  0.50360  0.23250  Biso   1.000  H
  H2       1.0000 0.04000  0.36230  0.17400  Biso   1.000  H
  H3       1.0000 0.17040  0.35010  0.07300  Biso   1.000  H
  H4       1.0000 0.20160  0.23250  0.26390  Biso   1.000  H
  H5       1.0000 0.21400  0.17400  0.46370  Biso   1.000  H
  H6       1.0000 0.24340  0.07300  0.57690  Biso   1.000  H
  H7       1.0000 0.46550  0.26390  0.50360  Biso   1.000  H
  H8       1.0000 0.67770  0.46370  0.36230  Biso   1.000  H
  H9       1.0000 0.82030  0.57690  0.35010  Biso   1.000  H
  H10      1.0000 0.79840  0.26390  0.23250  Biso   1.000  H
  H11      1.0000 0.78600  0.46370  0.17400  Biso   1.000  H
  H12      1.0000 0.75660  0.57690  0.07300  Biso   1.000  H
  H13      1.0000 0.53450  0.50360  0.26390  Biso   1.000  H
  H14      1.0000 0.32230  0.36230  0.46370  Biso   1.000  H
  H15      1.0000 0.17970  0.35010  0.57690  Biso   1.000  H
  H16      1.0000 0.03090  0.23250  0.50360  Biso   1.000  H
  H17      1.0000 0.96000  0.17400  0.36230  Biso   1.000  H
  H18      1.0000 0.82960  0.07300  0.35010  Biso   1.000  H
  H19      1.0000 0.03090  0.49640  0.76750  Biso   1.000  H
  H20      1.0000 0.96000  0.63770  0.82600  Biso   1.000  H
  H21      1.0000 0.82960  0.64990  0.92700  Biso   1.000  H
  H22      1.0000 0.79840  0.76750  0.73610  Biso   1.000  H
  H23      1.0000 0.78600  0.82600  0.53630  Biso   1.000  H
  H24      1.0000 0.75660  0.92700  0.42310  Biso   1.000  H
  H25      1.0000 0.53450  0.73610  0.49640  Biso   1.000  H
  H26      1.0000 0.32230  0.53630  0.63770  Biso   1.000  H
  H27      1.0000 0.17970  0.42310  0.64990  Biso   1.000  H
  H28      1.0000 0.20160  0.73610  0.76750  Biso   1.000  H
  H29      1.0000 0.21400  0.53630  0.82600  Biso   1.000  H
  H30      1.0000 0.24340  0.42310  0.92700  Biso   1.000  H
  H31      1.0000 0.46550  0.49640  0.73610  Biso   1.000  H
  H32      1.0000 0.67770  0.63770  0.53630  Biso   1.000  H
  H33      1.0000 0.82030  0.64990  0.42310  Biso   1.000  H
  H34      1.0000 0.96910  0.76750  0.49640  Biso   1.000  H
  H35      1.0000 0.04000  0.82600  0.63770  Biso   1.000  H
  H36      1.0000 0.17040  0.92700  0.64990  Biso   1.000  H
  H37      1.0000 0.75460  0.25460  0.49080  Biso   1.000  H
  H38      1.0000 0.24540  0.49080  0.25460  Biso   1.000  H
  H39      1.0000 0.50000  0.25460  0.25460  Biso   1.000  H
  H40      1.0000 0.24540  0.74540  0.50920  Biso   1.000  H
  H41      1.0000 0.75460  0.50920  0.74540  Biso   1.000  H
  H42      1.0000 0.50000  0.74540  0.74540  Biso   1.000  H
  C1       1.0000 0.90490  0.43080  0.42340  Biso   1.000  C
  C2       1.0000 0.87090  0.38500  0.36920  Biso   1.000  C
  C3       1.0000 0.91820  0.43660  0.26720  Biso   1.000  C
  C4       1.0000 0.03450  0.44650  0.05360  Biso   1.000  C
  C5       1.0000 0.06830  0.39360  0.10420  Biso   1.000  C
  C6       1.0000 0.14910  0.39110  0.04170  Biso   1.000  C
  C7       1.0000 0.32830  0.42340  0.14580  Biso   1.000  C
  C8       1.0000 0.24010  0.36920  0.24580  Biso   1.000  C
  C9       1.0000 0.18540  0.26720  0.29620  Biso   1.000  C
  C10      1.0000 0.08810  0.05360  0.49990  Biso   1.000  C
  C11      1.0000 0.17250  0.10420  0.50220  Biso   1.000  C
  C12      1.0000 0.19080  0.04170  0.56720  Biso   1.000  C
  C13      1.0000 0.47410  0.14580  0.43080  Biso   1.000  C
  C14      1.0000 0.48590  0.24580  0.38500  Biso   1.000  C
  C15      1.0000 0.48160  0.29620  0.43660  Biso   1.000  C
  C16      1.0000 0.58800  0.49990  0.44650  Biso   1.000  C
  C17      1.0000 0.67470  0.50220  0.39360  Biso   1.000  C
  C18      1.0000 0.75800  0.56720  0.39110  Biso   1.000  C
  C19      1.0000 0.67170  0.14580  0.42340  Biso   1.000  C
  C20      1.0000 0.75990  0.24580  0.36920  Biso   1.000  C
  C21      1.0000 0.81460  0.29620  0.26720  Biso   1.000  C
  C22      1.0000 0.91190  0.49990  0.05360  Biso   1.000  C
  C23      1.0000 0.82750  0.50220  0.10420  Biso   1.000  C
  C24      1.0000 0.80920  0.56720  0.04170  Biso   1.000  C
  C25      1.0000 0.52590  0.43080  0.14580  Biso   1.000  C
  C26      1.0000 0.51410  0.38500  0.24580  Biso   1.000  C
  C27      1.0000 0.51840  0.43660  0.29620  Biso   1.000  C
  C28      1.0000 0.41200  0.44650  0.49990  Biso   1.000  C
  C29      1.0000 0.32530  0.39360  0.50220  Biso   1.000  C
  C30      1.0000 0.24200  0.39110  0.56720  Biso   1.000  C
  C31      1.0000 0.09510  0.42340  0.43080  Biso   1.000  C
  C32      1.0000 0.12910  0.36920  0.38500  Biso   1.000  C
  C33      1.0000 0.08180  0.26720  0.43660  Biso   1.000  C
  C34      1.0000 0.96550  0.05360  0.44650  Biso   1.000  C
  C35      1.0000 0.93170  0.10420  0.39360  Biso   1.000  C
  C36      1.0000 0.85090  0.04170  0.39110  Biso   1.000  C
  C37      1.0000 0.09510  0.56920  0.57660  Biso   1.000  C
  C38      1.0000 0.12910  0.61500  0.63080  Biso   1.000  C
  C39      1.0000 0.08180  0.56340  0.73280  Biso   1.000  C
  C40      1.0000 0.96550  0.55350  0.94640  Biso   1.000  C
  C41      1.0000 0.93170  0.60640  0.89580  Biso   1.000  C
  C42      1.0000 0.85090  0.60890  0.95830  Biso   1.000  C
  C43      1.0000 0.67170  0.57660  0.85420  Biso   1.000  C
  C44      1.0000 0.75990  0.63080  0.75420  Biso   1.000  C
  C45      1.0000 0.81460  0.73280  0.70380  Biso   1.000  C
  C46      1.0000 0.91190  0.94640  0.50010  Biso   1.000  C
  C47      1.0000 0.82750  0.89580  0.49780  Biso   1.000  C
  C48      1.0000 0.80920  0.95830  0.43280  Biso   1.000  C
  C49      1.0000 0.52590  0.85420  0.56920  Biso   1.000  C
  C50      1.0000 0.51410  0.75420  0.61500  Biso   1.000  C
  C51      1.0000 0.51840  0.70380  0.56340  Biso   1.000  C
  C52      1.0000 0.41200  0.50010  0.55350  Biso   1.000  C
  C53      1.0000 0.32530  0.49780  0.60640  Biso   1.000  C
  C54      1.0000 0.24200  0.43280  0.60890  Biso   1.000  C
  C55      1.0000 0.32830  0.85420  0.57660  Biso   1.000  C
  C56      1.0000 0.24010  0.75420  0.63080  Biso   1.000  C
  C57      1.0000 0.18540  0.70380  0.73280  Biso   1.000  C
  C58      1.0000 0.08810  0.50010  0.94640  Biso   1.000  C
  C59      1.0000 0.17250  0.49780  0.89580  Biso   1.000  C
  C60      1.0000 0.19080  0.43280  0.95830  Biso   1.000  C
  C61      1.0000 0.47410  0.56920  0.85420  Biso   1.000  C
  C62      1.0000 0.48590  0.61500  0.75420  Biso   1.000  C
  C63      1.0000 0.48160  0.56340  0.70380  Biso   1.000  C
  C64      1.0000 0.58800  0.55350  0.50010  Biso   1.000  C
  C65      1.0000 0.67470  0.60640  0.49780  Biso   1.000  C
  C66      1.0000 0.75800  0.60890  0.43280  Biso   1.000  C
  C67      1.0000 0.90490  0.57660  0.56920  Biso   1.000  C
  C68      1.0000 0.87090  0.63080  0.61500  Biso   1.000  C
  C69      1.0000 0.91820  0.73280  0.56340  Biso   1.000  C
  C70      1.0000 0.03450  0.94640  0.55350  Biso   1.000  C
  C71      1.0000 0.06830  0.89580  0.60640  Biso   1.000  C
  C72      1.0000 0.14910  0.95830  0.60890  Biso   1.000  C
  C73      1.0000 0.78960  0.28960  0.42080  Biso   1.000  C
  C74      1.0000 0.89310  0.39310  0.21380  Biso   1.000  C
  C75      1.0000 0.94850  0.44850  0.10300  Biso   1.000  C
  C76      1.0000 0.21040  0.42080  0.28960  Biso   1.000  C
  C77      1.0000 0.10690  0.21380  0.39310  Biso   1.000  C
  C78      1.0000 0.05150  0.10300  0.44850  Biso   1.000  C
  C79      1.0000 0.50000  0.28960  0.28960  Biso   1.000  C
  C80      1.0000 0.50000  0.39310  0.39310  Biso   1.000  C
  C81      1.0000 0.50000  0.44850  0.44850  Biso   1.000  C
  C82      1.0000 0.21040  0.71040  0.57920  Biso   1.000  C
  C83      1.0000 0.10690  0.60690  0.78620  Biso   1.000  C
  C84      1.0000 0.05150  0.55150  0.89700  Biso   1.000  C
  C85      1.0000 0.78960  0.57920  0.71040  Biso   1.000  C
  C86      1.0000 0.89310  0.78620  0.60690  Biso   1.000  C
  C87      1.0000 0.94850  0.89700  0.55150  Biso   1.000  C
  C88      1.0000 0.50000  0.71040  0.71040  Biso   1.000  C
  C89      1.0000 0.50000  0.60690  0.60690  Biso   1.000  C
  C90      1.0000 0.50000  0.55150  0.55150  Biso   1.000  C
  O1       1.0000 0.97077  0.51909  0.37438  Biso   1.000  O
  O2       1.0000 0.86260  0.37680  0.51640  Biso   1.000  O
  O3       1.0000 0.34515  0.37438  0.10653  Biso   1.000  O
  O4       1.0000 0.37900  0.51640  0.10680  Biso   1.000  O
  O5       1.0000 0.45168  0.10653  0.51909  Biso   1.000  O
  O6       1.0000 0.48580  0.10680  0.37680  Biso   1.000  O
  O7       1.0000 0.65485  0.10653  0.37438  Biso   1.000  O
  O8       1.0000 0.62100  0.10680  0.51640  Biso   1.000  O
  O9       1.0000 0.54832  0.51909  0.10653  Biso   1.000  O
  O10      1.0000 0.51420  0.37680  0.10680  Biso   1.000  O
  O11      1.0000 0.02923  0.37438  0.51909  Biso   1.000  O
  O12      1.0000 0.13740  0.51640  0.37680  Biso   1.000  O
  O13      1.0000 0.02923  0.48091  0.62562  Biso   1.000  O
  O14      1.0000 0.13740  0.62320  0.48360  Biso   1.000  O
  O15      1.0000 0.65485  0.62562  0.89347  Biso   1.000  O
  O16      1.0000 0.62100  0.48360  0.89320  Biso   1.000  O
  O17      1.0000 0.54832  0.89347  0.48091  Biso   1.000  O
  O18      1.0000 0.51420  0.89320  0.62320  Biso   1.000  O
  O19      1.0000 0.34515  0.89347  0.62562  Biso   1.000  O
  O20      1.0000 0.37900  0.89320  0.48360  Biso   1.000  O
  O21      1.0000 0.45168  0.48091  0.89347  Biso   1.000  O
  O22      1.0000 0.48580  0.62320  0.89320  Biso   1.000  O
  O23      1.0000 0.97077  0.62562  0.48091  Biso   1.000  O
  O24      1.0000 0.86260  0.48360  0.62320  Biso   1.000  O
