data_image0
_cell_length_a       9.509
_cell_length_b       15.18
_cell_length_c       12.246
_cell_angle_alpha    90
_cell_angle_beta     93.835
_cell_angle_gamma    90

_symmetry_space_group_name_H-M    "P 1"
_symmetry_int_tables_number       1

loop_
  _symmetry_equiv_pos_as_xyz
  'x, y, z'

loop_
  _atom_site_label
  _atom_site_occupancy
  _atom_site_fract_x
  _atom_site_fract_y
  _atom_site_fract_z
  _atom_site_thermal_displace_type
  _atom_site_B_iso_or_equiv
  _atom_site_type_symbol
  Zn1      1.0000 0.14215  0.07827  0.44761  Biso   1.000  Zn
  O1       1.0000 0.97616  0.07106  0.34236  Biso   1.000  O
  O2       1.0000 0.31380  0.06654  0.37070  Biso   1.000  O
  O3       1.0000 0.82106  0.02645  0.45990  Biso   1.000  O
  O4       1.0000 0.58776  0.32560  0.04185  Biso   1.000  O
  C1       1.0000 0.51920  0.20645  0.20338  Biso   1.000  C
  H1       1.0000 0.44690  0.24000  0.16940  Biso   1.000  H
  C2       1.0000 0.34050  0.13600  0.31792  Biso   1.000  C
  O5       1.0000 0.25548  0.19676  0.29921  Biso   1.000  O
  C3       1.0000 0.48800  0.14399  0.28116  Biso   1.000  C
  C4       1.0000 0.73560  0.10802  0.30724  Biso   1.000  C
  C5       1.0000 0.59620  0.09459  0.33271  Biso   1.000  C
  H2       1.0000 0.57570  0.05240  0.38440  Biso   1.000  H
  C6       1.0000 0.65760  0.21942  0.17573  Biso   1.000  C
  C7       1.0000 0.85300  0.06370  0.37421  Biso   1.000  C
  O6       1.0000 0.81628  0.31415  0.08961  Biso   1.000  O
  C8       1.0000 0.76540  0.16964  0.22781  Biso   1.000  C
  H3       1.0000 0.85780  0.17760  0.20940  Biso   1.000  H
  C9       1.0000 0.69190  0.29087  0.09680  Biso   1.000  C
  Zn2      1.0000 0.35785  0.57827  0.05239  Biso   1.000  Zn
  O7       1.0000 0.52384  0.57106  0.15764  Biso   1.000  O
  O8       1.0000 0.18620  0.56654  0.12930  Biso   1.000  O
  O9       1.0000 0.67894  0.52645  0.04010  Biso   1.000  O
  O10      1.0000 0.91224  0.82560  0.45815  Biso   1.000  O
  C10      1.0000 0.98080  0.70645  0.29662  Biso   1.000  C
  H4       1.0000 0.05310  0.74000  0.33060  Biso   1.000  H
  C11      1.0000 0.15950  0.63600  0.18208  Biso   1.000  C
  O11      1.0000 0.24452  0.69676  0.20079  Biso   1.000  O
  C12      1.0000 0.01200  0.64399  0.21884  Biso   1.000  C
  C13      1.0000 0.76440  0.60802  0.19276  Biso   1.000  C
  C14      1.0000 0.90380  0.59459  0.16729  Biso   1.000  C
  H5       1.0000 0.92430  0.55240  0.11560  Biso   1.000  H
  C15      1.0000 0.84240  0.71942  0.32427  Biso   1.000  C
  C16      1.0000 0.64700  0.56370  0.12579  Biso   1.000  C
  O12      1.0000 0.68372  0.81415  0.41039  Biso   1.000  O
  C17      1.0000 0.73460  0.66964  0.27219  Biso   1.000  C
  H6       1.0000 0.64220  0.67760  0.29060  Biso   1.000  H
  C18      1.0000 0.80810  0.79087  0.40320  Biso   1.000  C
  Zn3      1.0000 0.85785  0.92173  0.55239  Biso   1.000  Zn
  O13      1.0000 0.02384  0.92894  0.65764  Biso   1.000  O
  O14      1.0000 0.68620  0.93346  0.62930  Biso   1.000  O
  O15      1.0000 0.17894  0.97355  0.54010  Biso   1.000  O
  O16      1.0000 0.41224  0.67440  0.95815  Biso   1.000  O
  C19      1.0000 0.48080  0.79355  0.79662  Biso   1.000  C
  H7       1.0000 0.55310  0.76000  0.83060  Biso   1.000  H
  C20      1.0000 0.65950  0.86400  0.68208  Biso   1.000  C
  O17      1.0000 0.74452  0.80324  0.70079  Biso   1.000  O
  C21      1.0000 0.51200  0.85601  0.71884  Biso   1.000  C
  C22      1.0000 0.26440  0.89198  0.69276  Biso   1.000  C
  C23      1.0000 0.40380  0.90541  0.66729  Biso   1.000  C
  H8       1.0000 0.42430  0.94760  0.61560  Biso   1.000  H
  C24      1.0000 0.34240  0.78058  0.82427  Biso   1.000  C
  C25      1.0000 0.14700  0.93630  0.62579  Biso   1.000  C
  O18      1.0000 0.18372  0.68585  0.91039  Biso   1.000  O
  C26      1.0000 0.23460  0.83036  0.77219  Biso   1.000  C
  H9       1.0000 0.14220  0.82240  0.79060  Biso   1.000  H
  C27      1.0000 0.30810  0.70913  0.90320  Biso   1.000  C
  Zn4      1.0000 0.64215  0.42173  0.94761  Biso   1.000  Zn
  O19      1.0000 0.47616  0.42894  0.84236  Biso   1.000  O
  O20      1.0000 0.81380  0.43346  0.87070  Biso   1.000  O
  O21      1.0000 0.32106  0.47355  0.95990  Biso   1.000  O
  O22      1.0000 0.08776  0.17440  0.54185  Biso   1.000  O
  C28      1.0000 0.01920  0.29355  0.70338  Biso   1.000  C
  H10      1.0000 0.94690  0.26000  0.66940  Biso   1.000  H
  C29      1.0000 0.84050  0.36400  0.81792  Biso   1.000  C
  O23      1.0000 0.75548  0.30324  0.79921  Biso   1.000  O
  C30      1.0000 0.98800  0.35601  0.78116  Biso   1.000  C
  C31      1.0000 0.23560  0.39198  0.80724  Biso   1.000  C
  C32      1.0000 0.09620  0.40541  0.83271  Biso   1.000  C
  H11      1.0000 0.07570  0.44760  0.88440  Biso   1.000  H
  C33      1.0000 0.15760  0.28058  0.67573  Biso   1.000  C
  C34      1.0000 0.35300  0.43630  0.87421  Biso   1.000  C
  O24      1.0000 0.31628  0.18585  0.58961  Biso   1.000  O
  C35      1.0000 0.26540  0.33036  0.72781  Biso   1.000  C
  H12      1.0000 0.35780  0.32240  0.70940  Biso   1.000  H
  C36      1.0000 0.19190  0.20913  0.59680  Biso   1.000  C
