data_image0
_cell_length_a       9.46
_cell_length_b       15.98
_cell_length_c       11.574
_cell_angle_alpha    90
_cell_angle_beta     93.89
_cell_angle_gamma    90

_symmetry_space_group_name_H-M    "P 1"
_symmetry_int_tables_number       1

loop_
  _symmetry_equiv_pos_as_xyz
  'x, y, z'

loop_
  _atom_site_label
  _atom_site_occupancy
  _atom_site_fract_x
  _atom_site_fract_y
  _atom_site_fract_z
  _atom_site_thermal_displace_type
  _atom_site_B_iso_or_equiv
  _atom_site_type_symbol
  Zn1      1.0000 0.14276  0.91881  0.45022  Biso   1.000  Zn
  O1       1.0000 0.98030  0.93190  0.33500  Biso   1.000  O
  O2       1.0000 0.25550  0.81400  0.29250  Biso   1.000  O
  O3       1.0000 0.31650  0.93540  0.37060  Biso   1.000  O
  C1       1.0000 0.59870  0.91240  0.32320  Biso   1.000  C
  H1       1.0000 0.57890  0.95620  0.37250  Biso   1.000  H
  O4       1.0000 0.58720  0.67260  0.04590  Biso   1.000  O
  C2       1.0000 0.34560  0.87190  0.31380  Biso   1.000  C
  O5       1.0000 0.82170  0.98380  0.45070  Biso   1.000  O
  C3       1.0000 0.76710  0.83630  0.22060  Biso   1.000  C
  H2       1.0000 0.86030  0.82760  0.20280  Biso   1.000  H
  C4       1.0000 0.52190  0.80080  0.19750  Biso   1.000  C
  H3       1.0000 0.44890  0.76730  0.16570  Biso   1.000  H
  C5       1.0000 0.49060  0.86260  0.27400  Biso   1.000  C
  C6       1.0000 0.73920  0.89540  0.29710  Biso   1.000  C
  C7       1.0000 0.69330  0.71760  0.08700  Biso   1.000  C
  C8       1.0000 0.65920  0.78670  0.16590  Biso   1.000  C
  C9       1.0000 0.85450  0.94180  0.36430  Biso   1.000  C
  O6       1.0000 0.81670  0.70320  0.06460  Biso   1.000  O
  Zn2      1.0000 0.35724  0.41881  0.04978  Biso   1.000  Zn
  O7       1.0000 0.51970  0.43190  0.16500  Biso   1.000  O
  O8       1.0000 0.24450  0.31400  0.20750  Biso   1.000  O
  O9       1.0000 0.18350  0.43540  0.12940  Biso   1.000  O
  C10      1.0000 0.90130  0.41240  0.17680  Biso   1.000  C
  H4       1.0000 0.92110  0.45620  0.12750  Biso   1.000  H
  O10      1.0000 0.91280  0.17260  0.45410  Biso   1.000  O
  C11      1.0000 0.15440  0.37190  0.18620  Biso   1.000  C
  O11      1.0000 0.67830  0.48380  0.04930  Biso   1.000  O
  C12      1.0000 0.73290  0.33630  0.27940  Biso   1.000  C
  H5       1.0000 0.63970  0.32760  0.29720  Biso   1.000  H
  C13      1.0000 0.97810  0.30080  0.30250  Biso   1.000  C
  H6       1.0000 0.05110  0.26730  0.33430  Biso   1.000  H
  C14      1.0000 0.00940  0.36260  0.22600  Biso   1.000  C
  C15      1.0000 0.76080  0.39540  0.20290  Biso   1.000  C
  C16      1.0000 0.80670  0.21760  0.41300  Biso   1.000  C
  C17      1.0000 0.84080  0.28670  0.33410  Biso   1.000  C
  C18      1.0000 0.64550  0.44180  0.13570  Biso   1.000  C
  O12      1.0000 0.68330  0.20320  0.43540  Biso   1.000  O
  Zn3      1.0000 0.85724  0.08119  0.54978  Biso   1.000  Zn
  O13      1.0000 0.01970  0.06810  0.66500  Biso   1.000  O
  O14      1.0000 0.74450  0.18600  0.70750  Biso   1.000  O
  O15      1.0000 0.68350  0.06460  0.62940  Biso   1.000  O
  C19      1.0000 0.40130  0.08760  0.67680  Biso   1.000  C
  H7       1.0000 0.42110  0.04380  0.62750  Biso   1.000  H
  O16      1.0000 0.41280  0.32740  0.95410  Biso   1.000  O
  C20      1.0000 0.65440  0.12810  0.68620  Biso   1.000  C
  O17      1.0000 0.17830  0.01620  0.54930  Biso   1.000  O
  C21      1.0000 0.23290  0.16370  0.77940  Biso   1.000  C
  H8       1.0000 0.13970  0.17240  0.79720  Biso   1.000  H
  C22      1.0000 0.47810  0.19920  0.80250  Biso   1.000  C
  H9       1.0000 0.55110  0.23270  0.83430  Biso   1.000  H
  C23      1.0000 0.50940  0.13740  0.72600  Biso   1.000  C
  C24      1.0000 0.26080  0.10460  0.70290  Biso   1.000  C
  C25      1.0000 0.30670  0.28240  0.91300  Biso   1.000  C
  C26      1.0000 0.34080  0.21330  0.83410  Biso   1.000  C
  C27      1.0000 0.14550  0.05820  0.63570  Biso   1.000  C
  O18      1.0000 0.18330  0.29680  0.93540  Biso   1.000  O
  Zn4      1.0000 0.64276  0.58119  0.95022  Biso   1.000  Zn
  O19      1.0000 0.48030  0.56810  0.83500  Biso   1.000  O
  O20      1.0000 0.75550  0.68600  0.79250  Biso   1.000  O
  O21      1.0000 0.81650  0.56460  0.87060  Biso   1.000  O
  C28      1.0000 0.09870  0.58760  0.82320  Biso   1.000  C
  H10      1.0000 0.07890  0.54380  0.87250  Biso   1.000  H
  O22      1.0000 0.08720  0.82740  0.54590  Biso   1.000  O
  C29      1.0000 0.84560  0.62810  0.81380  Biso   1.000  C
  O23      1.0000 0.32170  0.51620  0.95070  Biso   1.000  O
  C30      1.0000 0.26710  0.66370  0.72060  Biso   1.000  C
  H11      1.0000 0.36030  0.67240  0.70280  Biso   1.000  H
  C31      1.0000 0.02190  0.69920  0.69750  Biso   1.000  C
  H12      1.0000 0.94890  0.73270  0.66570  Biso   1.000  H
  C32      1.0000 0.99060  0.63740  0.77400  Biso   1.000  C
  C33      1.0000 0.23920  0.60460  0.79710  Biso   1.000  C
  C34      1.0000 0.19330  0.78240  0.58700  Biso   1.000  C
  C35      1.0000 0.15920  0.71330  0.66590  Biso   1.000  C
  C36      1.0000 0.35450  0.55820  0.86430  Biso   1.000  C
  O24      1.0000 0.31670  0.79680  0.56460  Biso   1.000  O
