data_image0
_cell_length_a       10.577
_cell_length_b       10.577
_cell_length_c       14.7681
_cell_angle_alpha    90.5975
_cell_angle_beta     90.5975
_cell_angle_gamma    105.754

_symmetry_space_group_name_H-M    P 1
_symmetry_int_tables_number       1

loop_
  _symmetry_equiv_pos_as_xyz
  'x, y, z'

loop_
  _atom_site_label
  _atom_site_occupancy
  _atom_site_fract_x
  _atom_site_fract_y
  _atom_site_fract_z
  _atom_site_thermal_displace_type
  _atom_site_B_iso_or_equiv
  _atom_site_type_symbol
  Gd1      1.0000 0.32477  0.42739  0.94254  Biso   1.000  Gd
  Gd2      1.0000 0.07261  0.17523  0.55746  Biso   1.000  Gd
  Gd3      1.0000 0.67523  0.57261  0.05746  Biso   1.000  Gd
  Gd4      1.0000 0.92739  0.82477  0.44254  Biso   1.000  Gd
  H1       1.0000 0.03910  0.67490  0.15940  Biso   1.000  H
  H2       1.0000 0.15540  0.80280  0.16950  Biso   1.000  H
  H3       1.0000 0.38550  0.67650  0.25290  Biso   1.000  H
  H4       1.0000 0.35940  0.79360  0.19900  Biso   1.000  H
  H5       1.0000 0.43820  0.21040  0.21250  Biso   1.000  H
  H6       1.0000 0.44680  0.35440  0.24460  Biso   1.000  H
  H7       1.0000 0.82510  0.46090  0.34060  Biso   1.000  H
  H8       1.0000 0.69720  0.34460  0.33050  Biso   1.000  H
  H9       1.0000 0.82350  0.11450  0.24710  Biso   1.000  H
  H10      1.0000 0.70640  0.14060  0.30100  Biso   1.000  H
  H11      1.0000 0.28960  0.06180  0.28750  Biso   1.000  H
  H12      1.0000 0.14560  0.05320  0.25540  Biso   1.000  H
  H13      1.0000 0.96090  0.32510  0.84060  Biso   1.000  H
  H14      1.0000 0.84460  0.19720  0.83050  Biso   1.000  H
  H15      1.0000 0.61450  0.32350  0.74710  Biso   1.000  H
  H16      1.0000 0.64060  0.20640  0.80100  Biso   1.000  H
  H17      1.0000 0.56180  0.78960  0.78750  Biso   1.000  H
  H18      1.0000 0.55320  0.64560  0.75540  Biso   1.000  H
  H19      1.0000 0.17490  0.53910  0.65940  Biso   1.000  H
  H20      1.0000 0.30280  0.65540  0.66950  Biso   1.000  H
  H21      1.0000 0.17650  0.88550  0.75290  Biso   1.000  H
  H22      1.0000 0.29360  0.85940  0.69900  Biso   1.000  H
  H23      1.0000 0.71040  0.93820  0.71250  Biso   1.000  H
  H24      1.0000 0.85440  0.94680  0.74460  Biso   1.000  H
  C1       1.0000 0.15430  0.51410  0.23070  Biso   1.000  C
  C2       1.0000 0.11070  0.72170  0.19910  Biso   1.000  C
  C3       1.0000 0.05340  0.75560  0.28620  Biso   1.000  C
  C4       1.0000 0.34130  0.69870  0.20000  Biso   1.000  C
  C5       1.0000 0.40000  0.65360  0.11540  Biso   1.000  C
  C6       1.0000 0.39430  0.27970  0.21000  Biso   1.000  C
  C7       1.0000 0.38370  0.31950  0.11160  Biso   1.000  C
  C8       1.0000 0.98590  0.34570  0.26930  Biso   1.000  C
  C9       1.0000 0.77830  0.38930  0.30090  Biso   1.000  C
  C10      1.0000 0.74440  0.44660  0.21380  Biso   1.000  C
  C11      1.0000 0.80130  0.15870  0.30000  Biso   1.000  C
  C12      1.0000 0.84640  0.10000  0.38460  Biso   1.000  C
  C13      1.0000 0.22030  0.10570  0.29000  Biso   1.000  C
  C14      1.0000 0.18050  0.11630  0.38840  Biso   1.000  C
  C15      1.0000 0.84570  0.48590  0.76930  Biso   1.000  C
  C16      1.0000 0.88930  0.27830  0.80090  Biso   1.000  C
  C17      1.0000 0.94660  0.24440  0.71380  Biso   1.000  C
  C18      1.0000 0.65870  0.30130  0.80000  Biso   1.000  C
  C19      1.0000 0.60000  0.34640  0.88460  Biso   1.000  C
  C20      1.0000 0.60570  0.72030  0.79000  Biso   1.000  C
  C21      1.0000 0.61630  0.68050  0.88840  Biso   1.000  C
  C22      1.0000 0.01410  0.65430  0.73070  Biso   1.000  C
  C23      1.0000 0.22170  0.61070  0.69910  Biso   1.000  C
  C24      1.0000 0.25560  0.55340  0.78620  Biso   1.000  C
  C25      1.0000 0.19870  0.84130  0.70000  Biso   1.000  C
  C26      1.0000 0.15360  0.90000  0.61540  Biso   1.000  C
  C27      1.0000 0.77970  0.89430  0.71000  Biso   1.000  C
  C28      1.0000 0.81950  0.88370  0.61160  Biso   1.000  C
  C29      1.0000 0.18580  0.31420  0.25000  Biso   1.000  C
  C30      1.0000 0.81420  0.68580  0.75000  Biso   1.000  C
  N1       1.0000 0.24090  0.44090  0.23120  Biso   1.000  N
  N2       1.0000 0.20140  0.64300  0.20960  Biso   1.000  N
  N3       1.0000 0.05910  0.25910  0.26880  Biso   1.000  N
  N4       1.0000 0.85700  0.29860  0.29040  Biso   1.000  N
  N5       1.0000 0.75910  0.55910  0.76880  Biso   1.000  N
  N6       1.0000 0.79860  0.35700  0.79040  Biso   1.000  N
  N7       1.0000 0.94090  0.74090  0.73120  Biso   1.000  N
  N8       1.0000 0.14300  0.70140  0.70960  Biso   1.000  N
  N9       1.0000 0.02670  0.47330  0.25000  Biso   1.000  N
  N10      1.0000 0.26560  0.23440  0.25000  Biso   1.000  N
  N11      1.0000 0.97330  0.52670  0.75000  Biso   1.000  N
  N12      1.0000 0.73440  0.76560  0.75000  Biso   1.000  N
  O1       1.0000 0.95050  0.79570  0.28010  Biso   1.000  O
  O2       1.0000 0.10510  0.75090  0.36150  Biso   1.000  O
  O3       1.0000 0.32420  0.59260  0.05420  Biso   1.000  O
  O4       1.0000 0.52450  0.68230  0.11510  Biso   1.000  O
  O5       1.0000 0.28610  0.26370  0.06400  Biso   1.000  O
  O6       1.0000 0.47600  0.40980  0.07900  Biso   1.000  O
  O7       1.0000 0.18190  0.22490  0.88000  Biso   1.000  O
  O8       1.0000 0.10090  0.41670  0.99580  Biso   1.000  O
  O9       1.0000 0.70430  0.54950  0.21990  Biso   1.000  O
  O10      1.0000 0.74910  0.39490  0.13850  Biso   1.000  O
  O11      1.0000 0.90740  0.17580  0.44580  Biso   1.000  O
  O12      1.0000 0.81770  0.97550  0.38490  Biso   1.000  O
  O13      1.0000 0.23630  0.21390  0.43600  Biso   1.000  O
  O14      1.0000 0.09020  0.02400  0.42100  Biso   1.000  O
  O15      1.0000 0.27510  0.31810  0.62000  Biso   1.000  O
  O16      1.0000 0.08330  0.39910  0.50420  Biso   1.000  O
  O17      1.0000 0.04950  0.20430  0.71990  Biso   1.000  O
  O18      1.0000 0.89490  0.24910  0.63850  Biso   1.000  O
  O19      1.0000 0.67580  0.40740  0.94580  Biso   1.000  O
  O20      1.0000 0.47550  0.31770  0.88490  Biso   1.000  O
  O21      1.0000 0.71390  0.73630  0.93600  Biso   1.000  O
  O22      1.0000 0.52400  0.59020  0.92100  Biso   1.000  O
  O23      1.0000 0.81810  0.77510  0.12000  Biso   1.000  O
  O24      1.0000 0.89910  0.58330  0.00420  Biso   1.000  O
  O25      1.0000 0.29570  0.45050  0.78010  Biso   1.000  O
  O26      1.0000 0.25090  0.60510  0.86150  Biso   1.000  O
  O27      1.0000 0.09260  0.82420  0.55420  Biso   1.000  O
  O28      1.0000 0.18230  0.02450  0.61510  Biso   1.000  O
  O29      1.0000 0.76370  0.78610  0.56400  Biso   1.000  O
  O30      1.0000 0.90980  0.97600  0.57900  Biso   1.000  O
  O31      1.0000 0.72490  0.68190  0.38000  Biso   1.000  O
  O32      1.0000 0.91670  0.60090  0.49580  Biso   1.000  O
