data_image0
_cell_length_a       9.488
_cell_length_b       12.562
_cell_length_c       15.477
_cell_angle_alpha    90
_cell_angle_beta     106.099
_cell_angle_gamma    90

_symmetry_space_group_name_H-M    "P 1"
_symmetry_int_tables_number       1

loop_
  _symmetry_equiv_pos_as_xyz
  'x, y, z'

loop_
  _atom_site_label
  _atom_site_occupancy
  _atom_site_fract_x
  _atom_site_fract_y
  _atom_site_fract_z
  _atom_site_thermal_displace_type
  _atom_site_B_iso_or_equiv
  _atom_site_type_symbol
  Zn1      1.0000 0.68389  0.05301  0.08518  Biso   1.000  Zn
  O1       1.0000 0.67000  0.94820  0.98860  Biso   1.000  O
  O2       1.0000 0.74110  0.53130  0.69360  Biso   1.000  O
  O3       1.0000 0.51880  0.55720  0.71400  Biso   1.000  O
  O4       1.0000 0.47400  0.84470  0.92980  Biso   1.000  O
  O5       1.0000 0.13360  0.88540  0.92770  Biso   1.000  O
  C1       1.0000 0.60820  0.86950  0.94590  Biso   1.000  C
  O6       1.0000 0.15450  0.76030  0.83080  Biso   1.000  O
  C2       1.0000 0.63880  0.71680  0.84670  Biso   1.000  C
  H1       1.0000 0.54070  0.69950  0.83880  Biso   1.000  H
  C3       1.0000 0.70150  0.79820  0.90470  Biso   1.000  C
  C4       1.0000 0.84860  0.82330  0.91850  Biso   1.000  C
  H2       1.0000 0.89150  0.87640  0.95910  Biso   1.000  H
  C5       1.0000 0.72050  0.66060  0.80020  Biso   1.000  C
  C6       1.0000 0.65160  0.57640  0.73100  Biso   1.000  C
  C7       1.0000 0.86670  0.68810  0.81340  Biso   1.000  C
  H3       1.0000 0.92230  0.65130  0.78230  Biso   1.000  H
  C8       1.0000 0.93180  0.76910  0.87160  Biso   1.000  C
  C9       1.0000 0.08590  0.80570  0.87720  Biso   1.000  C
  Zn2      1.0000 0.31611  0.55301  0.41482  Biso   1.000  Zn
  O7       1.0000 0.33000  0.44820  0.51140  Biso   1.000  O
  O8       1.0000 0.25890  0.03130  0.80640  Biso   1.000  O
  O9       1.0000 0.48120  0.05720  0.78600  Biso   1.000  O
  O10      1.0000 0.52600  0.34470  0.57020  Biso   1.000  O
  O11      1.0000 0.86640  0.38540  0.57230  Biso   1.000  O
  C10      1.0000 0.39180  0.36950  0.55410  Biso   1.000  C
  O12      1.0000 0.84550  0.26030  0.66920  Biso   1.000  O
  C11      1.0000 0.36120  0.21680  0.65330  Biso   1.000  C
  H4       1.0000 0.45930  0.19950  0.66120  Biso   1.000  H
  C12      1.0000 0.29850  0.29820  0.59530  Biso   1.000  C
  C13      1.0000 0.15140  0.32330  0.58150  Biso   1.000  C
  H5       1.0000 0.10850  0.37640  0.54090  Biso   1.000  H
  C14      1.0000 0.27950  0.16060  0.69980  Biso   1.000  C
  C15      1.0000 0.34840  0.07640  0.76900  Biso   1.000  C
  C16      1.0000 0.13330  0.18810  0.68660  Biso   1.000  C
  H6       1.0000 0.07770  0.15130  0.71770  Biso   1.000  H
  C17      1.0000 0.06820  0.26910  0.62840  Biso   1.000  C
  C18      1.0000 0.91410  0.30570  0.62280  Biso   1.000  C
  Zn3      1.0000 0.31611  0.94699  0.91482  Biso   1.000  Zn
  O13      1.0000 0.33000  0.05180  0.01140  Biso   1.000  O
  O14      1.0000 0.25890  0.46870  0.30640  Biso   1.000  O
  O15      1.0000 0.48120  0.44280  0.28600  Biso   1.000  O
  O16      1.0000 0.52600  0.15530  0.07020  Biso   1.000  O
  O17      1.0000 0.86640  0.11460  0.07230  Biso   1.000  O
  C19      1.0000 0.39180  0.13050  0.05410  Biso   1.000  C
  O18      1.0000 0.84550  0.23970  0.16920  Biso   1.000  O
  C20      1.0000 0.36120  0.28320  0.15330  Biso   1.000  C
  H7       1.0000 0.45930  0.30050  0.16120  Biso   1.000  H
  C21      1.0000 0.29850  0.20180  0.09530  Biso   1.000  C
  C22      1.0000 0.15140  0.17670  0.08150  Biso   1.000  C
  H8       1.0000 0.10850  0.12360  0.04090  Biso   1.000  H
  C23      1.0000 0.27950  0.33940  0.19980  Biso   1.000  C
  C24      1.0000 0.34840  0.42360  0.26900  Biso   1.000  C
  C25      1.0000 0.13330  0.31190  0.18660  Biso   1.000  C
  H9       1.0000 0.07770  0.34870  0.21770  Biso   1.000  H
  C26      1.0000 0.06820  0.23090  0.12840  Biso   1.000  C
  C27      1.0000 0.91410  0.19430  0.12280  Biso   1.000  C
  Zn4      1.0000 0.68389  0.44699  0.58518  Biso   1.000  Zn
  O19      1.0000 0.67000  0.55180  0.48860  Biso   1.000  O
  O20      1.0000 0.74110  0.96870  0.19360  Biso   1.000  O
  O21      1.0000 0.51880  0.94280  0.21400  Biso   1.000  O
  O22      1.0000 0.47400  0.65530  0.42980  Biso   1.000  O
  O23      1.0000 0.13360  0.61460  0.42770  Biso   1.000  O
  C28      1.0000 0.60820  0.63050  0.44590  Biso   1.000  C
  O24      1.0000 0.15450  0.73970  0.33080  Biso   1.000  O
  C29      1.0000 0.63880  0.78320  0.34670  Biso   1.000  C
  H10      1.0000 0.54070  0.80050  0.33880  Biso   1.000  H
  C30      1.0000 0.70150  0.70180  0.40470  Biso   1.000  C
  C31      1.0000 0.84860  0.67670  0.41850  Biso   1.000  C
  H11      1.0000 0.89150  0.62360  0.45910  Biso   1.000  H
  C32      1.0000 0.72050  0.83940  0.30020  Biso   1.000  C
  C33      1.0000 0.65160  0.92360  0.23100  Biso   1.000  C
  C34      1.0000 0.86670  0.81190  0.31340  Biso   1.000  C
  H12      1.0000 0.92230  0.84870  0.28230  Biso   1.000  H
  C35      1.0000 0.93180  0.73090  0.37160  Biso   1.000  C
  C36      1.0000 0.08590  0.69430  0.37720  Biso   1.000  C
