data_image0
_cell_length_a       27.7477
_cell_length_b       27.7477
_cell_length_c       3.7669
_cell_angle_alpha    90
_cell_angle_beta     90
_cell_angle_gamma    90

_symmetry_space_group_name_H-M    "P 1"
_symmetry_int_tables_number       1

loop_
  _symmetry_equiv_pos_as_xyz
  'x, y, z'

loop_
  _atom_site_label
  _atom_site_occupancy
  _atom_site_fract_x
  _atom_site_fract_y
  _atom_site_fract_z
  _atom_site_thermal_displace_type
  _atom_site_B_iso_or_equiv
  _atom_site_type_symbol
  Zn1      1.0000 0.28308  0.21414  0.86890  Biso   1.000  Zn
  O1       1.0000 0.21650  0.25480  0.89800  Biso   1.000  O
  H1       1.0000 0.19380  0.26690  0.77500  Biso   1.000  H
  N1       1.0000 0.25970  0.14560  0.81400  Biso   1.000  N
  C1       1.0000 0.27940  0.10840  0.96900  Biso   1.000  C
  H2       1.0000 0.30900  0.10980  0.08380  Biso   1.000  H
  N2       1.0000 0.25270  0.06740  0.94800  Biso   1.000  N
  C2       1.0000 0.21430  0.12920  0.67000  Biso   1.000  C
  O2       1.0000 0.27780  0.85790  0.57300  Biso   1.000  O
  C3       1.0000 0.17850  0.15240  0.48000  Biso   1.000  C
  H3       1.0000 0.18130  0.18490  0.42330  Biso   1.000  H
  O3       1.0000 0.34480  0.87680  0.64500  Biso   1.000  O
  C4       1.0000 0.13830  0.12650  0.37800  Biso   1.000  C
  C5       1.0000 0.10140  0.14750  0.18600  Biso   1.000  C
  H4       1.0000 0.10390  0.17990  0.12670  Biso   1.000  H
  C6       1.0000 0.06090  0.12250  0.08000  Biso   1.000  C
  H5       1.0000 0.03640  0.13730  0.95200  Biso   1.000  H
  C7       1.0000 0.05850  0.07420  0.17200  Biso   1.000  C
  H6       1.0000 0.03180  0.05600  0.10580  Biso   1.000  H
  C8       1.0000 0.09550  0.05280  0.36100  Biso   1.000  C
  H7       1.0000 0.09320  0.02030  0.41760  Biso   1.000  H
  C9       1.0000 0.13590  0.07810  0.46900  Biso   1.000  C
  C10      1.0000 0.17150  0.05440  0.65900  Biso   1.000  C
  H8       1.0000 0.16850  0.02190  0.71630  Biso   1.000  H
  C11      1.0000 0.21160  0.08070  0.76200  Biso   1.000  C
  C12      1.0000 0.24500  0.94440  0.31200  Biso   1.000  C
  H9       1.0000 0.22180  0.92300  0.39540  Biso   1.000  H
  C13      1.0000 0.29320  0.93090  0.30500  Biso   1.000  C
  C14      1.0000 0.32780  0.96290  0.18000  Biso   1.000  C
  H10      1.0000 0.36010  0.95380  0.17530  Biso   1.000  H
  C15      1.0000 0.31420  0.00830  0.06100  Biso   1.000  C
  H11      1.0000 0.33740  0.02970  0.97720  Biso   1.000  H
  C16      1.0000 0.26600  0.02180  0.06800  Biso   1.000  C
  C17      1.0000 0.23140  0.98990  0.19300  Biso   1.000  C
  H12      1.0000 0.19910  0.99890  0.19730  Biso   1.000  H
  C18      1.0000 0.30740  0.88120  0.43500  Biso   1.000  C
  O4       1.0000 0.34180  0.86260  0.23900  Biso   1.000  O
  Zn2      1.0000 0.78308  0.71414  0.36890  Biso   1.000  Zn
  O5       1.0000 0.71650  0.75480  0.39800  Biso   1.000  O
  H13      1.0000 0.69380  0.76690  0.27500  Biso   1.000  H
  N3       1.0000 0.75970  0.64560  0.31400  Biso   1.000  N
  C19      1.0000 0.77940  0.60840  0.46900  Biso   1.000  C
  H14      1.0000 0.80900  0.60980  0.58380  Biso   1.000  H
  N4       1.0000 0.75270  0.56740  0.44800  Biso   1.000  N
  C20      1.0000 0.71430  0.62920  0.17000  Biso   1.000  C
  O6       1.0000 0.77780  0.35790  0.07300  Biso   1.000  O
  C21      1.0000 0.67850  0.65240  0.98000  Biso   1.000  C
  H15      1.0000 0.68130  0.68490  0.92330  Biso   1.000  H
  O7       1.0000 0.84480  0.37680  0.14500  Biso   1.000  O
  C22      1.0000 0.63830  0.62650  0.87800  Biso   1.000  C
  C23      1.0000 0.60140  0.64750  0.68600  Biso   1.000  C
  H16      1.0000 0.60390  0.67990  0.62670  Biso   1.000  H
  C24      1.0000 0.56090  0.62250  0.58000  Biso   1.000  C
  H17      1.0000 0.53640  0.63730  0.45200  Biso   1.000  H
  C25      1.0000 0.55850  0.57420  0.67200  Biso   1.000  C
  H18      1.0000 0.53180  0.55600  0.60580  Biso   1.000  H
  C26      1.0000 0.59550  0.55280  0.86100  Biso   1.000  C
  H19      1.0000 0.59320  0.52030  0.91760  Biso   1.000  H
  C27      1.0000 0.63590  0.57810  0.96900  Biso   1.000  C
  C28      1.0000 0.67150  0.55440  0.15900  Biso   1.000  C
  H20      1.0000 0.66850  0.52190  0.21630  Biso   1.000  H
  C29      1.0000 0.71160  0.58070  0.26200  Biso   1.000  C
  C30      1.0000 0.74500  0.44440  0.81200  Biso   1.000  C
  H21      1.0000 0.72180  0.42300  0.89540  Biso   1.000  H
  C31      1.0000 0.79320  0.43090  0.80500  Biso   1.000  C
  C32      1.0000 0.82780  0.46290  0.68000  Biso   1.000  C
  H22      1.0000 0.86010  0.45380  0.67530  Biso   1.000  H
  C33      1.0000 0.81420  0.50830  0.56100  Biso   1.000  C
  H23      1.0000 0.83740  0.52970  0.47720  Biso   1.000  H
  C34      1.0000 0.76600  0.52180  0.56800  Biso   1.000  C
  C35      1.0000 0.73140  0.48990  0.69300  Biso   1.000  C
  H24      1.0000 0.69910  0.49890  0.69730  Biso   1.000  H
  C36      1.0000 0.80740  0.38120  0.93500  Biso   1.000  C
  O8       1.0000 0.84180  0.36260  0.73900  Biso   1.000  O
  Zn3      1.0000 0.71692  0.78586  0.86890  Biso   1.000  Zn
  O9       1.0000 0.78350  0.74520  0.89800  Biso   1.000  O
  H25      1.0000 0.80620  0.73310  0.77500  Biso   1.000  H
  N5       1.0000 0.74030  0.85440  0.81400  Biso   1.000  N
  C37      1.0000 0.72060  0.89160  0.96900  Biso   1.000  C
  H26      1.0000 0.69100  0.89020  0.08380  Biso   1.000  H
  N6       1.0000 0.74730  0.93260  0.94800  Biso   1.000  N
  C38      1.0000 0.78570  0.87080  0.67000  Biso   1.000  C
  O10      1.0000 0.72220  0.14210  0.57300  Biso   1.000  O
  C39      1.0000 0.82150  0.84760  0.48000  Biso   1.000  C
  H27      1.0000 0.81870  0.81510  0.42330  Biso   1.000  H
  O11      1.0000 0.65520  0.12320  0.64500  Biso   1.000  O
  C40      1.0000 0.86170  0.87350  0.37800  Biso   1.000  C
  C41      1.0000 0.89860  0.85250  0.18600  Biso   1.000  C
  H28      1.0000 0.89610  0.82010  0.12670  Biso   1.000  H
  C42      1.0000 0.93910  0.87750  0.08000  Biso   1.000  C
  H29      1.0000 0.96360  0.86270  0.95200  Biso   1.000  H
  C43      1.0000 0.94150  0.92580  0.17200  Biso   1.000  C
  H30      1.0000 0.96820  0.94400  0.10580  Biso   1.000  H
  C44      1.0000 0.90450  0.94720  0.36100  Biso   1.000  C
  H31      1.0000 0.90680  0.97970  0.41760  Biso   1.000  H
  C45      1.0000 0.86410  0.92190  0.46900  Biso   1.000  C
  C46      1.0000 0.82850  0.94560  0.65900  Biso   1.000  C
  H32      1.0000 0.83150  0.97810  0.71630  Biso   1.000  H
  C47      1.0000 0.78840  0.91930  0.76200  Biso   1.000  C
  C48      1.0000 0.75500  0.05560  0.31200  Biso   1.000  C
  H33      1.0000 0.77820  0.07700  0.39540  Biso   1.000  H
  C49      1.0000 0.70680  0.06910  0.30500  Biso   1.000  C
  C50      1.0000 0.67220  0.03710  0.18000  Biso   1.000  C
  H34      1.0000 0.63990  0.04620  0.17530  Biso   1.000  H
  C51      1.0000 0.68580  0.99170  0.06100  Biso   1.000  C
  H35      1.0000 0.66260  0.97030  0.97720  Biso   1.000  H
  C52      1.0000 0.73400  0.97820  0.06800  Biso   1.000  C
  C53      1.0000 0.76860  0.01010  0.19300  Biso   1.000  C
  H36      1.0000 0.80090  0.00110  0.19730  Biso   1.000  H
  C54      1.0000 0.69260  0.11880  0.43500  Biso   1.000  C
  O12      1.0000 0.65820  0.13740  0.23900  Biso   1.000  O
  Zn4      1.0000 0.21692  0.28586  0.36890  Biso   1.000  Zn
  O13      1.0000 0.28350  0.24520  0.39800  Biso   1.000  O
  H37      1.0000 0.30620  0.23310  0.27500  Biso   1.000  H
  N7       1.0000 0.24030  0.35440  0.31400  Biso   1.000  N
  C55      1.0000 0.22060  0.39160  0.46900  Biso   1.000  C
  H38      1.0000 0.19100  0.39020  0.58380  Biso   1.000  H
  N8       1.0000 0.24730  0.43260  0.44800  Biso   1.000  N
  C56      1.0000 0.28570  0.37080  0.17000  Biso   1.000  C
  O14      1.0000 0.22220  0.64210  0.07300  Biso   1.000  O
  C57      1.0000 0.32150  0.34760  0.98000  Biso   1.000  C
  H39      1.0000 0.31870  0.31510  0.92330  Biso   1.000  H
  O15      1.0000 0.15520  0.62320  0.14500  Biso   1.000  O
  C58      1.0000 0.36170  0.37350  0.87800  Biso   1.000  C
  C59      1.0000 0.39860  0.35250  0.68600  Biso   1.000  C
  H40      1.0000 0.39610  0.32010  0.62670  Biso   1.000  H
  C60      1.0000 0.43910  0.37750  0.58000  Biso   1.000  C
  H41      1.0000 0.46360  0.36270  0.45200  Biso   1.000  H
  C61      1.0000 0.44150  0.42580  0.67200  Biso   1.000  C
  H42      1.0000 0.46820  0.44400  0.60580  Biso   1.000  H
  C62      1.0000 0.40450  0.44720  0.86100  Biso   1.000  C
  H43      1.0000 0.40680  0.47970  0.91760  Biso   1.000  H
  C63      1.0000 0.36410  0.42190  0.96900  Biso   1.000  C
  C64      1.0000 0.32850  0.44560  0.15900  Biso   1.000  C
  H44      1.0000 0.33150  0.47810  0.21630  Biso   1.000  H
  C65      1.0000 0.28840  0.41930  0.26200  Biso   1.000  C
  C66      1.0000 0.25500  0.55560  0.81200  Biso   1.000  C
  H45      1.0000 0.27820  0.57700  0.89540  Biso   1.000  H
  C67      1.0000 0.20680  0.56910  0.80500  Biso   1.000  C
  C68      1.0000 0.17220  0.53710  0.68000  Biso   1.000  C
  H46      1.0000 0.13990  0.54620  0.67530  Biso   1.000  H
  C69      1.0000 0.18580  0.49170  0.56100  Biso   1.000  C
  H47      1.0000 0.16260  0.47030  0.47720  Biso   1.000  H
  C70      1.0000 0.23400  0.47820  0.56800  Biso   1.000  C
  C71      1.0000 0.26860  0.51010  0.69300  Biso   1.000  C
  H48      1.0000 0.30090  0.50110  0.69730  Biso   1.000  H
  C72      1.0000 0.19260  0.61880  0.93500  Biso   1.000  C
  O16      1.0000 0.15820  0.63740  0.73900  Biso   1.000  O
  Zn5      1.0000 0.21414  0.71692  0.13110  Biso   1.000  Zn
  O17      1.0000 0.25480  0.78350  0.10200  Biso   1.000  O
  H49      1.0000 0.26690  0.80620  0.22500  Biso   1.000  H
  N9       1.0000 0.14560  0.74030  0.18600  Biso   1.000  N
  C73      1.0000 0.10840  0.72060  0.03100  Biso   1.000  C
  H50      1.0000 0.10980  0.69100  0.91620  Biso   1.000  H
  N10      1.0000 0.06740  0.74730  0.05200  Biso   1.000  N
  C74      1.0000 0.12920  0.78570  0.33000  Biso   1.000  C
  O18      1.0000 0.85790  0.72220  0.42700  Biso   1.000  O
  C75      1.0000 0.15240  0.82150  0.52000  Biso   1.000  C
  H51      1.0000 0.18490  0.81870  0.57670  Biso   1.000  H
  O19      1.0000 0.87680  0.65520  0.35500  Biso   1.000  O
  C76      1.0000 0.12650  0.86170  0.62200  Biso   1.000  C
  C77      1.0000 0.14750  0.89860  0.81400  Biso   1.000  C
  H52      1.0000 0.17990  0.89610  0.87330  Biso   1.000  H
  C78      1.0000 0.12250  0.93910  0.92000  Biso   1.000  C
  H53      1.0000 0.13730  0.96360  0.04800  Biso   1.000  H
  C79      1.0000 0.07420  0.94150  0.82800  Biso   1.000  C
  H54      1.0000 0.05600  0.96820  0.89420  Biso   1.000  H
  C80      1.0000 0.05280  0.90450  0.63900  Biso   1.000  C
  H55      1.0000 0.02030  0.90680  0.58240  Biso   1.000  H
  C81      1.0000 0.07810  0.86410  0.53100  Biso   1.000  C
  C82      1.0000 0.05440  0.82850  0.34100  Biso   1.000  C
  H56      1.0000 0.02190  0.83150  0.28370  Biso   1.000  H
  C83      1.0000 0.08070  0.78840  0.23800  Biso   1.000  C
  C84      1.0000 0.94440  0.75500  0.68800  Biso   1.000  C
  H57      1.0000 0.92300  0.77820  0.60460  Biso   1.000  H
  C85      1.0000 0.93090  0.70680  0.69500  Biso   1.000  C
  C86      1.0000 0.96290  0.67220  0.82000  Biso   1.000  C
  H58      1.0000 0.95380  0.63990  0.82470  Biso   1.000  H
  C87      1.0000 0.00830  0.68580  0.93900  Biso   1.000  C
  H59      1.0000 0.02970  0.66260  0.02280  Biso   1.000  H
  C88      1.0000 0.02180  0.73400  0.93200  Biso   1.000  C
  C89      1.0000 0.98990  0.76860  0.80700  Biso   1.000  C
  H60      1.0000 0.99890  0.80090  0.80270  Biso   1.000  H
  C90      1.0000 0.88120  0.69260  0.56500  Biso   1.000  C
  O20      1.0000 0.86260  0.65820  0.76100  Biso   1.000  O
  Zn6      1.0000 0.71414  0.21692  0.63110  Biso   1.000  Zn
  O21      1.0000 0.75480  0.28350  0.60200  Biso   1.000  O
  H61      1.0000 0.76690  0.30620  0.72500  Biso   1.000  H
  N11      1.0000 0.64560  0.24030  0.68600  Biso   1.000  N
  C91      1.0000 0.60840  0.22060  0.53100  Biso   1.000  C
  H62      1.0000 0.60980  0.19100  0.41620  Biso   1.000  H
  N12      1.0000 0.56740  0.24730  0.55200  Biso   1.000  N
  C92      1.0000 0.62920  0.28570  0.83000  Biso   1.000  C
  O22      1.0000 0.35790  0.22220  0.92700  Biso   1.000  O
  C93      1.0000 0.65240  0.32150  0.02000  Biso   1.000  C
  H63      1.0000 0.68490  0.31870  0.07670  Biso   1.000  H
  O23      1.0000 0.37680  0.15520  0.85500  Biso   1.000  O
  C94      1.0000 0.62650  0.36170  0.12200  Biso   1.000  C
  C95      1.0000 0.64750  0.39860  0.31400  Biso   1.000  C
  H64      1.0000 0.67990  0.39610  0.37330  Biso   1.000  H
  C96      1.0000 0.62250  0.43910  0.42000  Biso   1.000  C
  H65      1.0000 0.63730  0.46360  0.54800  Biso   1.000  H
  C97      1.0000 0.57420  0.44150  0.32800  Biso   1.000  C
  H66      1.0000 0.55600  0.46820  0.39420  Biso   1.000  H
  C98      1.0000 0.55280  0.40450  0.13900  Biso   1.000  C
  H67      1.0000 0.52030  0.40680  0.08240  Biso   1.000  H
  C99      1.0000 0.57810  0.36410  0.03100  Biso   1.000  C
  C100     1.0000 0.55440  0.32850  0.84100  Biso   1.000  C
  H68      1.0000 0.52190  0.33150  0.78370  Biso   1.000  H
  C101     1.0000 0.58070  0.28840  0.73800  Biso   1.000  C
  C102     1.0000 0.44440  0.25500  0.18800  Biso   1.000  C
  H69      1.0000 0.42300  0.27820  0.10460  Biso   1.000  H
  C103     1.0000 0.43090  0.20680  0.19500  Biso   1.000  C
  C104     1.0000 0.46290  0.17220  0.32000  Biso   1.000  C
  H70      1.0000 0.45380  0.13990  0.32470  Biso   1.000  H
  C105     1.0000 0.50830  0.18580  0.43900  Biso   1.000  C
  H71      1.0000 0.52970  0.16260  0.52280  Biso   1.000  H
  C106     1.0000 0.52180  0.23400  0.43200  Biso   1.000  C
  C107     1.0000 0.48990  0.26860  0.30700  Biso   1.000  C
  H72      1.0000 0.49890  0.30090  0.30270  Biso   1.000  H
  C108     1.0000 0.38120  0.19260  0.06500  Biso   1.000  C
  O24      1.0000 0.36260  0.15820  0.26100  Biso   1.000  O
  Zn7      1.0000 0.78586  0.28308  0.13110  Biso   1.000  Zn
  O25      1.0000 0.74520  0.21650  0.10200  Biso   1.000  O
  H73      1.0000 0.73310  0.19380  0.22500  Biso   1.000  H
  N13      1.0000 0.85440  0.25970  0.18600  Biso   1.000  N
  C109     1.0000 0.89160  0.27940  0.03100  Biso   1.000  C
  H74      1.0000 0.89020  0.30900  0.91620  Biso   1.000  H
  N14      1.0000 0.93260  0.25270  0.05200  Biso   1.000  N
  C110     1.0000 0.87080  0.21430  0.33000  Biso   1.000  C
  O26      1.0000 0.14210  0.27780  0.42700  Biso   1.000  O
  C111     1.0000 0.84760  0.17850  0.52000  Biso   1.000  C
  H75      1.0000 0.81510  0.18130  0.57670  Biso   1.000  H
  O27      1.0000 0.12320  0.34480  0.35500  Biso   1.000  O
  C112     1.0000 0.87350  0.13830  0.62200  Biso   1.000  C
  C113     1.0000 0.85250  0.10140  0.81400  Biso   1.000  C
  H76      1.0000 0.82010  0.10390  0.87330  Biso   1.000  H
  C114     1.0000 0.87750  0.06090  0.92000  Biso   1.000  C
  H77      1.0000 0.86270  0.03640  0.04800  Biso   1.000  H
  C115     1.0000 0.92580  0.05850  0.82800  Biso   1.000  C
  H78      1.0000 0.94400  0.03180  0.89420  Biso   1.000  H
  C116     1.0000 0.94720  0.09550  0.63900  Biso   1.000  C
  H79      1.0000 0.97970  0.09320  0.58240  Biso   1.000  H
  C117     1.0000 0.92190  0.13590  0.53100  Biso   1.000  C
  C118     1.0000 0.94560  0.17150  0.34100  Biso   1.000  C
  H80      1.0000 0.97810  0.16850  0.28370  Biso   1.000  H
  C119     1.0000 0.91930  0.21160  0.23800  Biso   1.000  C
  C120     1.0000 0.05560  0.24500  0.68800  Biso   1.000  C
  H81      1.0000 0.07700  0.22180  0.60460  Biso   1.000  H
  C121     1.0000 0.06910  0.29320  0.69500  Biso   1.000  C
  C122     1.0000 0.03710  0.32780  0.82000  Biso   1.000  C
  H82      1.0000 0.04620  0.36010  0.82470  Biso   1.000  H
  C123     1.0000 0.99170  0.31420  0.93900  Biso   1.000  C
  H83      1.0000 0.97030  0.33740  0.02280  Biso   1.000  H
  C124     1.0000 0.97820  0.26600  0.93200  Biso   1.000  C
  C125     1.0000 0.01010  0.23140  0.80700  Biso   1.000  C
  H84      1.0000 0.00110  0.19910  0.80270  Biso   1.000  H
  C126     1.0000 0.11880  0.30740  0.56500  Biso   1.000  C
  O28      1.0000 0.13740  0.34180  0.76100  Biso   1.000  O
  Zn8      1.0000 0.28586  0.78308  0.63110  Biso   1.000  Zn
  O29      1.0000 0.24520  0.71650  0.60200  Biso   1.000  O
  H85      1.0000 0.23310  0.69380  0.72500  Biso   1.000  H
  N15      1.0000 0.35440  0.75970  0.68600  Biso   1.000  N
  C127     1.0000 0.39160  0.77940  0.53100  Biso   1.000  C
  H86      1.0000 0.39020  0.80900  0.41620  Biso   1.000  H
  N16      1.0000 0.43260  0.75270  0.55200  Biso   1.000  N
  C128     1.0000 0.37080  0.71430  0.83000  Biso   1.000  C
  O30      1.0000 0.64210  0.77780  0.92700  Biso   1.000  O
  C129     1.0000 0.34760  0.67850  0.02000  Biso   1.000  C
  H87      1.0000 0.31510  0.68130  0.07670  Biso   1.000  H
  O31      1.0000 0.62320  0.84480  0.85500  Biso   1.000  O
  C130     1.0000 0.37350  0.63830  0.12200  Biso   1.000  C
  C131     1.0000 0.35250  0.60140  0.31400  Biso   1.000  C
  H88      1.0000 0.32010  0.60390  0.37330  Biso   1.000  H
  C132     1.0000 0.37750  0.56090  0.42000  Biso   1.000  C
  H89      1.0000 0.36270  0.53640  0.54800  Biso   1.000  H
  C133     1.0000 0.42580  0.55850  0.32800  Biso   1.000  C
  H90      1.0000 0.44400  0.53180  0.39420  Biso   1.000  H
  C134     1.0000 0.44720  0.59550  0.13900  Biso   1.000  C
  H91      1.0000 0.47970  0.59320  0.08240  Biso   1.000  H
  C135     1.0000 0.42190  0.63590  0.03100  Biso   1.000  C
  C136     1.0000 0.44560  0.67150  0.84100  Biso   1.000  C
  H92      1.0000 0.47810  0.66850  0.78370  Biso   1.000  H
  C137     1.0000 0.41930  0.71160  0.73800  Biso   1.000  C
  C138     1.0000 0.55560  0.74500  0.18800  Biso   1.000  C
  H93      1.0000 0.57700  0.72180  0.10460  Biso   1.000  H
  C139     1.0000 0.56910  0.79320  0.19500  Biso   1.000  C
  C140     1.0000 0.53710  0.82780  0.32000  Biso   1.000  C
  H94      1.0000 0.54620  0.86010  0.32470  Biso   1.000  H
  C141     1.0000 0.49170  0.81420  0.43900  Biso   1.000  C
  H95      1.0000 0.47030  0.83740  0.52280  Biso   1.000  H
  C142     1.0000 0.47820  0.76600  0.43200  Biso   1.000  C
  C143     1.0000 0.51010  0.73140  0.30700  Biso   1.000  C
  H96      1.0000 0.50110  0.69910  0.30270  Biso   1.000  H
  C144     1.0000 0.61880  0.80740  0.06500  Biso   1.000  C
  O32      1.0000 0.63740  0.84180  0.26100  Biso   1.000  O
