data_image0
_cell_length_a       6.9128
_cell_length_b       9.24
_cell_length_c       16.095
_cell_angle_alpha    90
_cell_angle_beta     90
_cell_angle_gamma    90

_symmetry_space_group_name_H-M    P 1
_symmetry_int_tables_number       1

loop_
  _symmetry_equiv_pos_as_xyz
  'x, y, z'

loop_
  _atom_site_label
  _atom_site_occupancy
  _atom_site_fract_x
  _atom_site_fract_y
  _atom_site_fract_z
  _atom_site_thermal_displace_type
  _atom_site_B_iso_or_equiv
  _atom_site_type_symbol
  Mn1      1.0000 0.75000  0.19779  0.16521  Biso   1.000  Mn
  Mn2      1.0000 0.25000  0.30221  0.66521  Biso   1.000  Mn
  Mn3      1.0000 0.25000  0.80221  0.83479  Biso   1.000  Mn
  Mn4      1.0000 0.75000  0.69779  0.33479  Biso   1.000  Mn
  Mn5      1.0000 0.50000  0.50000  0.50000  Biso   1.000  Mn
  Mn6      1.0000 0.50000  0.00000  0.00000  Biso   1.000  Mn
  Mn7      1.0000 0.00000  0.50000  0.50000  Biso   1.000  Mn
  Mn8      1.0000 0.00000  0.00000  0.00000  Biso   1.000  Mn
  H1       1.0000 0.14230  0.36670  0.28790  Biso   1.000  H
  H2       1.0000 0.85770  0.13330  0.78790  Biso   1.000  H
  H3       1.0000 0.64230  0.63330  0.71210  Biso   1.000  H
  H4       1.0000 0.35770  0.86670  0.21210  Biso   1.000  H
  H5       1.0000 0.85770  0.63330  0.71210  Biso   1.000  H
  H6       1.0000 0.14230  0.86670  0.21210  Biso   1.000  H
  H7       1.0000 0.35770  0.36670  0.28790  Biso   1.000  H
  H8       1.0000 0.64230  0.13330  0.78790  Biso   1.000  H
  H9       1.0000 0.75000  0.20500  0.00900  Biso   1.000  H
  H10      1.0000 0.75000  0.49600  0.15600  Biso   1.000  H
  H11      1.0000 0.75000  0.44600  0.07680  Biso   1.000  H
  H12      1.0000 0.25000  0.29500  0.50900  Biso   1.000  H
  H13      1.0000 0.25000  0.00400  0.65600  Biso   1.000  H
  H14      1.0000 0.25000  0.05400  0.57680  Biso   1.000  H
  H15      1.0000 0.25000  0.79500  0.99100  Biso   1.000  H
  H16      1.0000 0.25000  0.50400  0.84400  Biso   1.000  H
  H17      1.0000 0.25000  0.55400  0.92320  Biso   1.000  H
  H18      1.0000 0.75000  0.70500  0.49100  Biso   1.000  H
  H19      1.0000 0.75000  0.99600  0.34400  Biso   1.000  H
  H20      1.0000 0.75000  0.94600  0.42320  Biso   1.000  H
  C1       1.0000 0.25000  0.24700  0.20040  Biso   1.000  C
  C2       1.0000 0.75000  0.25300  0.70040  Biso   1.000  C
  C3       1.0000 0.75000  0.75300  0.79960  Biso   1.000  C
  C4       1.0000 0.25000  0.74700  0.29960  Biso   1.000  C
  S1       1.0000 0.75000  0.33681  0.35526  Biso   1.000  S
  S2       1.0000 0.25000  0.16319  0.85526  Biso   1.000  S
  S3       1.0000 0.25000  0.66319  0.64474  Biso   1.000  S
  S4       1.0000 0.75000  0.83681  0.14474  Biso   1.000  S
  N1       1.0000 0.34340  0.11870  0.10019  Biso   1.000  N
  N2       1.0000 0.41100  0.19880  0.16298  Biso   1.000  N
  N3       1.0000 0.65660  0.38130  0.60019  Biso   1.000  N
  N4       1.0000 0.58900  0.30120  0.66298  Biso   1.000  N
  N5       1.0000 0.84340  0.88130  0.89981  Biso   1.000  N
  N6       1.0000 0.91100  0.80120  0.83702  Biso   1.000  N
  N7       1.0000 0.15660  0.61870  0.39981  Biso   1.000  N
  N8       1.0000 0.08900  0.69880  0.33702  Biso   1.000  N
  N9       1.0000 0.65660  0.88130  0.89981  Biso   1.000  N
  N10      1.0000 0.58900  0.80120  0.83702  Biso   1.000  N
  N11      1.0000 0.34340  0.61870  0.39981  Biso   1.000  N
  N12      1.0000 0.41100  0.69880  0.33702  Biso   1.000  N
  N13      1.0000 0.15660  0.11870  0.10019  Biso   1.000  N
  N14      1.0000 0.08900  0.19880  0.16298  Biso   1.000  N
  N15      1.0000 0.84340  0.38130  0.60019  Biso   1.000  N
  N16      1.0000 0.91100  0.30120  0.66298  Biso   1.000  N
  N17      1.0000 0.25000  0.33720  0.26720  Biso   1.000  N
  N18      1.0000 0.75000  0.16280  0.76720  Biso   1.000  N
  N19      1.0000 0.75000  0.66280  0.73280  Biso   1.000  N
  N20      1.0000 0.25000  0.83720  0.23280  Biso   1.000  N
  O1       1.0000 0.57660  0.33230  0.40792  Biso   1.000  O
  O2       1.0000 0.42340  0.16770  0.90792  Biso   1.000  O
  O3       1.0000 0.07660  0.66770  0.59208  Biso   1.000  O
  O4       1.0000 0.92340  0.83230  0.09208  Biso   1.000  O
  O5       1.0000 0.42340  0.66770  0.59208  Biso   1.000  O
  O6       1.0000 0.57660  0.83230  0.09208  Biso   1.000  O
  O7       1.0000 0.92340  0.33230  0.40792  Biso   1.000  O
  O8       1.0000 0.07660  0.16770  0.90792  Biso   1.000  O
  O9       1.0000 0.75000  0.46920  0.30460  Biso   1.000  O
  O10      1.0000 0.75000  0.21070  0.29920  Biso   1.000  O
  O11      1.0000 0.75000  0.12620  0.03498  Biso   1.000  O
  O12      1.0000 0.75000  0.42220  0.12640  Biso   1.000  O
  O13      1.0000 0.25000  0.03080  0.80460  Biso   1.000  O
  O14      1.0000 0.25000  0.28930  0.79920  Biso   1.000  O
  O15      1.0000 0.25000  0.37380  0.53498  Biso   1.000  O
  O16      1.0000 0.25000  0.07780  0.62640  Biso   1.000  O
  O17      1.0000 0.25000  0.53080  0.69540  Biso   1.000  O
  O18      1.0000 0.25000  0.78930  0.70080  Biso   1.000  O
  O19      1.0000 0.25000  0.87380  0.96502  Biso   1.000  O
  O20      1.0000 0.25000  0.57780  0.87360  Biso   1.000  O
  O21      1.0000 0.75000  0.96920  0.19540  Biso   1.000  O
  O22      1.0000 0.75000  0.71070  0.20080  Biso   1.000  O
  O23      1.0000 0.75000  0.62620  0.46502  Biso   1.000  O
  O24      1.0000 0.75000  0.92220  0.37360  Biso   1.000  O
