data_image0
_cell_length_a       17.7658
_cell_length_b       17.7658
_cell_length_c       17.7658
_cell_angle_alpha    90
_cell_angle_beta     90
_cell_angle_gamma    90

_symmetry_space_group_name_H-M    "P 1"
_symmetry_int_tables_number       1

loop_
  _symmetry_equiv_pos_as_xyz
  'x, y, z'

loop_
  _atom_site_label
  _atom_site_occupancy
  _atom_site_fract_x
  _atom_site_fract_y
  _atom_site_fract_z
  _atom_site_thermal_displace_type
  _atom_site_B_iso_or_equiv
  _atom_site_type_symbol
  C1       1.0000 0.46457  0.75577  0.65706  Biso   1.000  C
  C2       1.0000 0.55779  0.65880  0.65908  Biso   1.000  C
  C3       1.0000 0.49499  0.69276  0.69060  Biso   1.000  C
  O1       1.0000 0.40730  0.79113  0.68152  Biso   1.000  O
  H1       1.0000 0.46858  0.66892  0.74382  Biso   1.000  H
  C4       1.0000 0.03543  0.24423  0.15706  Biso   1.000  C
  C5       1.0000 0.94221  0.34120  0.15908  Biso   1.000  C
  C6       1.0000 0.00501  0.30724  0.19060  Biso   1.000  C
  O2       1.0000 0.09270  0.20887  0.18152  Biso   1.000  O
  H2       1.0000 0.03142  0.33108  0.24382  Biso   1.000  H
  C7       1.0000 0.53543  0.25577  0.84294  Biso   1.000  C
  C8       1.0000 0.44221  0.15880  0.84092  Biso   1.000  C
  C9       1.0000 0.50501  0.19276  0.80940  Biso   1.000  C
  O3       1.0000 0.59270  0.29113  0.81848  Biso   1.000  O
  H3       1.0000 0.53142  0.16892  0.75618  Biso   1.000  H
  C10      1.0000 0.96457  0.74423  0.34294  Biso   1.000  C
  C11      1.0000 0.05779  0.84120  0.34092  Biso   1.000  C
  C12      1.0000 0.99499  0.80724  0.30940  Biso   1.000  C
  O4       1.0000 0.90730  0.70887  0.31848  Biso   1.000  O
  H4       1.0000 0.96858  0.83108  0.25618  Biso   1.000  H
  C13      1.0000 0.65706  0.46457  0.75577  Biso   1.000  C
  C14      1.0000 0.65908  0.55779  0.65880  Biso   1.000  C
  C15      1.0000 0.69060  0.49499  0.69276  Biso   1.000  C
  O5       1.0000 0.68152  0.40730  0.79113  Biso   1.000  O
  H5       1.0000 0.74382  0.46858  0.66892  Biso   1.000  H
  C16      1.0000 0.15706  0.03543  0.24423  Biso   1.000  C
  C17      1.0000 0.15908  0.94221  0.34120  Biso   1.000  C
  C18      1.0000 0.19060  0.00501  0.30724  Biso   1.000  C
  O6       1.0000 0.18152  0.09270  0.20887  Biso   1.000  O
  H6       1.0000 0.24382  0.03142  0.33108  Biso   1.000  H
  C19      1.0000 0.84294  0.53543  0.25577  Biso   1.000  C
  C20      1.0000 0.84092  0.44221  0.15880  Biso   1.000  C
  C21      1.0000 0.80940  0.50501  0.19276  Biso   1.000  C
  O7       1.0000 0.81848  0.59270  0.29113  Biso   1.000  O
  H7       1.0000 0.75618  0.53142  0.16892  Biso   1.000  H
  C22      1.0000 0.34294  0.96457  0.74423  Biso   1.000  C
  C23      1.0000 0.34092  0.05779  0.84120  Biso   1.000  C
  C24      1.0000 0.30940  0.99499  0.80724  Biso   1.000  C
  O8       1.0000 0.31848  0.90730  0.70887  Biso   1.000  O
  H8       1.0000 0.25618  0.96858  0.83108  Biso   1.000  H
  C25      1.0000 0.75577  0.65706  0.46457  Biso   1.000  C
  C26      1.0000 0.65880  0.65908  0.55779  Biso   1.000  C
  C27      1.0000 0.69276  0.69060  0.49499  Biso   1.000  C
  O9       1.0000 0.79113  0.68152  0.40730  Biso   1.000  O
  H9       1.0000 0.66892  0.74382  0.46858  Biso   1.000  H
  C28      1.0000 0.24423  0.15706  0.03543  Biso   1.000  C
  C29      1.0000 0.34120  0.15908  0.94221  Biso   1.000  C
  C30      1.0000 0.30724  0.19060  0.00501  Biso   1.000  C
  O10      1.0000 0.20887  0.18152  0.09270  Biso   1.000  O
  H10      1.0000 0.33108  0.24382  0.03142  Biso   1.000  H
  C31      1.0000 0.25577  0.84294  0.53543  Biso   1.000  C
  C32      1.0000 0.15880  0.84092  0.44221  Biso   1.000  C
  C33      1.0000 0.19276  0.80940  0.50501  Biso   1.000  C
  O11      1.0000 0.29113  0.81848  0.59270  Biso   1.000  O
  H11      1.0000 0.16892  0.75618  0.53142  Biso   1.000  H
  C34      1.0000 0.74423  0.34294  0.96457  Biso   1.000  C
  C35      1.0000 0.84120  0.34092  0.05779  Biso   1.000  C
  C36      1.0000 0.80724  0.30940  0.99499  Biso   1.000  C
  O12      1.0000 0.70887  0.31848  0.90730  Biso   1.000  O
  H12      1.0000 0.83108  0.25618  0.96858  Biso   1.000  H
  C37      1.0000 0.00577  0.21457  0.09294  Biso   1.000  C
  C38      1.0000 0.90880  0.30779  0.09092  Biso   1.000  C
  C39      1.0000 0.94276  0.24499  0.05940  Biso   1.000  C
  O13      1.0000 0.04113  0.15730  0.06848  Biso   1.000  O
  H13      1.0000 0.91892  0.21858  0.00618  Biso   1.000  H
  C40      1.0000 0.49423  0.78543  0.59294  Biso   1.000  C
  C41      1.0000 0.59120  0.69221  0.59092  Biso   1.000  C
  C42      1.0000 0.55724  0.75501  0.55940  Biso   1.000  C
  O14      1.0000 0.45887  0.84270  0.56848  Biso   1.000  O
  H14      1.0000 0.58108  0.78142  0.50618  Biso   1.000  H
  C43      1.0000 0.50577  0.28543  0.90706  Biso   1.000  C
  C44      1.0000 0.40880  0.19221  0.90908  Biso   1.000  C
  C45      1.0000 0.44276  0.25501  0.94060  Biso   1.000  C
  O15      1.0000 0.54113  0.34270  0.93152  Biso   1.000  O
  H15      1.0000 0.41892  0.28142  0.99382  Biso   1.000  H
  C46      1.0000 0.99423  0.71457  0.40706  Biso   1.000  C
  C47      1.0000 0.09120  0.80779  0.40908  Biso   1.000  C
  C48      1.0000 0.05724  0.74499  0.44060  Biso   1.000  C
  O16      1.0000 0.95887  0.65730  0.43152  Biso   1.000  O
  H16      1.0000 0.08108  0.71858  0.49382  Biso   1.000  H
  C49      1.0000 0.71457  0.40706  0.99423  Biso   1.000  C
  C50      1.0000 0.80779  0.40908  0.09120  Biso   1.000  C
  C51      1.0000 0.74499  0.44060  0.05724  Biso   1.000  C
  O17      1.0000 0.65730  0.43152  0.95887  Biso   1.000  O
  H17      1.0000 0.71858  0.49382  0.08108  Biso   1.000  H
  C52      1.0000 0.28543  0.90706  0.50577  Biso   1.000  C
  C53      1.0000 0.19221  0.90908  0.40880  Biso   1.000  C
  C54      1.0000 0.25501  0.94060  0.44276  Biso   1.000  C
  O18      1.0000 0.34270  0.93152  0.54113  Biso   1.000  O
  H18      1.0000 0.28142  0.99382  0.41892  Biso   1.000  H
  C55      1.0000 0.78543  0.59294  0.49423  Biso   1.000  C
  C56      1.0000 0.69221  0.59092  0.59120  Biso   1.000  C
  C57      1.0000 0.75501  0.55940  0.55724  Biso   1.000  C
  O19      1.0000 0.84270  0.56848  0.45887  Biso   1.000  O
  H19      1.0000 0.78142  0.50618  0.58108  Biso   1.000  H
  C58      1.0000 0.21457  0.09294  0.00577  Biso   1.000  C
  C59      1.0000 0.30779  0.09092  0.90880  Biso   1.000  C
  C60      1.0000 0.24499  0.05940  0.94276  Biso   1.000  C
  O20      1.0000 0.15730  0.06848  0.04113  Biso   1.000  O
  H20      1.0000 0.21858  0.00618  0.91892  Biso   1.000  H
  C61      1.0000 0.90706  0.50577  0.28543  Biso   1.000  C
  C62      1.0000 0.90908  0.40880  0.19221  Biso   1.000  C
  C63      1.0000 0.94060  0.44276  0.25501  Biso   1.000  C
  O21      1.0000 0.93152  0.54113  0.34270  Biso   1.000  O
  H21      1.0000 0.99382  0.41892  0.28142  Biso   1.000  H
  C64      1.0000 0.40706  0.99423  0.71457  Biso   1.000  C
  C65      1.0000 0.40908  0.09120  0.80779  Biso   1.000  C
  C66      1.0000 0.44060  0.05724  0.74499  Biso   1.000  C
  O22      1.0000 0.43152  0.95887  0.65730  Biso   1.000  O
  H22      1.0000 0.49382  0.08108  0.71858  Biso   1.000  H
  C67      1.0000 0.09294  0.00577  0.21457  Biso   1.000  C
  C68      1.0000 0.09092  0.90880  0.30779  Biso   1.000  C
  C69      1.0000 0.05940  0.94276  0.24499  Biso   1.000  C
  O23      1.0000 0.06848  0.04113  0.15730  Biso   1.000  O
  H23      1.0000 0.00618  0.91892  0.21858  Biso   1.000  H
  C70      1.0000 0.59294  0.49423  0.78543  Biso   1.000  C
  C71      1.0000 0.59092  0.59120  0.69221  Biso   1.000  C
  C72      1.0000 0.55940  0.55724  0.75501  Biso   1.000  C
  O24      1.0000 0.56848  0.45887  0.84270  Biso   1.000  O
  H24      1.0000 0.50618  0.58108  0.78142  Biso   1.000  H
  V1       1.0000 0.87500  0.62500  0.37500  Biso   1.000  V
  V2       1.0000 0.62500  0.37500  0.87500  Biso   1.000  V
  V3       1.0000 0.12500  0.12500  0.12500  Biso   1.000  V
  V4       1.0000 0.37500  0.87500  0.62500  Biso   1.000  V
