data_image0
_cell_length_a       17.996
_cell_length_b       17.996
_cell_length_c       17.996
_cell_angle_alpha    90
_cell_angle_beta     90
_cell_angle_gamma    90

_symmetry_space_group_name_H-M    "P 1"
_symmetry_int_tables_number       1

loop_
  _symmetry_equiv_pos_as_xyz
  'x, y, z'

loop_
  _atom_site_label
  _atom_site_occupancy
  _atom_site_fract_x
  _atom_site_fract_y
  _atom_site_fract_z
  _atom_site_thermal_displace_type
  _atom_site_B_iso_or_equiv
  _atom_site_type_symbol
  C1       1.0000 0.24919  0.55749  0.94459  Biso   1.000  C
  C2       1.0000 0.18915  0.59228  0.90749  Biso   1.000  C
  C3       1.0000 0.28168  0.58996  0.00771  Biso   1.000  C
  C4       1.0000 0.19539  0.69272  0.99869  Biso   1.000  C
  C5       1.0000 0.15818  0.65812  0.93860  Biso   1.000  C
  C6       1.0000 0.25845  0.66006  0.03109  Biso   1.000  C
  O1       1.0000 0.29891  0.69599  0.08687  Biso   1.000  O
  O2       1.0000 0.33737  0.55382  0.04811  Biso   1.000  O
  H1       1.0000 0.27186  0.50229  0.92332  Biso   1.000  H
  H2       1.0000 0.17424  0.74792  0.02147  Biso   1.000  H
  C7       1.0000 0.25081  0.44251  0.44459  Biso   1.000  C
  C8       1.0000 0.31085  0.40772  0.40749  Biso   1.000  C
  C9       1.0000 0.21832  0.41004  0.50771  Biso   1.000  C
  C10      1.0000 0.30461  0.30728  0.49869  Biso   1.000  C
  C11      1.0000 0.34182  0.34188  0.43860  Biso   1.000  C
  C12      1.0000 0.24155  0.33994  0.53109  Biso   1.000  C
  O3       1.0000 0.20109  0.30401  0.58687  Biso   1.000  O
  O4       1.0000 0.16263  0.44618  0.54811  Biso   1.000  O
  H3       1.0000 0.22814  0.49771  0.42332  Biso   1.000  H
  H4       1.0000 0.32576  0.25208  0.52147  Biso   1.000  H
  C13      1.0000 0.75081  0.05749  0.55541  Biso   1.000  C
  C14      1.0000 0.81085  0.09228  0.59251  Biso   1.000  C
  C15      1.0000 0.71832  0.08996  0.49229  Biso   1.000  C
  C16      1.0000 0.80461  0.19272  0.50131  Biso   1.000  C
  C17      1.0000 0.84182  0.15812  0.56140  Biso   1.000  C
  C18      1.0000 0.74155  0.16006  0.46891  Biso   1.000  C
  O5       1.0000 0.70109  0.19599  0.41313  Biso   1.000  O
  O6       1.0000 0.66263  0.05382  0.45189  Biso   1.000  O
  H5       1.0000 0.72814  0.00229  0.57668  Biso   1.000  H
  H6       1.0000 0.82576  0.24792  0.47853  Biso   1.000  H
  C19      1.0000 0.74919  0.94251  0.05541  Biso   1.000  C
  C20      1.0000 0.68915  0.90772  0.09251  Biso   1.000  C
  C21      1.0000 0.78168  0.91004  0.99229  Biso   1.000  C
  C22      1.0000 0.69539  0.80728  0.00131  Biso   1.000  C
  C23      1.0000 0.65818  0.84188  0.06140  Biso   1.000  C
  C24      1.0000 0.75845  0.83994  0.96891  Biso   1.000  C
  O7       1.0000 0.79891  0.80401  0.91313  Biso   1.000  O
  O8       1.0000 0.83737  0.94618  0.95189  Biso   1.000  O
  H7       1.0000 0.77186  0.99771  0.07668  Biso   1.000  H
  H8       1.0000 0.67424  0.75208  0.97853  Biso   1.000  H
  C25      1.0000 0.94459  0.24919  0.55749  Biso   1.000  C
  C26      1.0000 0.90749  0.18915  0.59228  Biso   1.000  C
  C27      1.0000 0.00771  0.28168  0.58996  Biso   1.000  C
  C28      1.0000 0.99869  0.19539  0.69272  Biso   1.000  C
  C29      1.0000 0.93860  0.15818  0.65812  Biso   1.000  C
  C30      1.0000 0.03109  0.25845  0.66006  Biso   1.000  C
  O9       1.0000 0.08687  0.29891  0.69599  Biso   1.000  O
  O10      1.0000 0.04811  0.33737  0.55382  Biso   1.000  O
  H9       1.0000 0.92332  0.27186  0.50229  Biso   1.000  H
  H10      1.0000 0.02147  0.17424  0.74792  Biso   1.000  H
  C31      1.0000 0.44459  0.25081  0.44251  Biso   1.000  C
  C32      1.0000 0.40749  0.31085  0.40772  Biso   1.000  C
  C33      1.0000 0.50771  0.21832  0.41004  Biso   1.000  C
  C34      1.0000 0.49869  0.30461  0.30728  Biso   1.000  C
  C35      1.0000 0.43860  0.34182  0.34188  Biso   1.000  C
  C36      1.0000 0.53109  0.24155  0.33994  Biso   1.000  C
  O11      1.0000 0.58687  0.20109  0.30401  Biso   1.000  O
  O12      1.0000 0.54811  0.16263  0.44618  Biso   1.000  O
  H11      1.0000 0.42332  0.22814  0.49771  Biso   1.000  H
  H12      1.0000 0.52147  0.32576  0.25208  Biso   1.000  H
  C37      1.0000 0.55541  0.75081  0.05749  Biso   1.000  C
  C38      1.0000 0.59251  0.81085  0.09228  Biso   1.000  C
  C39      1.0000 0.49229  0.71832  0.08996  Biso   1.000  C
  C40      1.0000 0.50131  0.80461  0.19272  Biso   1.000  C
  C41      1.0000 0.56140  0.84182  0.15812  Biso   1.000  C
  C42      1.0000 0.46891  0.74155  0.16006  Biso   1.000  C
  O13      1.0000 0.41313  0.70109  0.19599  Biso   1.000  O
  O14      1.0000 0.45189  0.66263  0.05382  Biso   1.000  O
  H13      1.0000 0.57668  0.72814  0.00229  Biso   1.000  H
  H14      1.0000 0.47853  0.82576  0.24792  Biso   1.000  H
  C43      1.0000 0.05541  0.74919  0.94251  Biso   1.000  C
  C44      1.0000 0.09251  0.68915  0.90772  Biso   1.000  C
  C45      1.0000 0.99229  0.78168  0.91004  Biso   1.000  C
  C46      1.0000 0.00131  0.69539  0.80728  Biso   1.000  C
  C47      1.0000 0.06140  0.65818  0.84188  Biso   1.000  C
  C48      1.0000 0.96891  0.75845  0.83994  Biso   1.000  C
  O15      1.0000 0.91313  0.79891  0.80401  Biso   1.000  O
  O16      1.0000 0.95189  0.83737  0.94618  Biso   1.000  O
  H15      1.0000 0.07668  0.77186  0.99771  Biso   1.000  H
  H16      1.0000 0.97853  0.67424  0.75208  Biso   1.000  H
  C49      1.0000 0.55749  0.94459  0.24919  Biso   1.000  C
  C50      1.0000 0.59228  0.90749  0.18915  Biso   1.000  C
  C51      1.0000 0.58996  0.00771  0.28168  Biso   1.000  C
  C52      1.0000 0.69272  0.99869  0.19539  Biso   1.000  C
  C53      1.0000 0.65812  0.93860  0.15818  Biso   1.000  C
  C54      1.0000 0.66006  0.03109  0.25845  Biso   1.000  C
  O17      1.0000 0.69599  0.08687  0.29891  Biso   1.000  O
  O18      1.0000 0.55382  0.04811  0.33737  Biso   1.000  O
  H17      1.0000 0.50229  0.92332  0.27186  Biso   1.000  H
  H18      1.0000 0.74792  0.02147  0.17424  Biso   1.000  H
  C55      1.0000 0.44251  0.44459  0.25081  Biso   1.000  C
  C56      1.0000 0.40772  0.40749  0.31085  Biso   1.000  C
  C57      1.0000 0.41004  0.50771  0.21832  Biso   1.000  C
  C58      1.0000 0.30728  0.49869  0.30461  Biso   1.000  C
  C59      1.0000 0.34188  0.43860  0.34182  Biso   1.000  C
  C60      1.0000 0.33994  0.53109  0.24155  Biso   1.000  C
  O19      1.0000 0.30401  0.58687  0.20109  Biso   1.000  O
  O20      1.0000 0.44618  0.54811  0.16263  Biso   1.000  O
  H19      1.0000 0.49771  0.42332  0.22814  Biso   1.000  H
  H20      1.0000 0.25208  0.52147  0.32576  Biso   1.000  H
  C61      1.0000 0.05749  0.55541  0.75081  Biso   1.000  C
  C62      1.0000 0.09228  0.59251  0.81085  Biso   1.000  C
  C63      1.0000 0.08996  0.49229  0.71832  Biso   1.000  C
  C64      1.0000 0.19272  0.50131  0.80461  Biso   1.000  C
  C65      1.0000 0.15812  0.56140  0.84182  Biso   1.000  C
  C66      1.0000 0.16006  0.46891  0.74155  Biso   1.000  C
  O21      1.0000 0.19599  0.41313  0.70109  Biso   1.000  O
  O22      1.0000 0.05382  0.45189  0.66263  Biso   1.000  O
  H21      1.0000 0.00229  0.57668  0.72814  Biso   1.000  H
  H22      1.0000 0.24792  0.47853  0.82576  Biso   1.000  H
  C67      1.0000 0.94251  0.05541  0.74919  Biso   1.000  C
  C68      1.0000 0.90772  0.09251  0.68915  Biso   1.000  C
  C69      1.0000 0.91004  0.99229  0.78168  Biso   1.000  C
  C70      1.0000 0.80728  0.00131  0.69539  Biso   1.000  C
  C71      1.0000 0.84188  0.06140  0.65818  Biso   1.000  C
  C72      1.0000 0.83994  0.96891  0.75845  Biso   1.000  C
  O23      1.0000 0.80401  0.91313  0.79891  Biso   1.000  O
  O24      1.0000 0.94618  0.95189  0.83737  Biso   1.000  O
  H23      1.0000 0.99771  0.07668  0.77186  Biso   1.000  H
  H24      1.0000 0.75208  0.97853  0.67424  Biso   1.000  H
  Ti1      1.0000 0.37525  0.62475  0.12475  Biso   1.000  Ti
  Ti2      1.0000 0.12475  0.37525  0.62475  Biso   1.000  Ti
  Ti3      1.0000 0.62475  0.12475  0.37525  Biso   1.000  Ti
  Ti4      1.0000 0.87525  0.87525  0.87525  Biso   1.000  Ti
  C73      1.0000 0.75084  0.44253  0.05537  Biso   1.000  C
  C74      1.0000 0.81088  0.40775  0.09247  Biso   1.000  C
  C75      1.0000 0.71835  0.41005  0.99225  Biso   1.000  C
  C76      1.0000 0.80465  0.30729  0.00129  Biso   1.000  C
  C77      1.0000 0.84185  0.34191  0.06136  Biso   1.000  C
  C78      1.0000 0.74158  0.33994  0.96889  Biso   1.000  C
  O25      1.0000 0.70112  0.30401  0.91311  Biso   1.000  O
  O26      1.0000 0.66265  0.44618  0.95186  Biso   1.000  O
  H25      1.0000 0.72816  0.49773  0.07664  Biso   1.000  H
  H26      1.0000 0.82581  0.25210  0.97851  Biso   1.000  H
  C79      1.0000 0.74916  0.55747  0.55537  Biso   1.000  C
  C80      1.0000 0.68912  0.59225  0.59247  Biso   1.000  C
  C81      1.0000 0.78165  0.58995  0.49225  Biso   1.000  C
  C82      1.0000 0.69535  0.69271  0.50129  Biso   1.000  C
  C83      1.0000 0.65815  0.65809  0.56136  Biso   1.000  C
  C84      1.0000 0.75842  0.66006  0.46889  Biso   1.000  C
  O27      1.0000 0.79888  0.69599  0.41311  Biso   1.000  O
  O28      1.0000 0.83735  0.55382  0.45186  Biso   1.000  O
  H27      1.0000 0.77184  0.50227  0.57664  Biso   1.000  H
  H28      1.0000 0.67419  0.74790  0.47851  Biso   1.000  H
  C85      1.0000 0.24916  0.94253  0.44463  Biso   1.000  C
  C86      1.0000 0.18912  0.90775  0.40753  Biso   1.000  C
  C87      1.0000 0.28165  0.91005  0.50775  Biso   1.000  C
  C88      1.0000 0.19535  0.80729  0.49871  Biso   1.000  C
  C89      1.0000 0.15815  0.84191  0.43864  Biso   1.000  C
  C90      1.0000 0.25842  0.83994  0.53111  Biso   1.000  C
  O29      1.0000 0.29888  0.80401  0.58689  Biso   1.000  O
  O30      1.0000 0.33735  0.94618  0.54814  Biso   1.000  O
  H29      1.0000 0.27184  0.99773  0.42336  Biso   1.000  H
  H30      1.0000 0.17419  0.75210  0.52149  Biso   1.000  H
  C91      1.0000 0.25084  0.05747  0.94463  Biso   1.000  C
  C92      1.0000 0.31088  0.09225  0.90753  Biso   1.000  C
  C93      1.0000 0.21835  0.08995  0.00775  Biso   1.000  C
  C94      1.0000 0.30465  0.19271  0.99871  Biso   1.000  C
  C95      1.0000 0.34185  0.15809  0.93864  Biso   1.000  C
  C96      1.0000 0.24158  0.16006  0.03111  Biso   1.000  C
  O31      1.0000 0.20112  0.19599  0.08689  Biso   1.000  O
  O32      1.0000 0.16265  0.05382  0.04814  Biso   1.000  O
  H31      1.0000 0.22816  0.00227  0.92336  Biso   1.000  H
  H32      1.0000 0.32581  0.24790  0.02149  Biso   1.000  H
  C97      1.0000 0.05537  0.75084  0.44253  Biso   1.000  C
  C98      1.0000 0.09247  0.81088  0.40775  Biso   1.000  C
  C99      1.0000 0.99225  0.71835  0.41005  Biso   1.000  C
  C100     1.0000 0.00129  0.80465  0.30729  Biso   1.000  C
  C101     1.0000 0.06136  0.84185  0.34191  Biso   1.000  C
  C102     1.0000 0.96889  0.74158  0.33994  Biso   1.000  C
  O33      1.0000 0.91311  0.70112  0.30401  Biso   1.000  O
  O34      1.0000 0.95186  0.66265  0.44618  Biso   1.000  O
  H33      1.0000 0.07664  0.72816  0.49773  Biso   1.000  H
  H34      1.0000 0.97851  0.82581  0.25210  Biso   1.000  H
  C103     1.0000 0.55537  0.74916  0.55747  Biso   1.000  C
  C104     1.0000 0.59247  0.68912  0.59225  Biso   1.000  C
  C105     1.0000 0.49225  0.78165  0.58995  Biso   1.000  C
  C106     1.0000 0.50129  0.69535  0.69271  Biso   1.000  C
  C107     1.0000 0.56136  0.65815  0.65809  Biso   1.000  C
  C108     1.0000 0.46889  0.75842  0.66006  Biso   1.000  C
  O35      1.0000 0.41311  0.79888  0.69599  Biso   1.000  O
  O36      1.0000 0.45186  0.83735  0.55382  Biso   1.000  O
  H35      1.0000 0.57664  0.77184  0.50227  Biso   1.000  H
  H36      1.0000 0.47851  0.67419  0.74790  Biso   1.000  H
  C109     1.0000 0.44463  0.24916  0.94253  Biso   1.000  C
  C110     1.0000 0.40753  0.18912  0.90775  Biso   1.000  C
  C111     1.0000 0.50775  0.28165  0.91005  Biso   1.000  C
  C112     1.0000 0.49871  0.19535  0.80729  Biso   1.000  C
  C113     1.0000 0.43864  0.15815  0.84191  Biso   1.000  C
  C114     1.0000 0.53111  0.25842  0.83994  Biso   1.000  C
  O37      1.0000 0.58689  0.29888  0.80401  Biso   1.000  O
  O38      1.0000 0.54814  0.33735  0.94618  Biso   1.000  O
  H37      1.0000 0.42336  0.27184  0.99773  Biso   1.000  H
  H38      1.0000 0.52149  0.17419  0.75210  Biso   1.000  H
  C115     1.0000 0.94463  0.25084  0.05747  Biso   1.000  C
  C116     1.0000 0.90753  0.31088  0.09225  Biso   1.000  C
  C117     1.0000 0.00775  0.21835  0.08995  Biso   1.000  C
  C118     1.0000 0.99871  0.30465  0.19271  Biso   1.000  C
  C119     1.0000 0.93864  0.34185  0.15809  Biso   1.000  C
  C120     1.0000 0.03111  0.24158  0.16006  Biso   1.000  C
  O39      1.0000 0.08689  0.20112  0.19599  Biso   1.000  O
  O40      1.0000 0.04814  0.16265  0.05382  Biso   1.000  O
  H39      1.0000 0.92336  0.22816  0.00227  Biso   1.000  H
  H40      1.0000 0.02149  0.32581  0.24790  Biso   1.000  H
  C121     1.0000 0.44253  0.05537  0.75084  Biso   1.000  C
  C122     1.0000 0.40775  0.09247  0.81088  Biso   1.000  C
  C123     1.0000 0.41005  0.99225  0.71835  Biso   1.000  C
  C124     1.0000 0.30729  0.00129  0.80465  Biso   1.000  C
  C125     1.0000 0.34191  0.06136  0.84185  Biso   1.000  C
  C126     1.0000 0.33994  0.96889  0.74158  Biso   1.000  C
  O41      1.0000 0.30401  0.91311  0.70112  Biso   1.000  O
  O42      1.0000 0.44618  0.95186  0.66265  Biso   1.000  O
  H41      1.0000 0.49773  0.07664  0.72816  Biso   1.000  H
  H42      1.0000 0.25210  0.97851  0.82581  Biso   1.000  H
  C127     1.0000 0.55747  0.55537  0.74916  Biso   1.000  C
  C128     1.0000 0.59225  0.59247  0.68912  Biso   1.000  C
  C129     1.0000 0.58995  0.49225  0.78165  Biso   1.000  C
  C130     1.0000 0.69271  0.50129  0.69535  Biso   1.000  C
  C131     1.0000 0.65809  0.56136  0.65815  Biso   1.000  C
  C132     1.0000 0.66006  0.46889  0.75842  Biso   1.000  C
  O43      1.0000 0.69599  0.41311  0.79888  Biso   1.000  O
  O44      1.0000 0.55382  0.45186  0.83735  Biso   1.000  O
  H43      1.0000 0.50227  0.57664  0.77184  Biso   1.000  H
  H44      1.0000 0.74790  0.47851  0.67419  Biso   1.000  H
  C133     1.0000 0.94253  0.44463  0.24916  Biso   1.000  C
  C134     1.0000 0.90775  0.40753  0.18912  Biso   1.000  C
  C135     1.0000 0.91005  0.50775  0.28165  Biso   1.000  C
  C136     1.0000 0.80729  0.49871  0.19535  Biso   1.000  C
  C137     1.0000 0.84191  0.43864  0.15815  Biso   1.000  C
  C138     1.0000 0.83994  0.53111  0.25842  Biso   1.000  C
  O45      1.0000 0.80401  0.58689  0.29888  Biso   1.000  O
  O46      1.0000 0.94618  0.54814  0.33735  Biso   1.000  O
  H45      1.0000 0.99773  0.42336  0.27184  Biso   1.000  H
  H46      1.0000 0.75210  0.52149  0.17419  Biso   1.000  H
  C139     1.0000 0.05747  0.94463  0.25084  Biso   1.000  C
  C140     1.0000 0.09225  0.90753  0.31088  Biso   1.000  C
  C141     1.0000 0.08995  0.00775  0.21835  Biso   1.000  C
  C142     1.0000 0.19271  0.99871  0.30465  Biso   1.000  C
  C143     1.0000 0.15809  0.93864  0.34185  Biso   1.000  C
  C144     1.0000 0.16006  0.03111  0.24158  Biso   1.000  C
  O47      1.0000 0.19599  0.08689  0.20112  Biso   1.000  O
  O48      1.0000 0.05382  0.04814  0.16265  Biso   1.000  O
  H47      1.0000 0.00227  0.92336  0.22816  Biso   1.000  H
  H48      1.0000 0.24790  0.02149  0.32581  Biso   1.000  H
  Ti5      1.0000 0.62477  0.37523  0.87523  Biso   1.000  Ti
  Ti6      1.0000 0.87523  0.62477  0.37523  Biso   1.000  Ti
  Ti7      1.0000 0.37523  0.87523  0.62477  Biso   1.000  Ti
  Ti8      1.0000 0.12477  0.12477  0.12477  Biso   1.000  Ti
