data_image0
_cell_length_a       10.2398
_cell_length_b       15.4892
_cell_length_c       23.7128
_cell_angle_alpha    90
_cell_angle_beta     90
_cell_angle_gamma    90

_symmetry_space_group_name_H-M    P 1
_symmetry_int_tables_number       1

loop_
  _symmetry_equiv_pos_as_xyz
  'x, y, z'

loop_
  _atom_site_label
  _atom_site_occupancy
  _atom_site_fract_x
  _atom_site_fract_y
  _atom_site_fract_z
  _atom_site_thermal_displace_type
  _atom_site_B_iso_or_equiv
  _atom_site_type_symbol
  Zn1      1.0000 0.61442  0.30886  0.01210  Biso   1.000  Zn
  Zn2      1.0000 0.43127  0.12032  0.99215  Biso   1.000  Zn
  Zn3      1.0000 0.88558  0.69114  0.51210  Biso   1.000  Zn
  Zn4      1.0000 0.06873  0.87968  0.49215  Biso   1.000  Zn
  Zn5      1.0000 0.38558  0.80886  0.48790  Biso   1.000  Zn
  Zn6      1.0000 0.56873  0.62032  0.50785  Biso   1.000  Zn
  Zn7      1.0000 0.11442  0.19114  0.98790  Biso   1.000  Zn
  Zn8      1.0000 0.93127  0.37968  0.00785  Biso   1.000  Zn
  H1       1.0000 0.05060  0.10240  0.82670  Biso   1.000  H
  H2       1.0000 0.02310  0.05170  0.73590  Biso   1.000  H
  H3       1.0000 0.43390  0.04380  0.82060  Biso   1.000  H
  H4       1.0000 0.11640  0.99360  0.64790  Biso   1.000  H
  H5       1.0000 0.49810  0.93390  0.64150  Biso   1.000  H
  H6       1.0000 0.52820  0.98590  0.73020  Biso   1.000  H
  H7       1.0000 0.70570  0.08780  0.97220  Biso   1.000  H
  H8       1.0000 0.56990  0.25550  0.88820  Biso   1.000  H
  H9       1.0000 0.55500  0.25750  0.78990  Biso   1.000  H
  H10      1.0000 0.67890  0.15540  0.73830  Biso   1.000  H
  H11      1.0000 0.78260  0.04760  0.78130  Biso   1.000  H
  H12      1.0000 0.79800  0.04720  0.88100  Biso   1.000  H
  H13      1.0000 0.43830  0.94370  0.04570  Biso   1.000  H
  H14      1.0000 0.44940  0.89760  0.32670  Biso   1.000  H
  H15      1.0000 0.47690  0.94830  0.23590  Biso   1.000  H
  H16      1.0000 0.06610  0.95620  0.32060  Biso   1.000  H
  H17      1.0000 0.38360  0.00640  0.14790  Biso   1.000  H
  H18      1.0000 0.00190  0.06610  0.14150  Biso   1.000  H
  H19      1.0000 0.97180  0.01410  0.23020  Biso   1.000  H
  H20      1.0000 0.79430  0.91220  0.47220  Biso   1.000  H
  H21      1.0000 0.93010  0.74450  0.38820  Biso   1.000  H
  H22      1.0000 0.94500  0.74250  0.28990  Biso   1.000  H
  H23      1.0000 0.82110  0.84460  0.23830  Biso   1.000  H
  H24      1.0000 0.71740  0.95240  0.28130  Biso   1.000  H
  H25      1.0000 0.70200  0.95280  0.38100  Biso   1.000  H
  H26      1.0000 0.06170  0.05630  0.54570  Biso   1.000  H
  H27      1.0000 0.94940  0.60240  0.67330  Biso   1.000  H
  H28      1.0000 0.97690  0.55170  0.76410  Biso   1.000  H
  H29      1.0000 0.56610  0.54380  0.67940  Biso   1.000  H
  H30      1.0000 0.88360  0.49360  0.85210  Biso   1.000  H
  H31      1.0000 0.50190  0.43390  0.85850  Biso   1.000  H
  H32      1.0000 0.47180  0.48590  0.76980  Biso   1.000  H
  H33      1.0000 0.29430  0.58780  0.52780  Biso   1.000  H
  H34      1.0000 0.43010  0.75550  0.61180  Biso   1.000  H
  H35      1.0000 0.44500  0.75750  0.71010  Biso   1.000  H
  H36      1.0000 0.32110  0.65540  0.76170  Biso   1.000  H
  H37      1.0000 0.21740  0.54760  0.71870  Biso   1.000  H
  H38      1.0000 0.20200  0.54720  0.61900  Biso   1.000  H
  H39      1.0000 0.56170  0.44370  0.45430  Biso   1.000  H
  H40      1.0000 0.55060  0.39760  0.17330  Biso   1.000  H
  H41      1.0000 0.52310  0.44830  0.26410  Biso   1.000  H
  H42      1.0000 0.93390  0.45620  0.17940  Biso   1.000  H
  H43      1.0000 0.61640  0.50640  0.35210  Biso   1.000  H
  H44      1.0000 0.99810  0.56610  0.35850  Biso   1.000  H
  H45      1.0000 0.02820  0.51410  0.26980  Biso   1.000  H
  H46      1.0000 0.20570  0.41220  0.02780  Biso   1.000  H
  H47      1.0000 0.06990  0.24450  0.11180  Biso   1.000  H
  H48      1.0000 0.05500  0.24250  0.21010  Biso   1.000  H
  H49      1.0000 0.17890  0.34460  0.26170  Biso   1.000  H
  H50      1.0000 0.28260  0.45240  0.21870  Biso   1.000  H
  H51      1.0000 0.29800  0.45280  0.11900  Biso   1.000  H
  H52      1.0000 0.93830  0.55630  0.95430  Biso   1.000  H
  C1       1.0000 0.25890  0.10480  0.89313  Biso   1.000  C
  C2       1.0000 0.24540  0.07490  0.83250  Biso   1.000  C
  C3       1.0000 0.12300  0.07940  0.80670  Biso   1.000  C
  C4       1.0000 0.10750  0.05040  0.75250  Biso   1.000  C
  C5       1.0000 0.21120  0.01940  0.72140  Biso   1.000  C
  C6       1.0000 0.33830  0.01650  0.74650  Biso   1.000  C
  C7       1.0000 0.35070  0.04520  0.80290  Biso   1.000  C
  C8       1.0000 0.19930  0.98970  0.66580  Biso   1.000  C
  C9       1.0000 0.30100  0.95530  0.63602  Biso   1.000  C
  C10      1.0000 0.42520  0.95550  0.66180  Biso   1.000  C
  C11      1.0000 0.44290  0.98560  0.71450  Biso   1.000  C
  C12      1.0000 0.27740  0.91850  0.57757  Biso   1.000  C
  C13      1.0000 0.82400  0.19680  0.97701  Biso   1.000  C
  C14      1.0000 0.69970  0.14930  0.95969  Biso   1.000  C
  C15      1.0000 0.69000  0.15250  0.89400  Biso   1.000  C
  C16      1.0000 0.61590  0.21360  0.86660  Biso   1.000  C
  C17      1.0000 0.60690  0.21560  0.80870  Biso   1.000  C
  C18      1.0000 0.67800  0.15260  0.77830  Biso   1.000  C
  C19      1.0000 0.74160  0.09170  0.80280  Biso   1.000  C
  C20      1.0000 0.74960  0.09140  0.86270  Biso   1.000  C
  C21      1.0000 0.52820  0.94980  0.03660  Biso   1.000  C
  C22      1.0000 0.24110  0.89520  0.39313  Biso   1.000  C
  C23      1.0000 0.25460  0.92510  0.33250  Biso   1.000  C
  C24      1.0000 0.37700  0.92060  0.30670  Biso   1.000  C
  C25      1.0000 0.39250  0.94960  0.25250  Biso   1.000  C
  C26      1.0000 0.28880  0.98060  0.22140  Biso   1.000  C
  C27      1.0000 0.16170  0.98350  0.24650  Biso   1.000  C
  C28      1.0000 0.14930  0.95480  0.30290  Biso   1.000  C
  C29      1.0000 0.30070  0.01030  0.16580  Biso   1.000  C
  C30      1.0000 0.19900  0.04470  0.13602  Biso   1.000  C
  C31      1.0000 0.07480  0.04450  0.16180  Biso   1.000  C
  C32      1.0000 0.05710  0.01440  0.21450  Biso   1.000  C
  C33      1.0000 0.22260  0.08150  0.07757  Biso   1.000  C
  C34      1.0000 0.67600  0.80320  0.47701  Biso   1.000  C
  C35      1.0000 0.80030  0.85070  0.45969  Biso   1.000  C
  C36      1.0000 0.81000  0.84750  0.39400  Biso   1.000  C
  C37      1.0000 0.88410  0.78640  0.36660  Biso   1.000  C
  C38      1.0000 0.89310  0.78440  0.30870  Biso   1.000  C
  C39      1.0000 0.82200  0.84740  0.27830  Biso   1.000  C
  C40      1.0000 0.75840  0.90830  0.30280  Biso   1.000  C
  C41      1.0000 0.75040  0.90860  0.36270  Biso   1.000  C
  C42      1.0000 0.97180  0.05020  0.53660  Biso   1.000  C
  C43      1.0000 0.74110  0.60480  0.60687  Biso   1.000  C
  C44      1.0000 0.75460  0.57490  0.66750  Biso   1.000  C
  C45      1.0000 0.87700  0.57940  0.69330  Biso   1.000  C
  C46      1.0000 0.89250  0.55040  0.74750  Biso   1.000  C
  C47      1.0000 0.78880  0.51940  0.77860  Biso   1.000  C
  C48      1.0000 0.66170  0.51650  0.75350  Biso   1.000  C
  C49      1.0000 0.64930  0.54520  0.69710  Biso   1.000  C
  C50      1.0000 0.80070  0.48970  0.83420  Biso   1.000  C
  C51      1.0000 0.69900  0.45530  0.86398  Biso   1.000  C
  C52      1.0000 0.57480  0.45550  0.83820  Biso   1.000  C
  C53      1.0000 0.55710  0.48560  0.78550  Biso   1.000  C
  C54      1.0000 0.72260  0.41850  0.92243  Biso   1.000  C
  C55      1.0000 0.17600  0.69680  0.52299  Biso   1.000  C
  C56      1.0000 0.30030  0.64930  0.54031  Biso   1.000  C
  C57      1.0000 0.31000  0.65250  0.60600  Biso   1.000  C
  C58      1.0000 0.38410  0.71360  0.63340  Biso   1.000  C
  C59      1.0000 0.39310  0.71560  0.69130  Biso   1.000  C
  C60      1.0000 0.32200  0.65260  0.72170  Biso   1.000  C
  C61      1.0000 0.25840  0.59170  0.69720  Biso   1.000  C
  C62      1.0000 0.25040  0.59140  0.63730  Biso   1.000  C
  C63      1.0000 0.47180  0.44980  0.46340  Biso   1.000  C
  C64      1.0000 0.75890  0.39520  0.10687  Biso   1.000  C
  C65      1.0000 0.74540  0.42510  0.16750  Biso   1.000  C
  C66      1.0000 0.62300  0.42060  0.19330  Biso   1.000  C
  C67      1.0000 0.60750  0.44960  0.24750  Biso   1.000  C
  C68      1.0000 0.71120  0.48060  0.27860  Biso   1.000  C
  C69      1.0000 0.83830  0.48350  0.25350  Biso   1.000  C
  C70      1.0000 0.85070  0.45480  0.19710  Biso   1.000  C
  C71      1.0000 0.69930  0.51030  0.33420  Biso   1.000  C
  C72      1.0000 0.80100  0.54470  0.36398  Biso   1.000  C
  C73      1.0000 0.92520  0.54450  0.33820  Biso   1.000  C
  C74      1.0000 0.94290  0.51440  0.28550  Biso   1.000  C
  C75      1.0000 0.77740  0.58150  0.42243  Biso   1.000  C
  C76      1.0000 0.32400  0.30320  0.02299  Biso   1.000  C
  C77      1.0000 0.19970  0.35070  0.04031  Biso   1.000  C
  C78      1.0000 0.19000  0.34750  0.10600  Biso   1.000  C
  C79      1.0000 0.11590  0.28640  0.13340  Biso   1.000  C
  C80      1.0000 0.10690  0.28440  0.19130  Biso   1.000  C
  C81      1.0000 0.17800  0.34740  0.22170  Biso   1.000  C
  C82      1.0000 0.24160  0.40830  0.19720  Biso   1.000  C
  C83      1.0000 0.24960  0.40860  0.13730  Biso   1.000  C
  C84      1.0000 0.02820  0.55020  0.96340  Biso   1.000  C
  N1       1.0000 0.59210  0.89840  0.07260  Biso   1.000  N
  N2       1.0000 0.90790  0.10160  0.57260  Biso   1.000  N
  N3       1.0000 0.40790  0.39840  0.42740  Biso   1.000  N
  N4       1.0000 0.09210  0.60160  0.92740  Biso   1.000  N
  O1       1.0000 0.36260  0.08540  0.91817  Biso   1.000  O
  O2       1.0000 0.16250  0.14250  0.91326  Biso   1.000  O
  O3       1.0000 0.16110  0.91850  0.56058  Biso   1.000  O
  O4       1.0000 0.37620  0.89310  0.55139  Biso   1.000  O
  O5       1.0000 0.58930  0.18900  0.98590  Biso   1.000  O
  O6       1.0000 0.81150  0.26722  0.00183  Biso   1.000  O
  O7       1.0000 0.92880  0.16060  0.96684  Biso   1.000  O
  O8       1.0000 0.53290  0.00270  0.99620  Biso   1.000  O
  O9       1.0000 0.13740  0.91460  0.41817  Biso   1.000  O
  O10      1.0000 0.33750  0.85750  0.41326  Biso   1.000  O
  O11      1.0000 0.33890  0.08150  0.06058  Biso   1.000  O
  O12      1.0000 0.12380  0.10690  0.05139  Biso   1.000  O
  O13      1.0000 0.91070  0.81100  0.48590  Biso   1.000  O
  O14      1.0000 0.68850  0.73278  0.50183  Biso   1.000  O
  O15      1.0000 0.57120  0.83940  0.46684  Biso   1.000  O
  O16      1.0000 0.96710  0.99730  0.49620  Biso   1.000  O
  O17      1.0000 0.63740  0.58540  0.58183  Biso   1.000  O
  O18      1.0000 0.83750  0.64250  0.58674  Biso   1.000  O
  O19      1.0000 0.83890  0.41850  0.93942  Biso   1.000  O
  O20      1.0000 0.62380  0.39310  0.94861  Biso   1.000  O
  O21      1.0000 0.41070  0.68900  0.51410  Biso   1.000  O
  O22      1.0000 0.18850  0.76722  0.49817  Biso   1.000  O
  O23      1.0000 0.07120  0.66060  0.53316  Biso   1.000  O
  O24      1.0000 0.46710  0.50270  0.50380  Biso   1.000  O
  O25      1.0000 0.86260  0.41460  0.08183  Biso   1.000  O
  O26      1.0000 0.66250  0.35750  0.08674  Biso   1.000  O
  O27      1.0000 0.66110  0.58150  0.43942  Biso   1.000  O
  O28      1.0000 0.87620  0.60690  0.44861  Biso   1.000  O
  O29      1.0000 0.08930  0.31100  0.01410  Biso   1.000  O
  O30      1.0000 0.31150  0.23278  0.99817  Biso   1.000  O
  O31      1.0000 0.42880  0.33940  0.03316  Biso   1.000  O
  O32      1.0000 0.03290  0.49730  0.00380  Biso   1.000  O
