data_image0
_cell_length_a       14.5104
_cell_length_b       14.5104
_cell_length_c       15.7725
_cell_angle_alpha    90
_cell_angle_beta     90
_cell_angle_gamma    120

_symmetry_space_group_name_H-M    P 1
_symmetry_int_tables_number       1

loop_
  _symmetry_equiv_pos_as_xyz
  'x, y, z'

loop_
  _atom_site_label
  _atom_site_occupancy
  _atom_site_fract_x
  _atom_site_fract_y
  _atom_site_fract_z
  _atom_site_thermal_displace_type
  _atom_site_B_iso_or_equiv
  _atom_site_type_symbol
  Gd1      1.0000 0.33333  0.66666  0.75000  Biso   1.000  Gd
  Gd2      1.0000 0.66667  0.33334  0.75000  Biso   1.000  Gd
  Gd3      1.0000 0.66667  0.33334  0.25000  Biso   1.000  Gd
  Gd4      1.0000 0.33333  0.66666  0.25000  Biso   1.000  Gd
  Zn1      1.0000 0.00000  0.50000  0.50000  Biso   1.000  Zn
  Zn2      1.0000 0.50000  0.00000  0.50000  Biso   1.000  Zn
  Zn3      1.0000 0.50000  0.50000  0.50000  Biso   1.000  Zn
  Zn4      1.0000 0.50000  0.50000  0.00000  Biso   1.000  Zn
  Zn5      1.0000 0.50000  0.00000  0.00000  Biso   1.000  Zn
  Zn6      1.0000 0.00000  0.50000  0.00000  Biso   1.000  Zn
  H1       1.0000 0.16760  0.80260  0.66020  Biso   1.000  H
  H2       1.0000 0.08720  0.72300  0.72740  Biso   1.000  H
  H3       1.0000 0.17100  0.53800  0.45700  Biso   1.000  H
  H4       1.0000 0.63500  0.83240  0.66020  Biso   1.000  H
  H5       1.0000 0.63580  0.91280  0.72740  Biso   1.000  H
  H6       1.0000 0.36700  0.82900  0.45700  Biso   1.000  H
  H7       1.0000 0.19740  0.36500  0.66020  Biso   1.000  H
  H8       1.0000 0.27700  0.36420  0.72740  Biso   1.000  H
  H9       1.0000 0.46200  0.63300  0.45700  Biso   1.000  H
  H10      1.0000 0.83240  0.19740  0.66020  Biso   1.000  H
  H11      1.0000 0.91280  0.27700  0.72740  Biso   1.000  H
  H12      1.0000 0.82900  0.46200  0.45700  Biso   1.000  H
  H13      1.0000 0.36500  0.16760  0.66020  Biso   1.000  H
  H14      1.0000 0.36420  0.08720  0.72740  Biso   1.000  H
  H15      1.0000 0.63300  0.17100  0.45700  Biso   1.000  H
  H16      1.0000 0.80260  0.63500  0.66020  Biso   1.000  H
  H17      1.0000 0.72300  0.63580  0.72740  Biso   1.000  H
  H18      1.0000 0.53800  0.36700  0.45700  Biso   1.000  H
  H19      1.0000 0.36500  0.19740  0.83980  Biso   1.000  H
  H20      1.0000 0.36420  0.27700  0.77260  Biso   1.000  H
  H21      1.0000 0.63300  0.46200  0.04300  Biso   1.000  H
  H22      1.0000 0.80260  0.16760  0.83980  Biso   1.000  H
  H23      1.0000 0.72300  0.08720  0.77260  Biso   1.000  H
  H24      1.0000 0.53800  0.17100  0.04300  Biso   1.000  H
  H25      1.0000 0.83240  0.63500  0.83980  Biso   1.000  H
  H26      1.0000 0.91280  0.63580  0.77260  Biso   1.000  H
  H27      1.0000 0.82900  0.36700  0.04300  Biso   1.000  H
  H28      1.0000 0.63500  0.80260  0.83980  Biso   1.000  H
  H29      1.0000 0.63580  0.72300  0.77260  Biso   1.000  H
  H30      1.0000 0.36700  0.53800  0.04300  Biso   1.000  H
  H31      1.0000 0.19740  0.83240  0.83980  Biso   1.000  H
  H32      1.0000 0.27700  0.91280  0.77260  Biso   1.000  H
  H33      1.0000 0.46200  0.82900  0.04300  Biso   1.000  H
  H34      1.0000 0.16760  0.36500  0.83980  Biso   1.000  H
  H35      1.0000 0.08720  0.36420  0.77260  Biso   1.000  H
  H36      1.0000 0.17100  0.63300  0.04300  Biso   1.000  H
  H37      1.0000 0.83240  0.19740  0.33980  Biso   1.000  H
  H38      1.0000 0.91280  0.27700  0.27260  Biso   1.000  H
  H39      1.0000 0.82900  0.46200  0.54300  Biso   1.000  H
  H40      1.0000 0.36500  0.16760  0.33980  Biso   1.000  H
  H41      1.0000 0.36420  0.08720  0.27260  Biso   1.000  H
  H42      1.0000 0.63300  0.17100  0.54300  Biso   1.000  H
  H43      1.0000 0.80260  0.63500  0.33980  Biso   1.000  H
  H44      1.0000 0.72300  0.63580  0.27260  Biso   1.000  H
  H45      1.0000 0.53800  0.36700  0.54300  Biso   1.000  H
  H46      1.0000 0.16760  0.80260  0.33980  Biso   1.000  H
  H47      1.0000 0.08720  0.72300  0.27260  Biso   1.000  H
  H48      1.0000 0.17100  0.53800  0.54300  Biso   1.000  H
  H49      1.0000 0.63500  0.83240  0.33980  Biso   1.000  H
  H50      1.0000 0.63580  0.91280  0.27260  Biso   1.000  H
  H51      1.0000 0.36700  0.82900  0.54300  Biso   1.000  H
  H52      1.0000 0.19740  0.36500  0.33980  Biso   1.000  H
  H53      1.0000 0.27700  0.36420  0.27260  Biso   1.000  H
  H54      1.0000 0.46200  0.63300  0.54300  Biso   1.000  H
  H55      1.0000 0.63500  0.80260  0.16020  Biso   1.000  H
  H56      1.0000 0.63580  0.72300  0.22740  Biso   1.000  H
  H57      1.0000 0.36700  0.53800  0.95700  Biso   1.000  H
  H58      1.0000 0.19740  0.83240  0.16020  Biso   1.000  H
  H59      1.0000 0.27700  0.91280  0.22740  Biso   1.000  H
  H60      1.0000 0.46200  0.82900  0.95700  Biso   1.000  H
  H61      1.0000 0.16760  0.36500  0.16020  Biso   1.000  H
  H62      1.0000 0.08720  0.36420  0.22740  Biso   1.000  H
  H63      1.0000 0.17100  0.63300  0.95700  Biso   1.000  H
  H64      1.0000 0.36500  0.19740  0.16020  Biso   1.000  H
  H65      1.0000 0.36420  0.27700  0.22740  Biso   1.000  H
  H66      1.0000 0.63300  0.46200  0.95700  Biso   1.000  H
  H67      1.0000 0.80260  0.16760  0.16020  Biso   1.000  H
  H68      1.0000 0.72300  0.08720  0.22740  Biso   1.000  H
  H69      1.0000 0.53800  0.17100  0.95700  Biso   1.000  H
  H70      1.0000 0.83240  0.63500  0.16020  Biso   1.000  H
  H71      1.0000 0.91280  0.63580  0.22740  Biso   1.000  H
  H72      1.0000 0.82900  0.36700  0.95700  Biso   1.000  H
  C1       1.0000 0.13190  0.65000  0.64000  Biso   1.000  C
  C2       1.0000 0.15090  0.74110  0.69510  Biso   1.000  C
  C3       1.0000 0.51810  0.86810  0.64000  Biso   1.000  C
  C4       1.0000 0.59020  0.84910  0.69510  Biso   1.000  C
  C5       1.0000 0.35000  0.48190  0.64000  Biso   1.000  C
  C6       1.0000 0.25890  0.40980  0.69510  Biso   1.000  C
  C7       1.0000 0.86810  0.35000  0.64000  Biso   1.000  C
  C8       1.0000 0.84910  0.25890  0.69510  Biso   1.000  C
  C9       1.0000 0.48190  0.13190  0.64000  Biso   1.000  C
  C10      1.0000 0.40980  0.15090  0.69510  Biso   1.000  C
  C11      1.0000 0.65000  0.51810  0.64000  Biso   1.000  C
  C12      1.0000 0.74110  0.59020  0.69510  Biso   1.000  C
  C13      1.0000 0.48190  0.35000  0.86000  Biso   1.000  C
  C14      1.0000 0.40980  0.25890  0.80490  Biso   1.000  C
  C15      1.0000 0.65000  0.13190  0.86000  Biso   1.000  C
  C16      1.0000 0.74110  0.15090  0.80490  Biso   1.000  C
  C17      1.0000 0.86810  0.51810  0.86000  Biso   1.000  C
  C18      1.0000 0.84910  0.59020  0.80490  Biso   1.000  C
  C19      1.0000 0.51810  0.65000  0.86000  Biso   1.000  C
  C20      1.0000 0.59020  0.74110  0.80490  Biso   1.000  C
  C21      1.0000 0.35000  0.86810  0.86000  Biso   1.000  C
  C22      1.0000 0.25890  0.84910  0.80490  Biso   1.000  C
  C23      1.0000 0.13190  0.48190  0.86000  Biso   1.000  C
  C24      1.0000 0.15090  0.40980  0.80490  Biso   1.000  C
  C25      1.0000 0.86810  0.35000  0.36000  Biso   1.000  C
  C26      1.0000 0.84910  0.25890  0.30490  Biso   1.000  C
  C27      1.0000 0.48190  0.13190  0.36000  Biso   1.000  C
  C28      1.0000 0.40980  0.15090  0.30490  Biso   1.000  C
  C29      1.0000 0.65000  0.51810  0.36000  Biso   1.000  C
  C30      1.0000 0.74110  0.59020  0.30490  Biso   1.000  C
  C31      1.0000 0.13190  0.65000  0.36000  Biso   1.000  C
  C32      1.0000 0.15090  0.74110  0.30490  Biso   1.000  C
  C33      1.0000 0.51810  0.86810  0.36000  Biso   1.000  C
  C34      1.0000 0.59020  0.84910  0.30490  Biso   1.000  C
  C35      1.0000 0.35000  0.48190  0.36000  Biso   1.000  C
  C36      1.0000 0.25890  0.40980  0.30490  Biso   1.000  C
  C37      1.0000 0.51810  0.65000  0.14000  Biso   1.000  C
  C38      1.0000 0.59020  0.74110  0.19510  Biso   1.000  C
  C39      1.0000 0.35000  0.86810  0.14000  Biso   1.000  C
  C40      1.0000 0.25890  0.84910  0.19510  Biso   1.000  C
  C41      1.0000 0.13190  0.48190  0.14000  Biso   1.000  C
  C42      1.0000 0.15090  0.40980  0.19510  Biso   1.000  C
  C43      1.0000 0.48190  0.35000  0.14000  Biso   1.000  C
  C44      1.0000 0.40980  0.25890  0.19510  Biso   1.000  C
  C45      1.0000 0.65000  0.13190  0.14000  Biso   1.000  C
  C46      1.0000 0.74110  0.15090  0.19510  Biso   1.000  C
  C47      1.0000 0.86810  0.51810  0.14000  Biso   1.000  C
  C48      1.0000 0.84910  0.59020  0.19510  Biso   1.000  C
  O1       1.0000 0.19569  0.61523  0.64559  Biso   1.000  O
  O2       1.0000 0.05500  0.61731  0.59043  Biso   1.000  O
  O3       1.0000 0.41954  0.80431  0.64559  Biso   1.000  O
  O4       1.0000 0.56231  0.94500  0.59043  Biso   1.000  O
  O5       1.0000 0.38477  0.58046  0.64559  Biso   1.000  O
  O6       1.0000 0.38269  0.43769  0.59043  Biso   1.000  O
  O7       1.0000 0.80431  0.38477  0.64559  Biso   1.000  O
  O8       1.0000 0.94500  0.38269  0.59043  Biso   1.000  O
  O9       1.0000 0.58046  0.19569  0.64559  Biso   1.000  O
  O10      1.0000 0.43769  0.05500  0.59043  Biso   1.000  O
  O11      1.0000 0.61523  0.41954  0.64559  Biso   1.000  O
  O12      1.0000 0.61731  0.56231  0.59043  Biso   1.000  O
  O13      1.0000 0.58046  0.38477  0.85441  Biso   1.000  O
  O14      1.0000 0.43769  0.38269  0.90957  Biso   1.000  O
  O15      1.0000 0.61523  0.19569  0.85441  Biso   1.000  O
  O16      1.0000 0.61731  0.05500  0.90957  Biso   1.000  O
  O17      1.0000 0.80431  0.41954  0.85441  Biso   1.000  O
  O18      1.0000 0.94500  0.56231  0.90957  Biso   1.000  O
  O19      1.0000 0.41954  0.61523  0.85441  Biso   1.000  O
  O20      1.0000 0.56231  0.61731  0.90957  Biso   1.000  O
  O21      1.0000 0.38477  0.80431  0.85441  Biso   1.000  O
  O22      1.0000 0.38269  0.94500  0.90957  Biso   1.000  O
  O23      1.0000 0.19569  0.58046  0.85441  Biso   1.000  O
  O24      1.0000 0.05500  0.43769  0.90957  Biso   1.000  O
  O25      1.0000 0.80431  0.38477  0.35441  Biso   1.000  O
  O26      1.0000 0.94500  0.38269  0.40957  Biso   1.000  O
  O27      1.0000 0.58046  0.19569  0.35441  Biso   1.000  O
  O28      1.0000 0.43769  0.05500  0.40957  Biso   1.000  O
  O29      1.0000 0.61523  0.41954  0.35441  Biso   1.000  O
  O30      1.0000 0.61731  0.56231  0.40957  Biso   1.000  O
  O31      1.0000 0.19569  0.61523  0.35441  Biso   1.000  O
  O32      1.0000 0.05500  0.61731  0.40957  Biso   1.000  O
  O33      1.0000 0.41954  0.80431  0.35441  Biso   1.000  O
  O34      1.0000 0.56231  0.94500  0.40957  Biso   1.000  O
  O35      1.0000 0.38477  0.58046  0.35441  Biso   1.000  O
  O36      1.0000 0.38269  0.43769  0.40957  Biso   1.000  O
  O37      1.0000 0.41954  0.61523  0.14559  Biso   1.000  O
  O38      1.0000 0.56231  0.61731  0.09043  Biso   1.000  O
  O39      1.0000 0.38477  0.80431  0.14559  Biso   1.000  O
  O40      1.0000 0.38269  0.94500  0.09043  Biso   1.000  O
  O41      1.0000 0.19569  0.58046  0.14559  Biso   1.000  O
  O42      1.0000 0.05500  0.43769  0.09043  Biso   1.000  O
  O43      1.0000 0.58046  0.38477  0.14559  Biso   1.000  O
  O44      1.0000 0.43769  0.38269  0.09043  Biso   1.000  O
  O45      1.0000 0.61523  0.19569  0.14559  Biso   1.000  O
  O46      1.0000 0.61731  0.05500  0.09043  Biso   1.000  O
  O47      1.0000 0.80431  0.41954  0.14559  Biso   1.000  O
  O48      1.0000 0.94500  0.56231  0.09043  Biso   1.000  O
  O49      1.0000 0.23485  0.76515  0.75000  Biso   1.000  O
  O50      1.0000 0.53030  0.76515  0.75000  Biso   1.000  O
  O51      1.0000 0.23485  0.46970  0.75000  Biso   1.000  O
  O52      1.0000 0.76515  0.23485  0.75000  Biso   1.000  O
  O53      1.0000 0.46970  0.23485  0.75000  Biso   1.000  O
  O54      1.0000 0.76515  0.53030  0.75000  Biso   1.000  O
  O55      1.0000 0.76515  0.23485  0.25000  Biso   1.000  O
  O56      1.0000 0.46970  0.23485  0.25000  Biso   1.000  O
  O57      1.0000 0.76515  0.53030  0.25000  Biso   1.000  O
  O58      1.0000 0.23485  0.76515  0.25000  Biso   1.000  O
  O59      1.0000 0.53030  0.76515  0.25000  Biso   1.000  O
  O60      1.0000 0.23485  0.46970  0.25000  Biso   1.000  O
  O61      1.0000 0.14450  0.49280  0.50000  Biso   1.000  O
  O62      1.0000 0.34830  0.85550  0.50000  Biso   1.000  O
  O63      1.0000 0.50720  0.65170  0.50000  Biso   1.000  O
  O64      1.0000 0.85550  0.50720  0.50000  Biso   1.000  O
  O65      1.0000 0.65170  0.14450  0.50000  Biso   1.000  O
  O66      1.0000 0.49280  0.34830  0.50000  Biso   1.000  O
  O67      1.0000 0.65170  0.50720  0.00000  Biso   1.000  O
  O68      1.0000 0.49280  0.14450  0.00000  Biso   1.000  O
  O69      1.0000 0.85550  0.34830  0.00000  Biso   1.000  O
  O70      1.0000 0.34830  0.49280  0.00000  Biso   1.000  O
  O71      1.0000 0.50720  0.85550  0.00000  Biso   1.000  O
  O72      1.0000 0.14450  0.65170  0.00000  Biso   1.000  O
