data_image0
_cell_length_a       8.8084
_cell_length_b       8.8084
_cell_length_c       40.078
_cell_angle_alpha    86.3071
_cell_angle_beta     86.3071
_cell_angle_gamma    82.9376

_symmetry_space_group_name_H-M    P 1
_symmetry_int_tables_number       1

loop_
  _symmetry_equiv_pos_as_xyz
  'x, y, z'

loop_
  _atom_site_label
  _atom_site_occupancy
  _atom_site_fract_x
  _atom_site_fract_y
  _atom_site_fract_z
  _atom_site_thermal_displace_type
  _atom_site_B_iso_or_equiv
  _atom_site_type_symbol
  Ni1      1.0000 0.74780  0.80464  0.11827  Biso   1.000  Ni
  Ni2      1.0000 0.96858  0.58942  0.16415  Biso   1.000  Ni
  Ni3      1.0000 0.90505  0.13885  0.10462  Biso   1.000  Ni
  Ni4      1.0000 0.19536  0.25220  0.38173  Biso   1.000  Ni
  Ni5      1.0000 0.41058  0.03142  0.33585  Biso   1.000  Ni
  Ni6      1.0000 0.86115  0.09495  0.39538  Biso   1.000  Ni
  Ni7      1.0000 0.25220  0.19536  0.88173  Biso   1.000  Ni
  Ni8      1.0000 0.03142  0.41058  0.83585  Biso   1.000  Ni
  Ni9      1.0000 0.09495  0.86115  0.89538  Biso   1.000  Ni
  Ni10     1.0000 0.80464  0.74780  0.61827  Biso   1.000  Ni
  Ni11     1.0000 0.58942  0.96858  0.66415  Biso   1.000  Ni
  Ni12     1.0000 0.13885  0.90505  0.60462  Biso   1.000  Ni
  H1       1.0000 0.98890  0.61750  0.96720  Biso   1.000  H
  H2       1.0000 0.32270  0.88070  0.97470  Biso   1.000  H
  H3       1.0000 0.39060  0.30840  0.24750  Biso   1.000  H
  H4       1.0000 0.05680  0.57100  0.29540  Biso   1.000  H
  H5       1.0000 0.00380  0.86260  0.20780  Biso   1.000  H
  H6       1.0000 0.15770  0.91670  0.19210  Biso   1.000  H
  H7       1.0000 0.27380  0.78240  0.14880  Biso   1.000  H
  H8       1.0000 0.36920  0.66020  0.17160  Biso   1.000  H
  H9       1.0000 0.01230  0.71890  0.24690  Biso   1.000  H
  H10      1.0000 0.11450  0.51810  0.93260  Biso   1.000  H
  H11      1.0000 0.29330  0.47930  0.92820  Biso   1.000  H
  H12      1.0000 0.43590  0.65510  0.90920  Biso   1.000  H
  H13      1.0000 0.44140  0.72140  0.94440  Biso   1.000  H
  H14      1.0000 0.34980  0.45740  0.19910  Biso   1.000  H
  H15      1.0000 0.88650  0.68350  0.01900  Biso   1.000  H
  H16      1.0000 0.21660  0.94760  0.02690  Biso   1.000  H
  H17      1.0000 0.38250  0.01110  0.53280  Biso   1.000  H
  H18      1.0000 0.11930  0.67730  0.52530  Biso   1.000  H
  H19      1.0000 0.69160  0.60940  0.25250  Biso   1.000  H
  H20      1.0000 0.42900  0.94320  0.20460  Biso   1.000  H
  H21      1.0000 0.13740  0.99620  0.29220  Biso   1.000  H
  H22      1.0000 0.08330  0.84230  0.30790  Biso   1.000  H
  H23      1.0000 0.21760  0.72620  0.35120  Biso   1.000  H
  H24      1.0000 0.33980  0.63080  0.32840  Biso   1.000  H
  H25      1.0000 0.28110  0.98770  0.25310  Biso   1.000  H
  H26      1.0000 0.48190  0.88550  0.56740  Biso   1.000  H
  H27      1.0000 0.52070  0.70670  0.57180  Biso   1.000  H
  H28      1.0000 0.34490  0.56410  0.59080  Biso   1.000  H
  H29      1.0000 0.27860  0.55860  0.55560  Biso   1.000  H
  H30      1.0000 0.54260  0.65020  0.30090  Biso   1.000  H
  H31      1.0000 0.31650  0.11350  0.48100  Biso   1.000  H
  H32      1.0000 0.05240  0.78340  0.47310  Biso   1.000  H
  H33      1.0000 0.01110  0.38250  0.03280  Biso   1.000  H
  H34      1.0000 0.67730  0.11930  0.02530  Biso   1.000  H
  H35      1.0000 0.60940  0.69160  0.75250  Biso   1.000  H
  H36      1.0000 0.94320  0.42900  0.70460  Biso   1.000  H
  H37      1.0000 0.99620  0.13740  0.79220  Biso   1.000  H
  H38      1.0000 0.84230  0.08330  0.80790  Biso   1.000  H
  H39      1.0000 0.72620  0.21760  0.85120  Biso   1.000  H
  H40      1.0000 0.63080  0.33980  0.82840  Biso   1.000  H
  H41      1.0000 0.98770  0.28110  0.75310  Biso   1.000  H
  H42      1.0000 0.88550  0.48190  0.06740  Biso   1.000  H
  H43      1.0000 0.70670  0.52070  0.07180  Biso   1.000  H
  H44      1.0000 0.56410  0.34490  0.09080  Biso   1.000  H
  H45      1.0000 0.55860  0.27860  0.05560  Biso   1.000  H
  H46      1.0000 0.65020  0.54260  0.80090  Biso   1.000  H
  H47      1.0000 0.11350  0.31650  0.98100  Biso   1.000  H
  H48      1.0000 0.78340  0.05240  0.97310  Biso   1.000  H
  H49      1.0000 0.61750  0.98890  0.46720  Biso   1.000  H
  H50      1.0000 0.88070  0.32270  0.47470  Biso   1.000  H
  H51      1.0000 0.30840  0.39060  0.74750  Biso   1.000  H
  H52      1.0000 0.57100  0.05680  0.79540  Biso   1.000  H
  H53      1.0000 0.86260  0.00380  0.70780  Biso   1.000  H
  H54      1.0000 0.91670  0.15770  0.69210  Biso   1.000  H
  H55      1.0000 0.78240  0.27380  0.64880  Biso   1.000  H
  H56      1.0000 0.66020  0.36920  0.67160  Biso   1.000  H
  H57      1.0000 0.71890  0.01230  0.74690  Biso   1.000  H
  H58      1.0000 0.51810  0.11450  0.43260  Biso   1.000  H
  H59      1.0000 0.47930  0.29330  0.42820  Biso   1.000  H
  H60      1.0000 0.65510  0.43590  0.40920  Biso   1.000  H
  H61      1.0000 0.72140  0.44140  0.44440  Biso   1.000  H
  H62      1.0000 0.45740  0.34980  0.69910  Biso   1.000  H
  H63      1.0000 0.68350  0.88650  0.51900  Biso   1.000  H
  H64      1.0000 0.94760  0.21660  0.52690  Biso   1.000  H
  C1       1.0000 0.03610  0.68390  0.97916  Biso   1.000  C
  C2       1.0000 0.23480  0.84040  0.98341  Biso   1.000  C
  C3       1.0000 0.31440  0.39140  0.24750  Biso   1.000  C
  C4       1.0000 0.22680  0.42300  0.27671  Biso   1.000  C
  C5       1.0000 0.25230  0.31930  0.30747  Biso   1.000  C
  C6       1.0000 0.11580  0.54720  0.27596  Biso   1.000  C
  C7       1.0000 0.00000  0.90760  0.15702  Biso   1.000  C
  C8       1.0000 0.07770  0.85350  0.18883  Biso   1.000  C
  C9       1.0000 0.27350  0.68270  0.16057  Biso   1.000  C
  C10      1.0000 0.17920  0.60560  0.21791  Biso   1.000  C
  C11      1.0000 0.19580  0.55380  0.88397  Biso   1.000  C
  C12      1.0000 0.08990  0.63710  0.24697  Biso   1.000  C
  C13      1.0000 0.20680  0.55140  0.92150  Biso   1.000  C
  C14      1.0000 0.03990  0.82430  0.02837  Biso   1.000  C
  C15      1.0000 0.38800  0.73340  0.92377  Biso   1.000  C
  C16      1.0000 0.29030  0.48110  0.21849  Biso   1.000  C
  C17      1.0000 0.40870  0.88830  0.90710  Biso   1.000  C
  C18      1.0000 0.97400  0.72420  0.01016  Biso   1.000  C
  C19      1.0000 0.17030  0.88090  0.01484  Biso   1.000  C
  C20      1.0000 0.96400  0.87220  0.06132  Biso   1.000  C
  C21      1.0000 0.26760  0.56320  0.13492  Biso   1.000  C
  C22      1.0000 0.16810  0.74050  0.96530  Biso   1.000  C
  C23      1.0000 0.31610  0.96390  0.52084  Biso   1.000  C
  C24      1.0000 0.15960  0.76520  0.51659  Biso   1.000  C
  C25      1.0000 0.60860  0.68560  0.25250  Biso   1.000  C
  C26      1.0000 0.57700  0.77320  0.22329  Biso   1.000  C
  C27      1.0000 0.68070  0.74770  0.19253  Biso   1.000  C
  C28      1.0000 0.45280  0.88420  0.22404  Biso   1.000  C
  C29      1.0000 0.09240  0.00000  0.34298  Biso   1.000  C
  C30      1.0000 0.14650  0.92230  0.31117  Biso   1.000  C
  C31      1.0000 0.31730  0.72650  0.33943  Biso   1.000  C
  C32      1.0000 0.39440  0.82080  0.28209  Biso   1.000  C
  C33      1.0000 0.44620  0.80420  0.61603  Biso   1.000  C
  C34      1.0000 0.36290  0.91010  0.25303  Biso   1.000  C
  C35      1.0000 0.44860  0.79320  0.57850  Biso   1.000  C
  C36      1.0000 0.17570  0.96010  0.47163  Biso   1.000  C
  C37      1.0000 0.26660  0.61200  0.57623  Biso   1.000  C
  C38      1.0000 0.51890  0.70970  0.28151  Biso   1.000  C
  C39      1.0000 0.11170  0.59130  0.59290  Biso   1.000  C
  C40      1.0000 0.27580  0.02600  0.48984  Biso   1.000  C
  C41      1.0000 0.11910  0.82970  0.48516  Biso   1.000  C
  C42      1.0000 0.12780  0.03600  0.43868  Biso   1.000  C
  C43      1.0000 0.43680  0.73240  0.36508  Biso   1.000  C
  C44      1.0000 0.25950  0.83190  0.53470  Biso   1.000  C
  C45      1.0000 0.96390  0.31610  0.02084  Biso   1.000  C
  C46      1.0000 0.76520  0.15960  0.01659  Biso   1.000  C
  C47      1.0000 0.68560  0.60860  0.75250  Biso   1.000  C
  C48      1.0000 0.77320  0.57700  0.72329  Biso   1.000  C
  C49      1.0000 0.74770  0.68070  0.69253  Biso   1.000  C
  C50      1.0000 0.88420  0.45280  0.72404  Biso   1.000  C
  C51      1.0000 0.00000  0.09240  0.84298  Biso   1.000  C
  C52      1.0000 0.92230  0.14650  0.81117  Biso   1.000  C
  C53      1.0000 0.72650  0.31730  0.83943  Biso   1.000  C
  C54      1.0000 0.82080  0.39440  0.78209  Biso   1.000  C
  C55      1.0000 0.80420  0.44620  0.11603  Biso   1.000  C
  C56      1.0000 0.91010  0.36290  0.75303  Biso   1.000  C
  C57      1.0000 0.79320  0.44860  0.07850  Biso   1.000  C
  C58      1.0000 0.96010  0.17570  0.97163  Biso   1.000  C
  C59      1.0000 0.61200  0.26660  0.07623  Biso   1.000  C
  C60      1.0000 0.70970  0.51890  0.78151  Biso   1.000  C
  C61      1.0000 0.59130  0.11170  0.09290  Biso   1.000  C
  C62      1.0000 0.02600  0.27580  0.98984  Biso   1.000  C
  C63      1.0000 0.82970  0.11910  0.98516  Biso   1.000  C
  C64      1.0000 0.03600  0.12780  0.93868  Biso   1.000  C
  C65      1.0000 0.73240  0.43680  0.86508  Biso   1.000  C
  C66      1.0000 0.83190  0.25950  0.03470  Biso   1.000  C
  C67      1.0000 0.68390  0.03610  0.47916  Biso   1.000  C
  C68      1.0000 0.84040  0.23480  0.48341  Biso   1.000  C
  C69      1.0000 0.39140  0.31440  0.74750  Biso   1.000  C
  C70      1.0000 0.42300  0.22680  0.77671  Biso   1.000  C
  C71      1.0000 0.31930  0.25230  0.80747  Biso   1.000  C
  C72      1.0000 0.54720  0.11580  0.77596  Biso   1.000  C
  C73      1.0000 0.90760  0.00000  0.65702  Biso   1.000  C
  C74      1.0000 0.85350  0.07770  0.68883  Biso   1.000  C
  C75      1.0000 0.68270  0.27350  0.66057  Biso   1.000  C
  C76      1.0000 0.60560  0.17920  0.71791  Biso   1.000  C
  C77      1.0000 0.55380  0.19580  0.38397  Biso   1.000  C
  C78      1.0000 0.63710  0.08990  0.74697  Biso   1.000  C
  C79      1.0000 0.55140  0.20680  0.42150  Biso   1.000  C
  C80      1.0000 0.82430  0.03990  0.52837  Biso   1.000  C
  C81      1.0000 0.73340  0.38800  0.42377  Biso   1.000  C
  C82      1.0000 0.48110  0.29030  0.71849  Biso   1.000  C
  C83      1.0000 0.88830  0.40870  0.40710  Biso   1.000  C
  C84      1.0000 0.72420  0.97400  0.51016  Biso   1.000  C
  C85      1.0000 0.88090  0.17030  0.51484  Biso   1.000  C
  C86      1.0000 0.87220  0.96400  0.56132  Biso   1.000  C
  C87      1.0000 0.56320  0.26760  0.63492  Biso   1.000  C
  C88      1.0000 0.74050  0.16810  0.46530  Biso   1.000  C
  N1       1.0000 0.14500  0.69180  0.18667  Biso   1.000  N
  N2       1.0000 0.22610  0.70630  0.93175  Biso   1.000  N
  N3       1.0000 0.30820  0.85500  0.31333  Biso   1.000  N
  N4       1.0000 0.29370  0.77390  0.56825  Biso   1.000  N
  N5       1.0000 0.85500  0.30820  0.81333  Biso   1.000  N
  N6       1.0000 0.77390  0.29370  0.06825  Biso   1.000  N
  N7       1.0000 0.69180  0.14500  0.68667  Biso   1.000  N
  N8       1.0000 0.70630  0.22610  0.43175  Biso   1.000  N
  O1       1.0000 0.98290  0.04670  0.14924  Biso   1.000  O
  O2       1.0000 0.95240  0.80540  0.14092  Biso   1.000  O
  O3       1.0000 0.33950  0.19750  0.30299  Biso   1.000  O
  O4       1.0000 0.18330  0.35910  0.33469  Biso   1.000  O
  O5       1.0000 0.14460  0.50460  0.13360  Biso   1.000  O
  O6       1.0000 0.85860  0.79740  0.07300  Biso   1.000  O
  O7       1.0000 0.19300  0.43020  0.87065  Biso   1.000  O
  O8       1.0000 0.29440  0.95880  0.89147  Biso   1.000  O
  O9       1.0000 0.18300  0.68040  0.86744  Biso   1.000  O
  O10      1.0000 0.01120  0.98400  0.07393  Biso   1.000  O
  O11      1.0000 0.98390  0.37070  0.18751  Biso   1.000  O
  O12      1.0000 0.55080  0.76400  0.09749  Biso   1.000  O
  O13      1.0000 0.38420  0.53380  0.11654  Biso   1.000  O
  O14      1.0000 0.10550  0.24830  0.09675  Biso   1.000  O
  O15      1.0000 0.53540  0.93540  0.90826  Biso   1.000  O
  O16      1.0000 0.95330  0.01710  0.35076  Biso   1.000  O
  O17      1.0000 0.19460  0.04760  0.35908  Biso   1.000  O
  O18      1.0000 0.80250  0.66050  0.19701  Biso   1.000  O
  O19      1.0000 0.64090  0.81670  0.16531  Biso   1.000  O
  O20      1.0000 0.49540  0.85540  0.36640  Biso   1.000  O
  O21      1.0000 0.20260  0.14140  0.42700  Biso   1.000  O
  O22      1.0000 0.56980  0.80700  0.62935  Biso   1.000  O
  O23      1.0000 0.04120  0.70560  0.60853  Biso   1.000  O
  O24      1.0000 0.31960  0.81700  0.63256  Biso   1.000  O
  O25      1.0000 0.01600  0.98880  0.42607  Biso   1.000  O
  O26      1.0000 0.62930  0.01610  0.31249  Biso   1.000  O
  O27      1.0000 0.23600  0.44920  0.40251  Biso   1.000  O
  O28      1.0000 0.46620  0.61580  0.38346  Biso   1.000  O
  O29      1.0000 0.75170  0.89450  0.40325  Biso   1.000  O
  O30      1.0000 0.06460  0.46460  0.59174  Biso   1.000  O
  O31      1.0000 0.01710  0.95330  0.85076  Biso   1.000  O
  O32      1.0000 0.04760  0.19460  0.85908  Biso   1.000  O
  O33      1.0000 0.66050  0.80250  0.69701  Biso   1.000  O
  O34      1.0000 0.81670  0.64090  0.66531  Biso   1.000  O
  O35      1.0000 0.85540  0.49540  0.86640  Biso   1.000  O
  O36      1.0000 0.14140  0.20260  0.92700  Biso   1.000  O
  O37      1.0000 0.80700  0.56980  0.12935  Biso   1.000  O
  O38      1.0000 0.70560  0.04120  0.10853  Biso   1.000  O
  O39      1.0000 0.81700  0.31960  0.13256  Biso   1.000  O
  O40      1.0000 0.98880  0.01600  0.92607  Biso   1.000  O
  O41      1.0000 0.01610  0.62930  0.81249  Biso   1.000  O
  O42      1.0000 0.44920  0.23600  0.90251  Biso   1.000  O
  O43      1.0000 0.61580  0.46620  0.88346  Biso   1.000  O
  O44      1.0000 0.89450  0.75170  0.90325  Biso   1.000  O
  O45      1.0000 0.46460  0.06460  0.09174  Biso   1.000  O
  O46      1.0000 0.04670  0.98290  0.64924  Biso   1.000  O
  O47      1.0000 0.80540  0.95240  0.64092  Biso   1.000  O
  O48      1.0000 0.19750  0.33950  0.80299  Biso   1.000  O
  O49      1.0000 0.35910  0.18330  0.83469  Biso   1.000  O
  O50      1.0000 0.50460  0.14460  0.63360  Biso   1.000  O
  O51      1.0000 0.79740  0.85860  0.57300  Biso   1.000  O
  O52      1.0000 0.43020  0.19300  0.37065  Biso   1.000  O
  O53      1.0000 0.95880  0.29440  0.39147  Biso   1.000  O
  O54      1.0000 0.68040  0.18300  0.36744  Biso   1.000  O
  O55      1.0000 0.98400  0.01120  0.57393  Biso   1.000  O
  O56      1.0000 0.37070  0.98390  0.68751  Biso   1.000  O
  O57      1.0000 0.76400  0.55080  0.59749  Biso   1.000  O
  O58      1.0000 0.53380  0.38420  0.61654  Biso   1.000  O
  O59      1.0000 0.24830  0.10550  0.59675  Biso   1.000  O
  O60      1.0000 0.93540  0.53540  0.40826  Biso   1.000  O
