data_image0
_cell_length_a       10.2089
_cell_length_b       11.479
_cell_length_c       11.6675
_cell_angle_alpha    112.685
_cell_angle_beta     103.952
_cell_angle_gamma    94.644

_symmetry_space_group_name_H-M    "P 1"
_symmetry_int_tables_number       1

loop_
  _symmetry_equiv_pos_as_xyz
  'x, y, z'

loop_
  _atom_site_label
  _atom_site_occupancy
  _atom_site_fract_x
  _atom_site_fract_y
  _atom_site_fract_z
  _atom_site_thermal_displace_type
  _atom_site_B_iso_or_equiv
  _atom_site_type_symbol
  C1       1.0000 0.50690  0.20580  0.15980  Biso   1.000  C
  H1       1.0000 0.59650  0.20210  0.20700  Biso   1.000  H
  H2       1.0000 0.43780  0.15570  0.17400  Biso   1.000  H
  H3       1.0000 0.49490  0.29360  0.18960  Biso   1.000  H
  C2       1.0000 0.49370  0.15220  0.01570  Biso   1.000  C
  C3       1.0000 0.36650  0.15040  0.93090  Biso   1.000  C
  C4       1.0000 0.34550  0.11820  0.79600  Biso   1.000  C
  C5       1.0000 0.21570  0.13890  0.71800  Biso   1.000  C
  H4       1.0000 0.21690  0.11280  0.62960  Biso   1.000  H
  H5       1.0000 0.21050  0.22830  0.75460  Biso   1.000  H
  H6       1.0000 0.13720  0.08860  0.72010  Biso   1.000  H
  C6       1.0000 0.43250  0.03370  0.60340  Biso   1.000  C
  C7       1.0000 0.47890  0.90460  0.55220  Biso   1.000  C
  H7       1.0000 0.57100  0.91230  0.60540  Biso   1.000  H
  H8       1.0000 0.41800  0.83970  0.55880  Biso   1.000  H
  C8       1.0000 0.52190  0.13790  0.58860  Biso   1.000  C
  H9       1.0000 0.48700  0.21720  0.61660  Biso   1.000  H
  H10      1.0000 0.61550  0.15440  0.64340  Biso   1.000  H
  C9       1.0000 0.88300  0.99850  0.79100  Biso   1.000  C
  H11      1.0000 0.81930  0.04120  0.83280  Biso   1.000  H
  H12      1.0000 0.84080  0.95820  0.69850  Biso   1.000  H
  H13      1.0000 0.96390  0.06030  0.81130  Biso   1.000  H
  C10      1.0000 0.92240  0.89800  0.83840  Biso   1.000  C
  C11      1.0000 0.01570  0.82420  0.78800  Biso   1.000  C
  C12      1.0000 0.04030  0.71270  0.80840  Biso   1.000  C
  C13      1.0000 0.12030  0.62460  0.73160  Biso   1.000  C
  H14      1.0000 0.12820  0.55390  0.75590  Biso   1.000  H
  H15      1.0000 0.21050  0.67160  0.74980  Biso   1.000  H
  H16      1.0000 0.07320  0.59230  0.64040  Biso   1.000  H
  C14      1.0000 0.00420  0.56630  0.91480  Biso   1.000  C
  C15      1.0000 0.12090  0.60220  0.04100  Biso   1.000  C
  H17      1.0000 0.20720  0.63210  0.03090  Biso   1.000  H
  H18      1.0000 0.10280  0.67150  0.11190  Biso   1.000  H
  C16      1.0000 0.86750  0.51430  0.92650  Biso   1.000  C
  H19      1.0000 0.84260  0.58120  0.99430  Biso   1.000  H
  H20      1.0000 0.79570  0.48960  0.84530  Biso   1.000  H
  N1       1.0000 0.43790  0.07290  0.73960  Biso   1.000  N
  H21      1.0000 0.51110  0.06510  0.78890  Biso   1.000  H
  N2       1.0000 0.98820  0.67920  0.88630  Biso   1.000  N
  H22      1.0000 0.93910  0.72910  0.92500  Biso   1.000  H
  O1       1.0000 0.59180  0.11140  0.97580  Biso   1.000  O
  O2       1.0000 0.86750  0.88140  0.91800  Biso   1.000  O
  Ag1      1.0000 0.22681  0.96111  0.91920  Biso   1.000  Ag
  C17      1.0000 0.49310  0.79420  0.84020  Biso   1.000  C
  H23      1.0000 0.40350  0.79790  0.79300  Biso   1.000  H
  H24      1.0000 0.56220  0.84430  0.82600  Biso   1.000  H
  H25      1.0000 0.50510  0.70640  0.81040  Biso   1.000  H
  C18      1.0000 0.50630  0.84780  0.98430  Biso   1.000  C
  C19      1.0000 0.63350  0.84960  0.06910  Biso   1.000  C
  C20      1.0000 0.65450  0.88180  0.20400  Biso   1.000  C
  C21      1.0000 0.78430  0.86110  0.28200  Biso   1.000  C
  H26      1.0000 0.78310  0.88720  0.37040  Biso   1.000  H
  H27      1.0000 0.78950  0.77170  0.24540  Biso   1.000  H
  H28      1.0000 0.86280  0.91140  0.27990  Biso   1.000  H
  C22      1.0000 0.56750  0.96630  0.39660  Biso   1.000  C
  C23      1.0000 0.52110  0.09540  0.44780  Biso   1.000  C
  H29      1.0000 0.42900  0.08770  0.39460  Biso   1.000  H
  H30      1.0000 0.58200  0.16030  0.44120  Biso   1.000  H
  C24      1.0000 0.47810  0.86210  0.41140  Biso   1.000  C
  H31      1.0000 0.51300  0.78280  0.38340  Biso   1.000  H
  H32      1.0000 0.38450  0.84560  0.35660  Biso   1.000  H
  C25      1.0000 0.11700  0.00150  0.20900  Biso   1.000  C
  H33      1.0000 0.18070  0.95880  0.16720  Biso   1.000  H
  H34      1.0000 0.15920  0.04180  0.30150  Biso   1.000  H
  H35      1.0000 0.03610  0.93970  0.18870  Biso   1.000  H
  C26      1.0000 0.07760  0.10200  0.16160  Biso   1.000  C
  C27      1.0000 0.98430  0.17580  0.21200  Biso   1.000  C
  C28      1.0000 0.95970  0.28730  0.19160  Biso   1.000  C
  C29      1.0000 0.87970  0.37540  0.26840  Biso   1.000  C
  H36      1.0000 0.87180  0.44610  0.24410  Biso   1.000  H
  H37      1.0000 0.78950  0.32840  0.25020  Biso   1.000  H
  H38      1.0000 0.92680  0.40770  0.35960  Biso   1.000  H
  C30      1.0000 0.99580  0.43370  0.08520  Biso   1.000  C
  C31      1.0000 0.87910  0.39780  0.95900  Biso   1.000  C
  H39      1.0000 0.79280  0.36790  0.96910  Biso   1.000  H
  H40      1.0000 0.89720  0.32850  0.88810  Biso   1.000  H
  C32      1.0000 0.13250  0.48570  0.07350  Biso   1.000  C
  H41      1.0000 0.15740  0.41880  0.00570  Biso   1.000  H
  H42      1.0000 0.20430  0.51040  0.15470  Biso   1.000  H
  N3       1.0000 0.56210  0.92710  0.26040  Biso   1.000  N
  H43      1.0000 0.48890  0.93490  0.21110  Biso   1.000  H
  N4       1.0000 0.01180  0.32080  0.11370  Biso   1.000  N
  H44      1.0000 0.06090  0.27090  0.07500  Biso   1.000  H
  O3       1.0000 0.40820  0.88860  0.02420  Biso   1.000  O
  O4       1.0000 0.13250  0.11860  0.08200  Biso   1.000  O
  Ag2      1.0000 0.77319  0.03889  0.08080  Biso   1.000  Ag
