data_image0
_cell_length_a       5.5234
_cell_length_b       13.349
_cell_length_c       20.586
_cell_angle_alpha    90
_cell_angle_beta     95.29
_cell_angle_gamma    90

_symmetry_space_group_name_H-M    P 1
_symmetry_int_tables_number       1

loop_
  _symmetry_equiv_pos_as_xyz
  'x, y, z'

loop_
  _atom_site_label
  _atom_site_occupancy
  _atom_site_fract_x
  _atom_site_fract_y
  _atom_site_fract_z
  _atom_site_thermal_displace_type
  _atom_site_B_iso_or_equiv
  _atom_site_type_symbol
  Y1       1.0000 0.62640  0.13175  0.97210  Biso   1.000  Y
  Y2       1.0000 0.37360  0.63175  0.52790  Biso   1.000  Y
  Y3       1.0000 0.37360  0.86825  0.02790  Biso   1.000  Y
  Y4       1.0000 0.62640  0.36825  0.47210  Biso   1.000  Y
  P1       1.0000 0.90840  0.02047  0.08510  Biso   1.000  P
  P2       1.0000 0.09160  0.52047  0.41490  Biso   1.000  P
  P3       1.0000 0.09160  0.97953  0.91490  Biso   1.000  P
  P4       1.0000 0.90840  0.47953  0.58510  Biso   1.000  P
  H1       1.0000 0.37280  0.23790  0.05740  Biso   1.000  H
  H2       1.0000 0.52910  0.18010  0.09760  Biso   1.000  H
  H3       1.0000 0.77530  0.31650  0.93450  Biso   1.000  H
  H4       1.0000 0.98420  0.26710  0.95810  Biso   1.000  H
  H5       1.0000 0.76520  0.97180  0.18260  Biso   1.000  H
  H6       1.0000 0.66640  0.07840  0.16320  Biso   1.000  H
  H7       1.0000 0.75660  0.10410  0.28540  Biso   1.000  H
  H8       1.0000 0.88400  0.99900  0.29110  Biso   1.000  H
  H9       1.0000 0.03830  0.10210  0.37750  Biso   1.000  H
  H10      1.0000 0.24740  0.07350  0.33420  Biso   1.000  H
  H11      1.0000 0.99020  0.25710  0.32600  Biso   1.000  H
  H12      1.0000 0.23020  0.30710  0.24610  Biso   1.000  H
  H13      1.0000 0.37350  0.20560  0.25130  Biso   1.000  H
  H14      1.0000 0.09070  0.19820  0.16120  Biso   1.000  H
  H15      1.0000 0.87980  0.22610  0.20400  Biso   1.000  H
  H16      1.0000 0.62720  0.73790  0.44260  Biso   1.000  H
  H17      1.0000 0.47090  0.68010  0.40240  Biso   1.000  H
  H18      1.0000 0.22470  0.81650  0.56550  Biso   1.000  H
  H19      1.0000 0.01580  0.76710  0.54190  Biso   1.000  H
  H20      1.0000 0.23480  0.47180  0.31740  Biso   1.000  H
  H21      1.0000 0.33360  0.57840  0.33680  Biso   1.000  H
  H22      1.0000 0.24340  0.60410  0.21460  Biso   1.000  H
  H23      1.0000 0.11600  0.49900  0.20890  Biso   1.000  H
  H24      1.0000 0.96170  0.60210  0.12250  Biso   1.000  H
  H25      1.0000 0.75260  0.57350  0.16580  Biso   1.000  H
  H26      1.0000 0.00980  0.75710  0.17400  Biso   1.000  H
  H27      1.0000 0.76980  0.80710  0.25390  Biso   1.000  H
  H28      1.0000 0.62650  0.70560  0.24870  Biso   1.000  H
  H29      1.0000 0.90930  0.69820  0.33880  Biso   1.000  H
  H30      1.0000 0.12020  0.72610  0.29600  Biso   1.000  H
  H31      1.0000 0.62720  0.76210  0.94260  Biso   1.000  H
  H32      1.0000 0.47090  0.81990  0.90240  Biso   1.000  H
  H33      1.0000 0.22470  0.68350  0.06550  Biso   1.000  H
  H34      1.0000 0.01580  0.73290  0.04190  Biso   1.000  H
  H35      1.0000 0.23480  0.02820  0.81740  Biso   1.000  H
  H36      1.0000 0.33360  0.92160  0.83680  Biso   1.000  H
  H37      1.0000 0.24340  0.89590  0.71460  Biso   1.000  H
  H38      1.0000 0.11600  0.00100  0.70890  Biso   1.000  H
  H39      1.0000 0.96170  0.89790  0.62250  Biso   1.000  H
  H40      1.0000 0.75260  0.92650  0.66580  Biso   1.000  H
  H41      1.0000 0.00980  0.74290  0.67400  Biso   1.000  H
  H42      1.0000 0.76980  0.69290  0.75390  Biso   1.000  H
  H43      1.0000 0.62650  0.79440  0.74870  Biso   1.000  H
  H44      1.0000 0.90930  0.80180  0.83880  Biso   1.000  H
  H45      1.0000 0.12020  0.77390  0.79600  Biso   1.000  H
  H46      1.0000 0.37280  0.26210  0.55740  Biso   1.000  H
  H47      1.0000 0.52910  0.31990  0.59760  Biso   1.000  H
  H48      1.0000 0.77530  0.18350  0.43450  Biso   1.000  H
  H49      1.0000 0.98420  0.23290  0.45810  Biso   1.000  H
  H50      1.0000 0.76520  0.52820  0.68260  Biso   1.000  H
  H51      1.0000 0.66640  0.42160  0.66320  Biso   1.000  H
  H52      1.0000 0.75660  0.39590  0.78540  Biso   1.000  H
  H53      1.0000 0.88400  0.50100  0.79110  Biso   1.000  H
  H54      1.0000 0.03830  0.39790  0.87750  Biso   1.000  H
  H55      1.0000 0.24740  0.42650  0.83420  Biso   1.000  H
  H56      1.0000 0.99020  0.24290  0.82600  Biso   1.000  H
  H57      1.0000 0.23020  0.19290  0.74610  Biso   1.000  H
  H58      1.0000 0.37350  0.29440  0.75130  Biso   1.000  H
  H59      1.0000 0.09070  0.30180  0.66120  Biso   1.000  H
  H60      1.0000 0.87980  0.27390  0.70400  Biso   1.000  H
  C1       1.0000 0.81110  0.03690  0.16660  Biso   1.000  C
  C2       1.0000 0.91000  0.06960  0.28300  Biso   1.000  C
  C3       1.0000 0.09670  0.11070  0.33490  Biso   1.000  C
  C4       1.0000 0.14420  0.22160  0.32320  Biso   1.000  C
  C5       1.0000 0.21570  0.23600  0.25470  Biso   1.000  C
  C6       1.0000 0.03280  0.19040  0.20400  Biso   1.000  C
  C7       1.0000 0.32790  0.26620  0.37490  Biso   1.000  C
  C8       1.0000 0.18890  0.53690  0.33340  Biso   1.000  C
  C9       1.0000 0.09000  0.56960  0.21700  Biso   1.000  C
  C10      1.0000 0.90330  0.61070  0.16510  Biso   1.000  C
  C11      1.0000 0.85580  0.72160  0.17680  Biso   1.000  C
  C12      1.0000 0.78430  0.73600  0.24530  Biso   1.000  C
  C13      1.0000 0.96720  0.69040  0.29600  Biso   1.000  C
  C14      1.0000 0.67210  0.76620  0.12510  Biso   1.000  C
  C15      1.0000 0.18890  0.96310  0.83340  Biso   1.000  C
  C16      1.0000 0.09000  0.93040  0.71700  Biso   1.000  C
  C17      1.0000 0.90330  0.88930  0.66510  Biso   1.000  C
  C18      1.0000 0.85580  0.77840  0.67680  Biso   1.000  C
  C19      1.0000 0.78430  0.76400  0.74530  Biso   1.000  C
  C20      1.0000 0.96720  0.80960  0.79600  Biso   1.000  C
  C21      1.0000 0.67210  0.73380  0.62510  Biso   1.000  C
  C22      1.0000 0.81110  0.46310  0.66660  Biso   1.000  C
  C23      1.0000 0.91000  0.43040  0.78300  Biso   1.000  C
  C24      1.0000 0.09670  0.38930  0.83490  Biso   1.000  C
  C25      1.0000 0.14420  0.27840  0.82320  Biso   1.000  C
  C26      1.0000 0.21570  0.26400  0.75470  Biso   1.000  C
  C27      1.0000 0.03280  0.30960  0.70400  Biso   1.000  C
  C28      1.0000 0.32790  0.23380  0.87490  Biso   1.000  C
  N1       1.0000 0.99150  0.08250  0.21640  Biso   1.000  N
  N2       1.0000 0.00850  0.58250  0.28360  Biso   1.000  N
  N3       1.0000 0.00850  0.91750  0.78360  Biso   1.000  N
  N4       1.0000 0.99150  0.41750  0.71640  Biso   1.000  N
  O1       1.0000 0.67980  0.97990  0.04550  Biso   1.000  O
  O2       1.0000 0.95750  0.12190  0.05410  Biso   1.000  O
  O3       1.0000 0.12260  0.95040  0.09070  Biso   1.000  O
  O4       1.0000 0.30270  0.24880  0.43420  Biso   1.000  O
  O5       1.0000 0.49510  0.32100  0.35940  Biso   1.000  O
  O6       1.0000 0.42920  0.17970  0.06430  Biso   1.000  O
  O7       1.0000 0.84060  0.28080  0.96480  Biso   1.000  O
  O8       1.0000 0.32020  0.47990  0.45450  Biso   1.000  O
  O9       1.0000 0.04250  0.62190  0.44590  Biso   1.000  O
  O10      1.0000 0.87740  0.45040  0.40930  Biso   1.000  O
  O11      1.0000 0.69730  0.74880  0.06580  Biso   1.000  O
  O12      1.0000 0.50490  0.82100  0.14060  Biso   1.000  O
  O13      1.0000 0.57080  0.67970  0.43570  Biso   1.000  O
  O14      1.0000 0.15940  0.78080  0.53520  Biso   1.000  O
  O15      1.0000 0.32020  0.02010  0.95450  Biso   1.000  O
  O16      1.0000 0.04250  0.87810  0.94590  Biso   1.000  O
  O17      1.0000 0.87740  0.04960  0.90930  Biso   1.000  O
  O18      1.0000 0.69730  0.75120  0.56580  Biso   1.000  O
  O19      1.0000 0.50490  0.67900  0.64060  Biso   1.000  O
  O20      1.0000 0.57080  0.82030  0.93570  Biso   1.000  O
  O21      1.0000 0.15940  0.71920  0.03520  Biso   1.000  O
  O22      1.0000 0.67980  0.52010  0.54550  Biso   1.000  O
  O23      1.0000 0.95750  0.37810  0.55410  Biso   1.000  O
  O24      1.0000 0.12260  0.54960  0.59070  Biso   1.000  O
  O25      1.0000 0.30270  0.25120  0.93420  Biso   1.000  O
  O26      1.0000 0.49510  0.17900  0.85940  Biso   1.000  O
  O27      1.0000 0.42920  0.32030  0.56430  Biso   1.000  O
  O28      1.0000 0.84060  0.21920  0.46480  Biso   1.000  O
