data_image0
_cell_length_a       5.5871
_cell_length_b       13.424
_cell_length_c       21.157
_cell_angle_alpha    90
_cell_angle_beta     96.148
_cell_angle_gamma    90

_symmetry_space_group_name_H-M    P 1
_symmetry_int_tables_number       1

loop_
  _symmetry_equiv_pos_as_xyz
  'x, y, z'

loop_
  _atom_site_label
  _atom_site_occupancy
  _atom_site_fract_x
  _atom_site_fract_y
  _atom_site_fract_z
  _atom_site_thermal_displace_type
  _atom_site_B_iso_or_equiv
  _atom_site_type_symbol
  Nd1      1.0000 0.62854  0.13445  0.97151  Biso   1.000  Nd
  Nd2      1.0000 0.37146  0.63445  0.52849  Biso   1.000  Nd
  Nd3      1.0000 0.37146  0.86555  0.02849  Biso   1.000  Nd
  Nd4      1.0000 0.62854  0.36555  0.47151  Biso   1.000  Nd
  P1       1.0000 0.91220  0.02307  0.08680  Biso   1.000  P
  P2       1.0000 0.08780  0.52307  0.41320  Biso   1.000  P
  P3       1.0000 0.08780  0.97693  0.91320  Biso   1.000  P
  P4       1.0000 0.91220  0.47693  0.58680  Biso   1.000  P
  H1       1.0000 0.36520  0.24590  0.05680  Biso   1.000  H
  H2       1.0000 0.52140  0.18810  0.09690  Biso   1.000  H
  H3       1.0000 0.79450  0.32510  0.93530  Biso   1.000  H
  H4       1.0000 0.00350  0.27570  0.95890  Biso   1.000  H
  H5       1.0000 0.76470  0.97450  0.17990  Biso   1.000  H
  H6       1.0000 0.67430  0.08180  0.16150  Biso   1.000  H
  H7       1.0000 0.76010  0.10060  0.28060  Biso   1.000  H
  H8       1.0000 0.88940  0.99680  0.28640  Biso   1.000  H
  H9       1.0000 0.03350  0.09910  0.37130  Biso   1.000  H
  H10      1.0000 0.24310  0.07100  0.33090  Biso   1.000  H
  H11      1.0000 0.99240  0.25480  0.32250  Biso   1.000  H
  H12      1.0000 0.23620  0.30330  0.24560  Biso   1.000  H
  H13      1.0000 0.37050  0.20050  0.25080  Biso   1.000  H
  H14      1.0000 0.08070  0.19830  0.16130  Biso   1.000  H
  H15      1.0000 0.87650  0.22380  0.20430  Biso   1.000  H
  H16      1.0000 0.63480  0.74590  0.44320  Biso   1.000  H
  H17      1.0000 0.47860  0.68810  0.40310  Biso   1.000  H
  H18      1.0000 0.20550  0.82510  0.56470  Biso   1.000  H
  H19      1.0000 0.99650  0.77570  0.54110  Biso   1.000  H
  H20      1.0000 0.23530  0.47450  0.32010  Biso   1.000  H
  H21      1.0000 0.32570  0.58180  0.33850  Biso   1.000  H
  H22      1.0000 0.23990  0.60060  0.21940  Biso   1.000  H
  H23      1.0000 0.11060  0.49680  0.21360  Biso   1.000  H
  H24      1.0000 0.96650  0.59910  0.12870  Biso   1.000  H
  H25      1.0000 0.75690  0.57100  0.16910  Biso   1.000  H
  H26      1.0000 0.00760  0.75480  0.17750  Biso   1.000  H
  H27      1.0000 0.76380  0.80330  0.25440  Biso   1.000  H
  H28      1.0000 0.62950  0.70050  0.24920  Biso   1.000  H
  H29      1.0000 0.91930  0.69830  0.33870  Biso   1.000  H
  H30      1.0000 0.12350  0.72380  0.29570  Biso   1.000  H
  H31      1.0000 0.63480  0.75410  0.94320  Biso   1.000  H
  H32      1.0000 0.47860  0.81190  0.90310  Biso   1.000  H
  H33      1.0000 0.20550  0.67490  0.06470  Biso   1.000  H
  H34      1.0000 0.99650  0.72430  0.04110  Biso   1.000  H
  H35      1.0000 0.23530  0.02550  0.82010  Biso   1.000  H
  H36      1.0000 0.32570  0.91820  0.83850  Biso   1.000  H
  H37      1.0000 0.23990  0.89940  0.71940  Biso   1.000  H
  H38      1.0000 0.11060  0.00320  0.71360  Biso   1.000  H
  H39      1.0000 0.96650  0.90090  0.62870  Biso   1.000  H
  H40      1.0000 0.75690  0.92900  0.66910  Biso   1.000  H
  H41      1.0000 0.00760  0.74520  0.67750  Biso   1.000  H
  H42      1.0000 0.76380  0.69670  0.75440  Biso   1.000  H
  H43      1.0000 0.62950  0.79950  0.74920  Biso   1.000  H
  H44      1.0000 0.91930  0.80170  0.83870  Biso   1.000  H
  H45      1.0000 0.12350  0.77620  0.79570  Biso   1.000  H
  H46      1.0000 0.36520  0.25410  0.55680  Biso   1.000  H
  H47      1.0000 0.52140  0.31190  0.59690  Biso   1.000  H
  H48      1.0000 0.79450  0.17490  0.43530  Biso   1.000  H
  H49      1.0000 0.00350  0.22430  0.45890  Biso   1.000  H
  H50      1.0000 0.76470  0.52550  0.67990  Biso   1.000  H
  H51      1.0000 0.67430  0.41820  0.66150  Biso   1.000  H
  H52      1.0000 0.76010  0.39940  0.78060  Biso   1.000  H
  H53      1.0000 0.88940  0.50320  0.78640  Biso   1.000  H
  H54      1.0000 0.03350  0.40090  0.87130  Biso   1.000  H
  H55      1.0000 0.24310  0.42900  0.83090  Biso   1.000  H
  H56      1.0000 0.99240  0.24520  0.82250  Biso   1.000  H
  H57      1.0000 0.23620  0.19670  0.74560  Biso   1.000  H
  H58      1.0000 0.37050  0.29950  0.75080  Biso   1.000  H
  H59      1.0000 0.08070  0.30170  0.66130  Biso   1.000  H
  H60      1.0000 0.87650  0.27620  0.70430  Biso   1.000  H
  C1       1.0000 0.81490  0.03890  0.16530  Biso   1.000  C
  C2       1.0000 0.91320  0.06720  0.27900  Biso   1.000  C
  C3       1.0000 0.09390  0.10800  0.33040  Biso   1.000  C
  C4       1.0000 0.14400  0.21880  0.32040  Biso   1.000  C
  C5       1.0000 0.21680  0.23280  0.25370  Biso   1.000  C
  C6       1.0000 0.02830  0.18910  0.20320  Biso   1.000  C
  C7       1.0000 0.32600  0.26090  0.37170  Biso   1.000  C
  C8       1.0000 0.18510  0.53890  0.33470  Biso   1.000  C
  C9       1.0000 0.08680  0.56720  0.22100  Biso   1.000  C
  C10      1.0000 0.90610  0.60800  0.16960  Biso   1.000  C
  C11      1.0000 0.85600  0.71880  0.17960  Biso   1.000  C
  C12      1.0000 0.78320  0.73280  0.24630  Biso   1.000  C
  C13      1.0000 0.97170  0.68910  0.29680  Biso   1.000  C
  C14      1.0000 0.67400  0.76090  0.12830  Biso   1.000  C
  C15      1.0000 0.18510  0.96110  0.83470  Biso   1.000  C
  C16      1.0000 0.08680  0.93280  0.72100  Biso   1.000  C
  C17      1.0000 0.90610  0.89200  0.66960  Biso   1.000  C
  C18      1.0000 0.85600  0.78120  0.67960  Biso   1.000  C
  C19      1.0000 0.78320  0.76720  0.74630  Biso   1.000  C
  C20      1.0000 0.97170  0.81090  0.79680  Biso   1.000  C
  C21      1.0000 0.67400  0.73910  0.62830  Biso   1.000  C
  C22      1.0000 0.81490  0.46110  0.66530  Biso   1.000  C
  C23      1.0000 0.91320  0.43280  0.77900  Biso   1.000  C
  C24      1.0000 0.09390  0.39200  0.83040  Biso   1.000  C
  C25      1.0000 0.14400  0.28120  0.82040  Biso   1.000  C
  C26      1.0000 0.21680  0.26720  0.75370  Biso   1.000  C
  C27      1.0000 0.02830  0.31090  0.70320  Biso   1.000  C
  C28      1.0000 0.32600  0.23910  0.87170  Biso   1.000  C
  N1       1.0000 0.99420  0.08120  0.21510  Biso   1.000  N
  N2       1.0000 0.00580  0.58120  0.28490  Biso   1.000  N
  N3       1.0000 0.00580  0.91880  0.78490  Biso   1.000  N
  N4       1.0000 0.99420  0.41880  0.71510  Biso   1.000  N
  O1       1.0000 0.68580  0.98260  0.04648  Biso   1.000  O
  O2       1.0000 0.96320  0.12330  0.05740  Biso   1.000  O
  O3       1.0000 0.12270  0.95240  0.09190  Biso   1.000  O
  O4       1.0000 0.29920  0.24440  0.42940  Biso   1.000  O
  O5       1.0000 0.49480  0.31510  0.35790  Biso   1.000  O
  O6       1.0000 0.42160  0.18770  0.06370  Biso   1.000  O
  O7       1.0000 0.85980  0.28940  0.96560  Biso   1.000  O
  O8       1.0000 0.31420  0.48260  0.45352  Biso   1.000  O
  O9       1.0000 0.03680  0.62330  0.44260  Biso   1.000  O
  O10      1.0000 0.87730  0.45240  0.40810  Biso   1.000  O
  O11      1.0000 0.70080  0.74440  0.07060  Biso   1.000  O
  O12      1.0000 0.50520  0.81510  0.14210  Biso   1.000  O
  O13      1.0000 0.57840  0.68770  0.43630  Biso   1.000  O
  O14      1.0000 0.14020  0.78940  0.53440  Biso   1.000  O
  O15      1.0000 0.31420  0.01740  0.95352  Biso   1.000  O
  O16      1.0000 0.03680  0.87670  0.94260  Biso   1.000  O
  O17      1.0000 0.87730  0.04760  0.90810  Biso   1.000  O
  O18      1.0000 0.70080  0.75560  0.57060  Biso   1.000  O
  O19      1.0000 0.50520  0.68490  0.64210  Biso   1.000  O
  O20      1.0000 0.57840  0.81230  0.93630  Biso   1.000  O
  O21      1.0000 0.14020  0.71060  0.03440  Biso   1.000  O
  O22      1.0000 0.68580  0.51740  0.54648  Biso   1.000  O
  O23      1.0000 0.96320  0.37670  0.55740  Biso   1.000  O
  O24      1.0000 0.12270  0.54760  0.59190  Biso   1.000  O
  O25      1.0000 0.29920  0.25560  0.92940  Biso   1.000  O
  O26      1.0000 0.49480  0.18490  0.85790  Biso   1.000  O
  O27      1.0000 0.42160  0.31230  0.56370  Biso   1.000  O
  O28      1.0000 0.85980  0.21060  0.46560  Biso   1.000  O
