data_image0
_cell_length_a       5.6068
_cell_length_b       13.382
_cell_length_c       21.192
_cell_angle_alpha    90
_cell_angle_beta     95.892
_cell_angle_gamma    90

_symmetry_space_group_name_H-M    P 1
_symmetry_int_tables_number       1

loop_
  _symmetry_equiv_pos_as_xyz
  'x, y, z'

loop_
  _atom_site_label
  _atom_site_occupancy
  _atom_site_fract_x
  _atom_site_fract_y
  _atom_site_fract_z
  _atom_site_thermal_displace_type
  _atom_site_B_iso_or_equiv
  _atom_site_type_symbol
  Pr1      1.0000 0.62969  0.13596  0.97105  Biso   1.000  Pr
  Pr2      1.0000 0.37031  0.63596  0.52895  Biso   1.000  Pr
  Pr3      1.0000 0.37031  0.86404  0.02895  Biso   1.000  Pr
  Pr4      1.0000 0.62969  0.36404  0.47105  Biso   1.000  Pr
  P1       1.0000 0.91040  0.02303  0.08661  Biso   1.000  P
  P2       1.0000 0.08960  0.52303  0.41339  Biso   1.000  P
  P3       1.0000 0.08960  0.97697  0.91339  Biso   1.000  P
  P4       1.0000 0.91040  0.47697  0.58661  Biso   1.000  P
  H1       1.0000 0.36070  0.24690  0.05570  Biso   1.000  H
  H2       1.0000 0.51690  0.18910  0.09580  Biso   1.000  H
  H3       1.0000 0.79490  0.32700  0.93510  Biso   1.000  H
  H4       1.0000 0.00380  0.27760  0.95870  Biso   1.000  H
  H5       1.0000 0.75690  0.97600  0.17960  Biso   1.000  H
  H6       1.0000 0.67270  0.08440  0.16100  Biso   1.000  H
  H7       1.0000 0.75800  0.10440  0.27960  Biso   1.000  H
  H8       1.0000 0.88030  0.99900  0.28580  Biso   1.000  H
  H9       1.0000 0.02630  0.10060  0.37060  Biso   1.000  H
  H10      1.0000 0.23570  0.07020  0.33070  Biso   1.000  H
  H11      1.0000 0.99480  0.25680  0.32140  Biso   1.000  H
  H12      1.0000 0.24250  0.30220  0.24570  Biso   1.000  H
  H13      1.0000 0.37040  0.19790  0.25140  Biso   1.000  H
  H14      1.0000 0.08550  0.19770  0.16130  Biso   1.000  H
  H15      1.0000 0.88090  0.22550  0.20350  Biso   1.000  H
  H16      1.0000 0.63930  0.74690  0.44430  Biso   1.000  H
  H17      1.0000 0.48310  0.68910  0.40420  Biso   1.000  H
  H18      1.0000 0.20510  0.82700  0.56490  Biso   1.000  H
  H19      1.0000 0.99620  0.77760  0.54130  Biso   1.000  H
  H20      1.0000 0.24310  0.47600  0.32040  Biso   1.000  H
  H21      1.0000 0.32730  0.58440  0.33900  Biso   1.000  H
  H22      1.0000 0.24200  0.60440  0.22040  Biso   1.000  H
  H23      1.0000 0.11970  0.49900  0.21420  Biso   1.000  H
  H24      1.0000 0.97370  0.60060  0.12940  Biso   1.000  H
  H25      1.0000 0.76430  0.57020  0.16930  Biso   1.000  H
  H26      1.0000 0.00520  0.75680  0.17860  Biso   1.000  H
  H27      1.0000 0.75750  0.80220  0.25430  Biso   1.000  H
  H28      1.0000 0.62960  0.69790  0.24860  Biso   1.000  H
  H29      1.0000 0.91450  0.69770  0.33870  Biso   1.000  H
  H30      1.0000 0.11910  0.72550  0.29650  Biso   1.000  H
  H31      1.0000 0.63930  0.75310  0.94430  Biso   1.000  H
  H32      1.0000 0.48310  0.81090  0.90420  Biso   1.000  H
  H33      1.0000 0.20510  0.67300  0.06490  Biso   1.000  H
  H34      1.0000 0.99620  0.72240  0.04130  Biso   1.000  H
  H35      1.0000 0.24310  0.02400  0.82040  Biso   1.000  H
  H36      1.0000 0.32730  0.91560  0.83900  Biso   1.000  H
  H37      1.0000 0.24200  0.89560  0.72040  Biso   1.000  H
  H38      1.0000 0.11970  0.00100  0.71420  Biso   1.000  H
  H39      1.0000 0.97370  0.89940  0.62940  Biso   1.000  H
  H40      1.0000 0.76430  0.92980  0.66930  Biso   1.000  H
  H41      1.0000 0.00520  0.74320  0.67860  Biso   1.000  H
  H42      1.0000 0.75750  0.69780  0.75430  Biso   1.000  H
  H43      1.0000 0.62960  0.80210  0.74860  Biso   1.000  H
  H44      1.0000 0.91450  0.80230  0.83870  Biso   1.000  H
  H45      1.0000 0.11910  0.77450  0.79650  Biso   1.000  H
  H46      1.0000 0.36070  0.25310  0.55570  Biso   1.000  H
  H47      1.0000 0.51690  0.31090  0.59580  Biso   1.000  H
  H48      1.0000 0.79490  0.17300  0.43510  Biso   1.000  H
  H49      1.0000 0.00380  0.22240  0.45870  Biso   1.000  H
  H50      1.0000 0.75690  0.52400  0.67960  Biso   1.000  H
  H51      1.0000 0.67270  0.41560  0.66100  Biso   1.000  H
  H52      1.0000 0.75800  0.39560  0.77960  Biso   1.000  H
  H53      1.0000 0.88030  0.50100  0.78580  Biso   1.000  H
  H54      1.0000 0.02630  0.39940  0.87060  Biso   1.000  H
  H55      1.0000 0.23570  0.42980  0.83070  Biso   1.000  H
  H56      1.0000 0.99480  0.24320  0.82140  Biso   1.000  H
  H57      1.0000 0.24250  0.19780  0.74570  Biso   1.000  H
  H58      1.0000 0.37040  0.30210  0.75140  Biso   1.000  H
  H59      1.0000 0.08550  0.30230  0.66130  Biso   1.000  H
  H60      1.0000 0.88090  0.27450  0.70350  Biso   1.000  H
  C1       1.0000 0.81050  0.04020  0.16510  Biso   1.000  C
  C2       1.0000 0.90860  0.06930  0.27820  Biso   1.000  C
  C3       1.0000 0.08880  0.10870  0.32990  Biso   1.000  C
  C4       1.0000 0.14450  0.21950  0.31970  Biso   1.000  C
  C5       1.0000 0.21900  0.23180  0.25390  Biso   1.000  C
  C6       1.0000 0.03000  0.18920  0.20280  Biso   1.000  C
  C7       1.0000 0.32570  0.26170  0.37040  Biso   1.000  C
  C8       1.0000 0.18950  0.54020  0.33490  Biso   1.000  C
  C9       1.0000 0.09140  0.56930  0.22180  Biso   1.000  C
  C10      1.0000 0.91120  0.60870  0.17010  Biso   1.000  C
  C11      1.0000 0.85550  0.71950  0.18030  Biso   1.000  C
  C12      1.0000 0.78100  0.73180  0.24610  Biso   1.000  C
  C13      1.0000 0.97000  0.68920  0.29720  Biso   1.000  C
  C14      1.0000 0.67430  0.76170  0.12960  Biso   1.000  C
  C15      1.0000 0.18950  0.95980  0.83490  Biso   1.000  C
  C16      1.0000 0.09140  0.93070  0.72180  Biso   1.000  C
  C17      1.0000 0.91120  0.89130  0.67010  Biso   1.000  C
  C18      1.0000 0.85550  0.78050  0.68030  Biso   1.000  C
  C19      1.0000 0.78100  0.76820  0.74610  Biso   1.000  C
  C20      1.0000 0.97000  0.81080  0.79720  Biso   1.000  C
  C21      1.0000 0.67430  0.73830  0.62960  Biso   1.000  C
  C22      1.0000 0.81050  0.45980  0.66510  Biso   1.000  C
  C23      1.0000 0.90860  0.43070  0.77820  Biso   1.000  C
  C24      1.0000 0.08880  0.39130  0.82990  Biso   1.000  C
  C25      1.0000 0.14450  0.28050  0.81970  Biso   1.000  C
  C26      1.0000 0.21900  0.26820  0.75390  Biso   1.000  C
  C27      1.0000 0.03000  0.31080  0.70280  Biso   1.000  C
  C28      1.0000 0.32570  0.23830  0.87040  Biso   1.000  C
  N1       1.0000 0.98970  0.08130  0.21470  Biso   1.000  N
  N2       1.0000 0.01030  0.58130  0.28530  Biso   1.000  N
  N3       1.0000 0.01030  0.91870  0.78530  Biso   1.000  N
  N4       1.0000 0.98970  0.41870  0.71470  Biso   1.000  N
  O1       1.0000 0.68570  0.98260  0.04700  Biso   1.000  O
  O2       1.0000 0.96160  0.12310  0.05740  Biso   1.000  O
  O3       1.0000 0.12010  0.95250  0.09260  Biso   1.000  O
  O4       1.0000 0.30190  0.24300  0.42820  Biso   1.000  O
  O5       1.0000 0.49490  0.31480  0.35680  Biso   1.000  O
  O6       1.0000 0.41710  0.18860  0.06260  Biso   1.000  O
  O7       1.0000 0.86010  0.29130  0.96540  Biso   1.000  O
  O8       1.0000 0.31430  0.48260  0.45300  Biso   1.000  O
  O9       1.0000 0.03840  0.62310  0.44260  Biso   1.000  O
  O10      1.0000 0.87990  0.45250  0.40740  Biso   1.000  O
  O11      1.0000 0.69810  0.74300  0.07180  Biso   1.000  O
  O12      1.0000 0.50510  0.81480  0.14320  Biso   1.000  O
  O13      1.0000 0.58290  0.68860  0.43740  Biso   1.000  O
  O14      1.0000 0.13990  0.79130  0.53460  Biso   1.000  O
  O15      1.0000 0.31430  0.01740  0.95300  Biso   1.000  O
  O16      1.0000 0.03840  0.87690  0.94260  Biso   1.000  O
  O17      1.0000 0.87990  0.04750  0.90740  Biso   1.000  O
  O18      1.0000 0.69810  0.75700  0.57180  Biso   1.000  O
  O19      1.0000 0.50510  0.68520  0.64320  Biso   1.000  O
  O20      1.0000 0.58290  0.81140  0.93740  Biso   1.000  O
  O21      1.0000 0.13990  0.70870  0.03460  Biso   1.000  O
  O22      1.0000 0.68570  0.51740  0.54700  Biso   1.000  O
  O23      1.0000 0.96160  0.37690  0.55740  Biso   1.000  O
  O24      1.0000 0.12010  0.54750  0.59260  Biso   1.000  O
  O25      1.0000 0.30190  0.25700  0.92820  Biso   1.000  O
  O26      1.0000 0.49490  0.18520  0.85680  Biso   1.000  O
  O27      1.0000 0.41710  0.31140  0.56260  Biso   1.000  O
  O28      1.0000 0.86010  0.20870  0.46540  Biso   1.000  O
