data_image0
_cell_length_a       5.534
_cell_length_b       13.436
_cell_length_c       20.891
_cell_angle_alpha    90
_cell_angle_beta     96.159
_cell_angle_gamma    90

_symmetry_space_group_name_H-M    P 1
_symmetry_int_tables_number       1

loop_
  _symmetry_equiv_pos_as_xyz
  'x, y, z'

loop_
  _atom_site_label
  _atom_site_occupancy
  _atom_site_fract_x
  _atom_site_fract_y
  _atom_site_fract_z
  _atom_site_thermal_displace_type
  _atom_site_B_iso_or_equiv
  _atom_site_type_symbol
  Gd1      1.0000 0.62624  0.13165  0.97231  Biso   1.000  Gd
  Gd2      1.0000 0.37376  0.63165  0.52769  Biso   1.000  Gd
  Gd3      1.0000 0.37376  0.86835  0.02769  Biso   1.000  Gd
  Gd4      1.0000 0.62624  0.36835  0.47231  Biso   1.000  Gd
  P1       1.0000 0.91360  0.02230  0.08645  Biso   1.000  P
  P2       1.0000 0.08640  0.52230  0.41355  Biso   1.000  P
  P3       1.0000 0.08640  0.97770  0.91355  Biso   1.000  P
  P4       1.0000 0.91360  0.47770  0.58645  Biso   1.000  P
  H1       1.0000 0.36920  0.24160  0.05750  Biso   1.000  H
  H2       1.0000 0.52550  0.18380  0.09760  Biso   1.000  H
  H3       1.0000 0.78580  0.31830  0.93560  Biso   1.000  H
  H4       1.0000 0.99470  0.26890  0.95920  Biso   1.000  H
  H5       1.0000 0.77070  0.97380  0.18150  Biso   1.000  H
  H6       1.0000 0.67910  0.08110  0.16330  Biso   1.000  H
  H7       1.0000 0.76630  0.09660  0.28180  Biso   1.000  H
  H8       1.0000 0.90590  0.99490  0.28820  Biso   1.000  H
  H9       1.0000 0.03630  0.09810  0.37310  Biso   1.000  H
  H10      1.0000 0.25150  0.07320  0.33270  Biso   1.000  H
  H11      1.0000 0.98680  0.25350  0.32480  Biso   1.000  H
  H12      1.0000 0.22690  0.30400  0.24740  Biso   1.000  H
  H13      1.0000 0.36840  0.20270  0.25280  Biso   1.000  H
  H14      1.0000 0.07900  0.19860  0.16180  Biso   1.000  H
  H15      1.0000 0.86950  0.22070  0.20500  Biso   1.000  H
  H16      1.0000 0.63080  0.74160  0.44250  Biso   1.000  H
  H17      1.0000 0.47450  0.68380  0.40240  Biso   1.000  H
  H18      1.0000 0.21420  0.81830  0.56440  Biso   1.000  H
  H19      1.0000 0.00530  0.76890  0.54080  Biso   1.000  H
  H20      1.0000 0.22930  0.47380  0.31850  Biso   1.000  H
  H21      1.0000 0.32090  0.58110  0.33670  Biso   1.000  H
  H22      1.0000 0.23370  0.59660  0.21820  Biso   1.000  H
  H23      1.0000 0.09410  0.49490  0.21180  Biso   1.000  H
  H24      1.0000 0.96370  0.59810  0.12690  Biso   1.000  H
  H25      1.0000 0.74850  0.57320  0.16730  Biso   1.000  H
  H26      1.0000 0.01320  0.75350  0.17520  Biso   1.000  H
  H27      1.0000 0.77310  0.80400  0.25260  Biso   1.000  H
  H28      1.0000 0.63160  0.70270  0.24720  Biso   1.000  H
  H29      1.0000 0.92100  0.69860  0.33820  Biso   1.000  H
  H30      1.0000 0.13050  0.72070  0.29500  Biso   1.000  H
  H31      1.0000 0.63080  0.75840  0.94250  Biso   1.000  H
  H32      1.0000 0.47450  0.81620  0.90240  Biso   1.000  H
  H33      1.0000 0.21420  0.68170  0.06440  Biso   1.000  H
  H34      1.0000 0.00530  0.73110  0.04080  Biso   1.000  H
  H35      1.0000 0.22930  0.02620  0.81850  Biso   1.000  H
  H36      1.0000 0.32090  0.91890  0.83670  Biso   1.000  H
  H37      1.0000 0.23370  0.90340  0.71820  Biso   1.000  H
  H38      1.0000 0.09410  0.00510  0.71180  Biso   1.000  H
  H39      1.0000 0.96370  0.90190  0.62690  Biso   1.000  H
  H40      1.0000 0.74850  0.92680  0.66730  Biso   1.000  H
  H41      1.0000 0.01320  0.74650  0.67520  Biso   1.000  H
  H42      1.0000 0.77310  0.69600  0.75260  Biso   1.000  H
  H43      1.0000 0.63160  0.79730  0.74720  Biso   1.000  H
  H44      1.0000 0.92100  0.80140  0.83820  Biso   1.000  H
  H45      1.0000 0.13050  0.77930  0.79500  Biso   1.000  H
  H46      1.0000 0.36920  0.25840  0.55750  Biso   1.000  H
  H47      1.0000 0.52550  0.31620  0.59760  Biso   1.000  H
  H48      1.0000 0.78580  0.18170  0.43560  Biso   1.000  H
  H49      1.0000 0.99470  0.23110  0.45920  Biso   1.000  H
  H50      1.0000 0.77070  0.52620  0.68150  Biso   1.000  H
  H51      1.0000 0.67910  0.41890  0.66330  Biso   1.000  H
  H52      1.0000 0.76630  0.40340  0.78180  Biso   1.000  H
  H53      1.0000 0.90590  0.50510  0.78820  Biso   1.000  H
  H54      1.0000 0.03630  0.40190  0.87310  Biso   1.000  H
  H55      1.0000 0.25150  0.42680  0.83270  Biso   1.000  H
  H56      1.0000 0.98680  0.24650  0.82480  Biso   1.000  H
  H57      1.0000 0.22690  0.19600  0.74740  Biso   1.000  H
  H58      1.0000 0.36840  0.29730  0.75280  Biso   1.000  H
  H59      1.0000 0.07900  0.30140  0.66180  Biso   1.000  H
  H60      1.0000 0.86950  0.27930  0.70500  Biso   1.000  H
  C1       1.0000 0.82100  0.03820  0.16670  Biso   1.000  C
  C2       1.0000 0.92400  0.06560  0.28040  Biso   1.000  C
  C3       1.0000 0.09800  0.10830  0.33180  Biso   1.000  C
  C4       1.0000 0.14200  0.21950  0.32270  Biso   1.000  C
  C5       1.0000 0.21100  0.23340  0.25570  Biso   1.000  C
  C6       1.0000 0.02600  0.18830  0.20410  Biso   1.000  C
  C7       1.0000 0.32200  0.26400  0.37470  Biso   1.000  C
  C8       1.0000 0.17900  0.53820  0.33330  Biso   1.000  C
  C9       1.0000 0.07600  0.56560  0.21960  Biso   1.000  C
  C10      1.0000 0.90200  0.60830  0.16820  Biso   1.000  C
  C11      1.0000 0.85800  0.71950  0.17730  Biso   1.000  C
  C12      1.0000 0.78900  0.73340  0.24430  Biso   1.000  C
  C13      1.0000 0.97400  0.68830  0.29590  Biso   1.000  C
  C14      1.0000 0.67800  0.76400  0.12530  Biso   1.000  C
  C15      1.0000 0.17900  0.96180  0.83330  Biso   1.000  C
  C16      1.0000 0.07600  0.93440  0.71960  Biso   1.000  C
  C17      1.0000 0.90200  0.89170  0.66820  Biso   1.000  C
  C18      1.0000 0.85800  0.78050  0.67730  Biso   1.000  C
  C19      1.0000 0.78900  0.76660  0.74430  Biso   1.000  C
  C20      1.0000 0.97400  0.81170  0.79590  Biso   1.000  C
  C21      1.0000 0.67800  0.73600  0.62530  Biso   1.000  C
  C22      1.0000 0.82100  0.46180  0.66670  Biso   1.000  C
  C23      1.0000 0.92400  0.43440  0.78040  Biso   1.000  C
  C24      1.0000 0.09800  0.39170  0.83180  Biso   1.000  C
  C25      1.0000 0.14200  0.28050  0.82270  Biso   1.000  C
  C26      1.0000 0.21100  0.26660  0.75570  Biso   1.000  C
  C27      1.0000 0.02600  0.31170  0.70410  Biso   1.000  C
  C28      1.0000 0.32200  0.23600  0.87470  Biso   1.000  C
  N1       1.0000 0.00210  0.07990  0.21650  Biso   1.000  N
  N2       1.0000 0.99790  0.57990  0.28350  Biso   1.000  N
  N3       1.0000 0.99790  0.92010  0.78350  Biso   1.000  N
  N4       1.0000 0.00210  0.42010  0.71650  Biso   1.000  N
  O1       1.0000 0.68210  0.98130  0.04560  Biso   1.000  O
  O2       1.0000 0.95920  0.12240  0.05730  Biso   1.000  O
  O3       1.0000 0.12730  0.95360  0.09030  Biso   1.000  O
  O4       1.0000 0.29760  0.24780  0.43310  Biso   1.000  O
  O5       1.0000 0.49810  0.31690  0.35970  Biso   1.000  O
  O6       1.0000 0.42560  0.18330  0.06440  Biso   1.000  O
  O7       1.0000 0.85110  0.28260  0.96580  Biso   1.000  O
  O8       1.0000 0.31790  0.48130  0.45440  Biso   1.000  O
  O9       1.0000 0.04080  0.62240  0.44270  Biso   1.000  O
  O10      1.0000 0.87270  0.45360  0.40970  Biso   1.000  O
  O11      1.0000 0.70240  0.74780  0.06690  Biso   1.000  O
  O12      1.0000 0.50190  0.81690  0.14030  Biso   1.000  O
  O13      1.0000 0.57440  0.68330  0.43560  Biso   1.000  O
  O14      1.0000 0.14890  0.78260  0.53420  Biso   1.000  O
  O15      1.0000 0.31790  0.01870  0.95440  Biso   1.000  O
  O16      1.0000 0.04080  0.87760  0.94270  Biso   1.000  O
  O17      1.0000 0.87270  0.04640  0.90970  Biso   1.000  O
  O18      1.0000 0.70240  0.75220  0.56690  Biso   1.000  O
  O19      1.0000 0.50190  0.68310  0.64030  Biso   1.000  O
  O20      1.0000 0.57440  0.81670  0.93560  Biso   1.000  O
  O21      1.0000 0.14890  0.71740  0.03420  Biso   1.000  O
  O22      1.0000 0.68210  0.51870  0.54560  Biso   1.000  O
  O23      1.0000 0.95920  0.37760  0.55730  Biso   1.000  O
  O24      1.0000 0.12730  0.54640  0.59030  Biso   1.000  O
  O25      1.0000 0.29760  0.25220  0.93310  Biso   1.000  O
  O26      1.0000 0.49810  0.18310  0.85970  Biso   1.000  O
  O27      1.0000 0.42560  0.31670  0.56440  Biso   1.000  O
  O28      1.0000 0.85110  0.21740  0.46580  Biso   1.000  O
