data_image0
_cell_length_a       5.5313
_cell_length_b       13.396
_cell_length_c       20.934
_cell_angle_alpha    90
_cell_angle_beta     96.177
_cell_angle_gamma    90

_symmetry_space_group_name_H-M    P 1
_symmetry_int_tables_number       1

loop_
  _symmetry_equiv_pos_as_xyz
  'x, y, z'

loop_
  _atom_site_label
  _atom_site_occupancy
  _atom_site_fract_x
  _atom_site_fract_y
  _atom_site_fract_z
  _atom_site_thermal_displace_type
  _atom_site_B_iso_or_equiv
  _atom_site_type_symbol
  Eu1      1.0000 0.62677  0.13215  0.97237  Biso   1.000  Eu
  Eu2      1.0000 0.37323  0.63215  0.52763  Biso   1.000  Eu
  Eu3      1.0000 0.37323  0.86785  0.02763  Biso   1.000  Eu
  Eu4      1.0000 0.62677  0.36785  0.47237  Biso   1.000  Eu
  P1       1.0000 0.91310  0.02230  0.08659  Biso   1.000  P
  P2       1.0000 0.08690  0.52230  0.41341  Biso   1.000  P
  P3       1.0000 0.08690  0.97770  0.91341  Biso   1.000  P
  P4       1.0000 0.91310  0.47770  0.58659  Biso   1.000  P
  H1       1.0000 0.31290  0.22470  0.05250  Biso   1.000  H
  H2       1.0000 0.53140  0.21440  0.09130  Biso   1.000  H
  H3       1.0000 0.78790  0.32140  0.93600  Biso   1.000  H
  H4       1.0000 0.99680  0.27200  0.95960  Biso   1.000  H
  H5       1.0000 0.77180  0.97150  0.18160  Biso   1.000  H
  H6       1.0000 0.67410  0.07840  0.16350  Biso   1.000  H
  H7       1.0000 0.76210  0.09870  0.28160  Biso   1.000  H
  H8       1.0000 0.89610  0.99530  0.28780  Biso   1.000  H
  H9       1.0000 0.03700  0.09750  0.37220  Biso   1.000  H
  H10      1.0000 0.24850  0.07160  0.33080  Biso   1.000  H
  H11      1.0000 0.98770  0.25240  0.32440  Biso   1.000  H
  H12      1.0000 0.36930  0.20510  0.25020  Biso   1.000  H
  H13      1.0000 0.22160  0.30540  0.24570  Biso   1.000  H
  H14      1.0000 0.07310  0.19820  0.16180  Biso   1.000  H
  H15      1.0000 0.86830  0.22020  0.20630  Biso   1.000  H
  H16      1.0000 0.68710  0.72470  0.44750  Biso   1.000  H
  H17      1.0000 0.46860  0.71440  0.40870  Biso   1.000  H
  H18      1.0000 0.21210  0.82140  0.56400  Biso   1.000  H
  H19      1.0000 0.00320  0.77200  0.54040  Biso   1.000  H
  H20      1.0000 0.22820  0.47150  0.31840  Biso   1.000  H
  H21      1.0000 0.32590  0.57840  0.33650  Biso   1.000  H
  H22      1.0000 0.23790  0.59870  0.21840  Biso   1.000  H
  H23      1.0000 0.10390  0.49530  0.21220  Biso   1.000  H
  H24      1.0000 0.96300  0.59750  0.12780  Biso   1.000  H
  H25      1.0000 0.75150  0.57160  0.16920  Biso   1.000  H
  H26      1.0000 0.01230  0.75240  0.17560  Biso   1.000  H
  H27      1.0000 0.63070  0.70510  0.24980  Biso   1.000  H
  H28      1.0000 0.77840  0.80540  0.25430  Biso   1.000  H
  H29      1.0000 0.92690  0.69820  0.33820  Biso   1.000  H
  H30      1.0000 0.13170  0.72020  0.29370  Biso   1.000  H
  H31      1.0000 0.68710  0.77530  0.94750  Biso   1.000  H
  H32      1.0000 0.46860  0.78560  0.90870  Biso   1.000  H
  H33      1.0000 0.21210  0.67860  0.06400  Biso   1.000  H
  H34      1.0000 0.00320  0.72800  0.04040  Biso   1.000  H
  H35      1.0000 0.22820  0.02850  0.81840  Biso   1.000  H
  H36      1.0000 0.32590  0.92160  0.83650  Biso   1.000  H
  H37      1.0000 0.23790  0.90130  0.71840  Biso   1.000  H
  H38      1.0000 0.10390  0.00470  0.71220  Biso   1.000  H
  H39      1.0000 0.96300  0.90250  0.62780  Biso   1.000  H
  H40      1.0000 0.75150  0.92840  0.66920  Biso   1.000  H
  H41      1.0000 0.01230  0.74760  0.67560  Biso   1.000  H
  H42      1.0000 0.63070  0.79490  0.74980  Biso   1.000  H
  H43      1.0000 0.77840  0.69460  0.75430  Biso   1.000  H
  H44      1.0000 0.92690  0.80180  0.83820  Biso   1.000  H
  H45      1.0000 0.13170  0.77980  0.79370  Biso   1.000  H
  H46      1.0000 0.31290  0.27530  0.55250  Biso   1.000  H
  H47      1.0000 0.53140  0.28560  0.59130  Biso   1.000  H
  H48      1.0000 0.78790  0.17860  0.43600  Biso   1.000  H
  H49      1.0000 0.99680  0.22800  0.45960  Biso   1.000  H
  H50      1.0000 0.77180  0.52850  0.68160  Biso   1.000  H
  H51      1.0000 0.67410  0.42160  0.66350  Biso   1.000  H
  H52      1.0000 0.76210  0.40130  0.78160  Biso   1.000  H
  H53      1.0000 0.89610  0.50470  0.78780  Biso   1.000  H
  H54      1.0000 0.03700  0.40250  0.87220  Biso   1.000  H
  H55      1.0000 0.24850  0.42840  0.83080  Biso   1.000  H
  H56      1.0000 0.98770  0.24760  0.82440  Biso   1.000  H
  H57      1.0000 0.36930  0.29490  0.75020  Biso   1.000  H
  H58      1.0000 0.22160  0.19460  0.74570  Biso   1.000  H
  H59      1.0000 0.07310  0.30180  0.66180  Biso   1.000  H
  H60      1.0000 0.86830  0.27980  0.70630  Biso   1.000  H
  C1       1.0000 0.81800  0.03660  0.16670  Biso   1.000  C
  C2       1.0000 0.91800  0.06600  0.28000  Biso   1.000  C
  C3       1.0000 0.09600  0.10760  0.33070  Biso   1.000  C
  C4       1.0000 0.14300  0.21790  0.32170  Biso   1.000  C
  C5       1.0000 0.21100  0.23440  0.25390  Biso   1.000  C
  C6       1.0000 0.02400  0.18770  0.20440  Biso   1.000  C
  C7       1.0000 0.32600  0.26300  0.37340  Biso   1.000  C
  C8       1.0000 0.18200  0.53660  0.33330  Biso   1.000  C
  C9       1.0000 0.08200  0.56600  0.22000  Biso   1.000  C
  C10      1.0000 0.90400  0.60760  0.16930  Biso   1.000  C
  C11      1.0000 0.85700  0.71790  0.17830  Biso   1.000  C
  C12      1.0000 0.78900  0.73440  0.24610  Biso   1.000  C
  C13      1.0000 0.97600  0.68770  0.29560  Biso   1.000  C
  C14      1.0000 0.67400  0.76300  0.12660  Biso   1.000  C
  C15      1.0000 0.18200  0.96340  0.83330  Biso   1.000  C
  C16      1.0000 0.08200  0.93400  0.72000  Biso   1.000  C
  C17      1.0000 0.90400  0.89240  0.66930  Biso   1.000  C
  C18      1.0000 0.85700  0.78210  0.67830  Biso   1.000  C
  C19      1.0000 0.78900  0.76560  0.74610  Biso   1.000  C
  C20      1.0000 0.97600  0.81230  0.79560  Biso   1.000  C
  C21      1.0000 0.67400  0.73700  0.62660  Biso   1.000  C
  C22      1.0000 0.81800  0.46340  0.66670  Biso   1.000  C
  C23      1.0000 0.91800  0.43400  0.78000  Biso   1.000  C
  C24      1.0000 0.09600  0.39240  0.83070  Biso   1.000  C
  C25      1.0000 0.14300  0.28210  0.82170  Biso   1.000  C
  C26      1.0000 0.21100  0.26560  0.75390  Biso   1.000  C
  C27      1.0000 0.02400  0.31230  0.70440  Biso   1.000  C
  C28      1.0000 0.32600  0.23700  0.87340  Biso   1.000  C
  N1       1.0000 0.99800  0.07970  0.21570  Biso   1.000  N
  N2       1.0000 0.00200  0.57970  0.28430  Biso   1.000  N
  N3       1.0000 0.00200  0.92030  0.78430  Biso   1.000  N
  N4       1.0000 0.99800  0.42030  0.71570  Biso   1.000  N
  O1       1.0000 0.68350  0.98230  0.04550  Biso   1.000  O
  O2       1.0000 0.96130  0.12200  0.05720  Biso   1.000  O
  O3       1.0000 0.12670  0.95310  0.09000  Biso   1.000  O
  O4       1.0000 0.29650  0.24640  0.43240  Biso   1.000  O
  O5       1.0000 0.49730  0.31650  0.35980  Biso   1.000  O
  O6       1.0000 0.42890  0.18500  0.06450  Biso   1.000  O
  O7       1.0000 0.85310  0.28570  0.96630  Biso   1.000  O
  O8       1.0000 0.31650  0.48230  0.45450  Biso   1.000  O
  O9       1.0000 0.03870  0.62200  0.44280  Biso   1.000  O
  O10      1.0000 0.87330  0.45310  0.41000  Biso   1.000  O
  O11      1.0000 0.70350  0.74640  0.06760  Biso   1.000  O
  O12      1.0000 0.50270  0.81650  0.14020  Biso   1.000  O
  O13      1.0000 0.57110  0.68500  0.43550  Biso   1.000  O
  O14      1.0000 0.14690  0.78570  0.53370  Biso   1.000  O
  O15      1.0000 0.31650  0.01770  0.95450  Biso   1.000  O
  O16      1.0000 0.03870  0.87800  0.94280  Biso   1.000  O
  O17      1.0000 0.87330  0.04690  0.91000  Biso   1.000  O
  O18      1.0000 0.70350  0.75360  0.56760  Biso   1.000  O
  O19      1.0000 0.50270  0.68350  0.64020  Biso   1.000  O
  O20      1.0000 0.57110  0.81500  0.93550  Biso   1.000  O
  O21      1.0000 0.14690  0.71430  0.03370  Biso   1.000  O
  O22      1.0000 0.68350  0.51770  0.54550  Biso   1.000  O
  O23      1.0000 0.96130  0.37800  0.55720  Biso   1.000  O
  O24      1.0000 0.12670  0.54690  0.59000  Biso   1.000  O
  O25      1.0000 0.29650  0.25360  0.93240  Biso   1.000  O
  O26      1.0000 0.49730  0.18350  0.85980  Biso   1.000  O
  O27      1.0000 0.42890  0.31500  0.56450  Biso   1.000  O
  O28      1.0000 0.85310  0.21430  0.46630  Biso   1.000  O
