data_image0
_cell_length_a       6.1802
_cell_length_b       23.3127
_cell_length_c       29.4218
_cell_angle_alpha    90
_cell_angle_beta     90
_cell_angle_gamma    95.663

_symmetry_space_group_name_H-M    P 1
_symmetry_int_tables_number       1

loop_
  _symmetry_equiv_pos_as_xyz
  'x, y, z'

loop_
  _atom_site_label
  _atom_site_occupancy
  _atom_site_fract_x
  _atom_site_fract_y
  _atom_site_fract_z
  _atom_site_thermal_displace_type
  _atom_site_B_iso_or_equiv
  _atom_site_type_symbol
  Zn1      1.0000 0.52453  0.73077  0.92375  Biso   1.000  Zn
  Zn2      1.0000 0.47972  0.75274  0.53910  Biso   1.000  Zn
  Zn3      1.0000 0.47547  0.76923  0.42375  Biso   1.000  Zn
  Zn4      1.0000 0.52028  0.74726  0.03910  Biso   1.000  Zn
  Zn5      1.0000 0.47547  0.26923  0.07625  Biso   1.000  Zn
  Zn6      1.0000 0.52028  0.24726  0.46090  Biso   1.000  Zn
  Zn7      1.0000 0.52453  0.23077  0.57625  Biso   1.000  Zn
  Zn8      1.0000 0.47972  0.25274  0.96090  Biso   1.000  Zn
  H1       1.0000 0.47040  0.71010  0.75330  Biso   1.000  H
  H2       1.0000 0.80800  0.78270  0.76000  Biso   1.000  H
  H3       1.0000 0.99650  0.77020  0.82740  Biso   1.000  H
  H4       1.0000 0.12220  0.71410  0.63530  Biso   1.000  H
  H5       1.0000 0.91840  0.71500  0.56940  Biso   1.000  H
  H6       1.0000 0.49940  0.80710  0.62920  Biso   1.000  H
  H7       1.0000 0.68040  0.80590  0.69740  Biso   1.000  H
  H8       1.0000 0.77670  0.37180  0.97710  Biso   1.000  H
  H9       1.0000 0.21490  0.51120  0.90160  Biso   1.000  H
  H10      1.0000 0.34600  0.42280  0.91710  Biso   1.000  H
  H11      1.0000 0.55990  0.52860  0.96490  Biso   1.000  H
  H12      1.0000 0.42690  0.61650  0.96030  Biso   1.000  H
  H13      1.0000 0.92880  0.67840  0.88810  Biso   1.000  H
  H14      1.0000 0.08310  0.59220  0.89280  Biso   1.000  H
  H15      1.0000 0.98380  0.10220  0.93920  Biso   1.000  H
  H16      1.0000 0.37210  0.94530  0.94750  Biso   1.000  H
  H17      1.0000 0.54750  0.03660  0.95800  Biso   1.000  H
  H18      1.0000 0.70390  0.93810  0.89510  Biso   1.000  H
  H19      1.0000 0.51810  0.84800  0.89070  Biso   1.000  H
  H20      1.0000 0.97120  0.77960  0.95930  Biso   1.000  H
  H21      1.0000 0.16980  0.86750  0.96600  Biso   1.000  H
  H22      1.0000 0.27700  0.71600  0.97800  Biso   1.000  H
  H23      1.0000 0.52960  0.78990  0.25330  Biso   1.000  H
  H24      1.0000 0.19200  0.71730  0.26000  Biso   1.000  H
  H25      1.0000 0.00350  0.72980  0.32740  Biso   1.000  H
  H26      1.0000 0.87780  0.78590  0.13530  Biso   1.000  H
  H27      1.0000 0.08160  0.78500  0.06940  Biso   1.000  H
  H28      1.0000 0.50060  0.69290  0.12920  Biso   1.000  H
  H29      1.0000 0.31960  0.69410  0.19740  Biso   1.000  H
  H30      1.0000 0.22330  0.12820  0.47710  Biso   1.000  H
  H31      1.0000 0.78510  0.98880  0.40160  Biso   1.000  H
  H32      1.0000 0.65400  0.07720  0.41710  Biso   1.000  H
  H33      1.0000 0.44010  0.97140  0.46490  Biso   1.000  H
  H34      1.0000 0.57310  0.88350  0.46030  Biso   1.000  H
  H35      1.0000 0.07120  0.82160  0.38810  Biso   1.000  H
  H36      1.0000 0.91690  0.90780  0.39280  Biso   1.000  H
  H37      1.0000 0.01620  0.39780  0.43920  Biso   1.000  H
  H38      1.0000 0.62790  0.55470  0.44750  Biso   1.000  H
  H39      1.0000 0.45250  0.46340  0.45800  Biso   1.000  H
  H40      1.0000 0.29610  0.56190  0.39510  Biso   1.000  H
  H41      1.0000 0.48190  0.65200  0.39070  Biso   1.000  H
  H42      1.0000 0.02880  0.72040  0.45930  Biso   1.000  H
  H43      1.0000 0.83020  0.63250  0.46600  Biso   1.000  H
  H44      1.0000 0.72300  0.78400  0.47800  Biso   1.000  H
  H45      1.0000 0.52960  0.28990  0.24670  Biso   1.000  H
  H46      1.0000 0.19200  0.21730  0.24000  Biso   1.000  H
  H47      1.0000 0.00350  0.22980  0.17260  Biso   1.000  H
  H48      1.0000 0.87780  0.28590  0.36470  Biso   1.000  H
  H49      1.0000 0.08160  0.28500  0.43060  Biso   1.000  H
  H50      1.0000 0.50060  0.19290  0.37080  Biso   1.000  H
  H51      1.0000 0.31960  0.19410  0.30260  Biso   1.000  H
  H52      1.0000 0.22330  0.62820  0.02290  Biso   1.000  H
  H53      1.0000 0.78510  0.48880  0.09840  Biso   1.000  H
  H54      1.0000 0.65400  0.57720  0.08290  Biso   1.000  H
  H55      1.0000 0.44010  0.47140  0.03510  Biso   1.000  H
  H56      1.0000 0.57310  0.38350  0.03970  Biso   1.000  H
  H57      1.0000 0.07120  0.32160  0.11190  Biso   1.000  H
  H58      1.0000 0.91690  0.40780  0.10720  Biso   1.000  H
  H59      1.0000 0.01620  0.89780  0.06080  Biso   1.000  H
  H60      1.0000 0.62790  0.05470  0.05250  Biso   1.000  H
  H61      1.0000 0.45250  0.96340  0.04200  Biso   1.000  H
  H62      1.0000 0.29610  0.06190  0.10490  Biso   1.000  H
  H63      1.0000 0.48190  0.15200  0.10930  Biso   1.000  H
  H64      1.0000 0.02880  0.22040  0.04070  Biso   1.000  H
  H65      1.0000 0.83020  0.13250  0.03400  Biso   1.000  H
  H66      1.0000 0.72300  0.28400  0.02200  Biso   1.000  H
  H67      1.0000 0.47040  0.21010  0.74670  Biso   1.000  H
  H68      1.0000 0.80800  0.28270  0.74000  Biso   1.000  H
  H69      1.0000 0.99650  0.27020  0.67260  Biso   1.000  H
  H70      1.0000 0.12220  0.21410  0.86470  Biso   1.000  H
  H71      1.0000 0.91840  0.21500  0.93060  Biso   1.000  H
  H72      1.0000 0.49940  0.30710  0.87080  Biso   1.000  H
  H73      1.0000 0.68040  0.30590  0.80260  Biso   1.000  H
  H74      1.0000 0.77670  0.87180  0.52290  Biso   1.000  H
  H75      1.0000 0.21490  0.01120  0.59840  Biso   1.000  H
  H76      1.0000 0.34600  0.92280  0.58290  Biso   1.000  H
  H77      1.0000 0.55990  0.02860  0.53510  Biso   1.000  H
  H78      1.0000 0.42690  0.11650  0.53970  Biso   1.000  H
  H79      1.0000 0.92880  0.17840  0.61190  Biso   1.000  H
  H80      1.0000 0.08310  0.09220  0.60720  Biso   1.000  H
  H81      1.0000 0.98380  0.60220  0.56080  Biso   1.000  H
  H82      1.0000 0.37210  0.44530  0.55250  Biso   1.000  H
  H83      1.0000 0.54750  0.53660  0.54200  Biso   1.000  H
  H84      1.0000 0.70390  0.43810  0.60490  Biso   1.000  H
  H85      1.0000 0.51810  0.34800  0.60930  Biso   1.000  H
  H86      1.0000 0.97120  0.27960  0.54070  Biso   1.000  H
  H87      1.0000 0.16980  0.36750  0.53400  Biso   1.000  H
  H88      1.0000 0.27700  0.21600  0.52200  Biso   1.000  H
  C1       1.0000 0.39360  0.73460  0.83890  Biso   1.000  C
  C2       1.0000 0.25740  0.74000  0.79760  Biso   1.000  C
  C3       1.0000 0.33290  0.72500  0.75490  Biso   1.000  C
  C4       1.0000 0.03410  0.75210  0.71930  Biso   1.000  C
  C5       1.0000 0.94510  0.76750  0.75950  Biso   1.000  C
  C6       1.0000 0.05730  0.76070  0.79910  Biso   1.000  C
  C7       1.0000 0.92010  0.75720  0.67520  Biso   1.000  C
  C8       1.0000 0.99080  0.73200  0.63520  Biso   1.000  C
  C9       1.0000 0.86990  0.73330  0.59585  Biso   1.000  C
  C10      1.0000 0.62450  0.78660  0.63100  Biso   1.000  C
  C11      1.0000 0.73210  0.78650  0.67180  Biso   1.000  C
  C12      1.0000 0.15630  0.33190  0.96350  Biso   1.000  C
  C13      1.0000 0.07690  0.38870  0.95071  Biso   1.000  C
  C14      1.0000 0.87050  0.40130  0.96300  Biso   1.000  C
  C15      1.0000 0.92690  0.49300  0.93470  Biso   1.000  C
  C16      1.0000 0.12950  0.48260  0.91850  Biso   1.000  C
  C17      1.0000 0.20550  0.43030  0.92720  Biso   1.000  C
  C18      1.0000 0.83900  0.55000  0.92990  Biso   1.000  C
  C19      1.0000 0.64120  0.55920  0.94920  Biso   1.000  C
  C20      1.0000 0.56140  0.61140  0.94600  Biso   1.000  C
  C21      1.0000 0.85370  0.64740  0.90440  Biso   1.000  C
  C22      1.0000 0.94670  0.59590  0.90680  Biso   1.000  C
  C23      1.0000 0.39920  0.13860  0.95780  Biso   1.000  C
  C24      1.0000 0.28200  0.07950  0.95070  Biso   1.000  C
  C25      1.0000 0.06570  0.06990  0.94100  Biso   1.000  C
  C26      1.0000 0.07720  0.97150  0.93800  Biso   1.000  C
  C27      1.0000 0.29230  0.97800  0.94610  Biso   1.000  C
  C28      1.0000 0.39540  0.03200  0.95240  Biso   1.000  C
  C29      1.0000 0.95900  0.91330  0.93240  Biso   1.000  C
  C30      1.0000 0.76170  0.90610  0.90900  Biso   1.000  C
  C31      1.0000 0.65320  0.85220  0.90630  Biso   1.000  C
  C32      1.0000 0.91600  0.81240  0.94620  Biso   1.000  C
  C33      1.0000 0.03450  0.86470  0.95040  Biso   1.000  C
  C34      1.0000 0.60640  0.76540  0.33890  Biso   1.000  C
  C35      1.0000 0.74260  0.76000  0.29760  Biso   1.000  C
  C36      1.0000 0.66710  0.77500  0.25490  Biso   1.000  C
  C37      1.0000 0.96590  0.74790  0.21930  Biso   1.000  C
  C38      1.0000 0.05490  0.73250  0.25950  Biso   1.000  C
  C39      1.0000 0.94270  0.73930  0.29910  Biso   1.000  C
  C40      1.0000 0.07990  0.74280  0.17520  Biso   1.000  C
  C41      1.0000 0.00920  0.76800  0.13520  Biso   1.000  C
  C42      1.0000 0.13010  0.76670  0.09585  Biso   1.000  C
  C43      1.0000 0.37550  0.71340  0.13100  Biso   1.000  C
  C44      1.0000 0.26790  0.71350  0.17180  Biso   1.000  C
  C45      1.0000 0.84370  0.16810  0.46350  Biso   1.000  C
  C46      1.0000 0.92310  0.11130  0.45071  Biso   1.000  C
  C47      1.0000 0.12950  0.09870  0.46300  Biso   1.000  C
  C48      1.0000 0.07310  0.00700  0.43470  Biso   1.000  C
  C49      1.0000 0.87050  0.01740  0.41850  Biso   1.000  C
  C50      1.0000 0.79450  0.06970  0.42720  Biso   1.000  C
  C51      1.0000 0.16100  0.95000  0.42990  Biso   1.000  C
  C52      1.0000 0.35880  0.94080  0.44920  Biso   1.000  C
  C53      1.0000 0.43860  0.88860  0.44600  Biso   1.000  C
  C54      1.0000 0.14630  0.85260  0.40440  Biso   1.000  C
  C55      1.0000 0.05330  0.90410  0.40680  Biso   1.000  C
  C56      1.0000 0.60080  0.36140  0.45780  Biso   1.000  C
  C57      1.0000 0.71800  0.42050  0.45070  Biso   1.000  C
  C58      1.0000 0.93430  0.43010  0.44100  Biso   1.000  C
  C59      1.0000 0.92280  0.52850  0.43800  Biso   1.000  C
  C60      1.0000 0.70770  0.52200  0.44610  Biso   1.000  C
  C61      1.0000 0.60460  0.46800  0.45240  Biso   1.000  C
  C62      1.0000 0.04100  0.58670  0.43240  Biso   1.000  C
  C63      1.0000 0.23830  0.59390  0.40900  Biso   1.000  C
  C64      1.0000 0.34680  0.64780  0.40630  Biso   1.000  C
  C65      1.0000 0.08400  0.68760  0.44620  Biso   1.000  C
  C66      1.0000 0.96550  0.63530  0.45040  Biso   1.000  C
  C67      1.0000 0.60640  0.26540  0.16110  Biso   1.000  C
  C68      1.0000 0.74260  0.26000  0.20240  Biso   1.000  C
  C69      1.0000 0.66710  0.27500  0.24510  Biso   1.000  C
  C70      1.0000 0.96590  0.24790  0.28070  Biso   1.000  C
  C71      1.0000 0.05490  0.23250  0.24050  Biso   1.000  C
  C72      1.0000 0.94270  0.23930  0.20090  Biso   1.000  C
  C73      1.0000 0.07990  0.24280  0.32480  Biso   1.000  C
  C74      1.0000 0.00920  0.26800  0.36480  Biso   1.000  C
  C75      1.0000 0.13010  0.26670  0.40415  Biso   1.000  C
  C76      1.0000 0.37550  0.21340  0.36900  Biso   1.000  C
  C77      1.0000 0.26790  0.21350  0.32820  Biso   1.000  C
  C78      1.0000 0.84370  0.66810  0.03650  Biso   1.000  C
  C79      1.0000 0.92310  0.61130  0.04929  Biso   1.000  C
  C80      1.0000 0.12950  0.59870  0.03700  Biso   1.000  C
  C81      1.0000 0.07310  0.50700  0.06530  Biso   1.000  C
  C82      1.0000 0.87050  0.51740  0.08150  Biso   1.000  C
  C83      1.0000 0.79450  0.56970  0.07280  Biso   1.000  C
  C84      1.0000 0.16100  0.45000  0.07010  Biso   1.000  C
  C85      1.0000 0.35880  0.44080  0.05080  Biso   1.000  C
  C86      1.0000 0.43860  0.38860  0.05400  Biso   1.000  C
  C87      1.0000 0.14630  0.35260  0.09560  Biso   1.000  C
  C88      1.0000 0.05330  0.40410  0.09320  Biso   1.000  C
  C89      1.0000 0.60080  0.86140  0.04220  Biso   1.000  C
  C90      1.0000 0.71800  0.92050  0.04930  Biso   1.000  C
  C91      1.0000 0.93430  0.93010  0.05900  Biso   1.000  C
  C92      1.0000 0.92280  0.02850  0.06200  Biso   1.000  C
  C93      1.0000 0.70770  0.02200  0.05390  Biso   1.000  C
  C94      1.0000 0.60460  0.96800  0.04760  Biso   1.000  C
  C95      1.0000 0.04100  0.08670  0.06760  Biso   1.000  C
  C96      1.0000 0.23830  0.09390  0.09100  Biso   1.000  C
  C97      1.0000 0.34680  0.14780  0.09370  Biso   1.000  C
  C98      1.0000 0.08400  0.18760  0.05380  Biso   1.000  C
  C99      1.0000 0.96550  0.13530  0.04960  Biso   1.000  C
  C100     1.0000 0.39360  0.23460  0.66110  Biso   1.000  C
  C101     1.0000 0.25740  0.24000  0.70240  Biso   1.000  C
  C102     1.0000 0.33290  0.22500  0.74510  Biso   1.000  C
  C103     1.0000 0.03410  0.25210  0.78070  Biso   1.000  C
  C104     1.0000 0.94510  0.26750  0.74050  Biso   1.000  C
  C105     1.0000 0.05730  0.26070  0.70090  Biso   1.000  C
  C106     1.0000 0.92010  0.25720  0.82480  Biso   1.000  C
  C107     1.0000 0.99080  0.23200  0.86480  Biso   1.000  C
  C108     1.0000 0.86990  0.23330  0.90415  Biso   1.000  C
  C109     1.0000 0.62450  0.28660  0.86900  Biso   1.000  C
  C110     1.0000 0.73210  0.28650  0.82820  Biso   1.000  C
  C111     1.0000 0.15630  0.83190  0.53650  Biso   1.000  C
  C112     1.0000 0.07690  0.88870  0.54929  Biso   1.000  C
  C113     1.0000 0.87050  0.90130  0.53700  Biso   1.000  C
  C114     1.0000 0.92690  0.99300  0.56530  Biso   1.000  C
  C115     1.0000 0.12950  0.98260  0.58150  Biso   1.000  C
  C116     1.0000 0.20550  0.93030  0.57280  Biso   1.000  C
  C117     1.0000 0.83900  0.05000  0.57010  Biso   1.000  C
  C118     1.0000 0.64120  0.05920  0.55080  Biso   1.000  C
  C119     1.0000 0.56140  0.11140  0.55400  Biso   1.000  C
  C120     1.0000 0.85370  0.14740  0.59560  Biso   1.000  C
  C121     1.0000 0.94670  0.09590  0.59320  Biso   1.000  C
  C122     1.0000 0.39920  0.63860  0.54220  Biso   1.000  C
  C123     1.0000 0.28200  0.57950  0.54930  Biso   1.000  C
  C124     1.0000 0.06570  0.56990  0.55900  Biso   1.000  C
  C125     1.0000 0.07720  0.47150  0.56200  Biso   1.000  C
  C126     1.0000 0.29230  0.47800  0.55390  Biso   1.000  C
  C127     1.0000 0.39540  0.53200  0.54760  Biso   1.000  C
  C128     1.0000 0.95900  0.41330  0.56760  Biso   1.000  C
  C129     1.0000 0.76170  0.40610  0.59100  Biso   1.000  C
  C130     1.0000 0.65320  0.35220  0.59370  Biso   1.000  C
  C131     1.0000 0.91600  0.31240  0.55380  Biso   1.000  C
  C132     1.0000 0.03450  0.36470  0.54960  Biso   1.000  C
  N1       1.0000 0.22540  0.73010  0.71690  Biso   1.000  N
  N2       1.0000 0.68530  0.75960  0.59368  Biso   1.000  N
  N3       1.0000 0.79550  0.45230  0.95606  Biso   1.000  N
  N4       1.0000 0.66470  0.65580  0.92358  Biso   1.000  N
  N5       1.0000 0.96250  0.01760  0.93390  Biso   1.000  N
  N6       1.0000 0.72550  0.80520  0.92424  Biso   1.000  N
  N7       1.0000 0.77460  0.76990  0.21690  Biso   1.000  N
  N8       1.0000 0.31470  0.74040  0.09368  Biso   1.000  N
  N9       1.0000 0.20450  0.04770  0.45606  Biso   1.000  N
  N10      1.0000 0.33530  0.84420  0.42358  Biso   1.000  N
  N11      1.0000 0.03750  0.48240  0.43390  Biso   1.000  N
  N12      1.0000 0.27450  0.69480  0.42424  Biso   1.000  N
  N13      1.0000 0.77460  0.26990  0.28310  Biso   1.000  N
  N14      1.0000 0.31470  0.24040  0.40632  Biso   1.000  N
  N15      1.0000 0.20450  0.54770  0.04394  Biso   1.000  N
  N16      1.0000 0.33530  0.34420  0.07642  Biso   1.000  N
  N17      1.0000 0.03750  0.98240  0.06610  Biso   1.000  N
  N18      1.0000 0.27450  0.19480  0.07576  Biso   1.000  N
  N19      1.0000 0.22540  0.23010  0.78310  Biso   1.000  N
  N20      1.0000 0.68530  0.25960  0.90632  Biso   1.000  N
  N21      1.0000 0.79550  0.95230  0.54394  Biso   1.000  N
  N22      1.0000 0.66470  0.15580  0.57642  Biso   1.000  N
  N23      1.0000 0.96250  0.51760  0.56610  Biso   1.000  N
  N24      1.0000 0.72550  0.30520  0.57576  Biso   1.000  N
  O1       1.0000 0.30060  0.73960  0.87720  Biso   1.000  O
  O2       1.0000 0.58770  0.72600  0.83496  Biso   1.000  O
  O3       1.0000 0.05500  0.30111  0.99212  Biso   1.000  O
  O4       1.0000 0.32840  0.32013  0.94333  Biso   1.000  O
  O5       1.0000 0.28640  0.18145  0.95188  Biso   1.000  O
  O6       1.0000 0.59280  0.14310  0.96815  Biso   1.000  O
  O7       1.0000 0.38290  0.72850  0.98200  Biso   1.000  O
  O8       1.0000 0.69940  0.76040  0.37720  Biso   1.000  O
  O9       1.0000 0.41230  0.77400  0.33496  Biso   1.000  O
  O10      1.0000 0.94500  0.19889  0.49212  Biso   1.000  O
  O11      1.0000 0.67160  0.17987  0.44333  Biso   1.000  O
  O12      1.0000 0.71360  0.31855  0.45188  Biso   1.000  O
  O13      1.0000 0.40720  0.35690  0.46815  Biso   1.000  O
  O14      1.0000 0.61710  0.77150  0.48200  Biso   1.000  O
  O15      1.0000 0.69940  0.26040  0.12280  Biso   1.000  O
  O16      1.0000 0.41230  0.27400  0.16504  Biso   1.000  O
  O17      1.0000 0.94500  0.69889  0.00788  Biso   1.000  O
  O18      1.0000 0.67160  0.67987  0.05667  Biso   1.000  O
  O19      1.0000 0.71360  0.81855  0.04812  Biso   1.000  O
  O20      1.0000 0.40720  0.85690  0.03185  Biso   1.000  O
  O21      1.0000 0.61710  0.27150  0.01800  Biso   1.000  O
  O22      1.0000 0.30060  0.23960  0.62280  Biso   1.000  O
  O23      1.0000 0.58770  0.22600  0.66504  Biso   1.000  O
  O24      1.0000 0.05500  0.80111  0.50788  Biso   1.000  O
  O25      1.0000 0.32840  0.82013  0.55667  Biso   1.000  O
  O26      1.0000 0.28640  0.68145  0.54812  Biso   1.000  O
  O27      1.0000 0.59280  0.64310  0.53185  Biso   1.000  O
  O28      1.0000 0.38290  0.22850  0.51800  Biso   1.000  O
