data_image0
_cell_length_a       17.3245
_cell_length_b       17.3245
_cell_length_c       33.9396
_cell_angle_alpha    90
_cell_angle_beta     90
_cell_angle_gamma    90

_symmetry_space_group_name_H-M    "P 1"
_symmetry_int_tables_number       1

loop_
  _symmetry_equiv_pos_as_xyz
  'x, y, z'

loop_
  _atom_site_label
  _atom_site_occupancy
  _atom_site_fract_x
  _atom_site_fract_y
  _atom_site_fract_z
  _atom_site_thermal_displace_type
  _atom_site_B_iso_or_equiv
  _atom_site_type_symbol
  Cu1      1.0000 0.08513  0.50757  0.61521  Biso   1.000  Cu
  Cu2      1.0000 0.15839  0.36418  0.56711  Biso   1.000  Cu
  Cu3      1.0000 0.08297  0.51218  0.52200  Biso   1.000  Cu
  N1       1.0000 0.12690  0.42450  0.64167  Biso   1.000  N
  N2       1.0000 0.16040  0.36450  0.62230  Biso   1.000  N
  N3       1.0000 0.37090  0.06670  0.99340  Biso   1.000  N
  N4       1.0000 0.05070  0.59850  0.54945  Biso   1.000  N
  N5       1.0000 0.05470  0.59720  0.59042  Biso   1.000  N
  N6       1.0000 0.33770  0.12780  0.01240  Biso   1.000  N
  N7       1.0000 0.29570  0.17090  0.91070  Biso   1.000  N
  O1       1.0000 0.07080  0.28120  0.73421  Biso   1.000  O
  O2       1.0000 0.89170  0.78490  0.56620  Biso   1.000  O
  N8       1.0000 0.02220  0.79860  0.57230  Biso   1.000  N
  O3       1.0000 0.15050  0.81280  0.58240  Biso   1.000  O
  O4       1.0000 0.42140  0.18890  0.89630  Biso   1.000  O
  O5       1.0000 0.16870  0.15500  0.92510  Biso   1.000  O
  C1       1.0000 0.03640  0.67140  0.53780  Biso   1.000  C
  C2       1.0000 0.00450  0.95920  0.57200  Biso   1.000  C
  C3       1.0000 0.13550  0.41190  0.68060  Biso   1.000  C
  N9       1.0000 0.19560  0.31120  0.72280  Biso   1.000  N
  O6       1.0000 0.32230  0.34380  0.71210  Biso   1.000  O
  C4       1.0000 0.35820  0.07330  0.95480  Biso   1.000  C
  C5       1.0000 0.08920  0.84280  0.57660  Biso   1.000  C
  C6       1.0000 0.19210  0.31600  0.64870  Biso   1.000  C
  C7       1.0000 0.94660  0.82680  0.57000  Biso   1.000  C
  C8       1.0000 0.27410  0.31710  0.73380  Biso   1.000  C
  C9       1.0000 0.26160  0.24480  0.99660  Biso   1.000  C
  H1       1.0000 0.20720  0.23520  0.99400  Biso   1.000  H
  H2       1.0000 0.27610  0.28680  0.97970  Biso   1.000  H
  H3       1.0000 0.27320  0.25780  0.02340  Biso   1.000  H
  C10      1.0000 0.10400  0.46440  0.71050  Biso   1.000  C
  H4       1.0000 0.09420  0.51390  0.69890  Biso   1.000  H
  H5       1.0000 0.14050  0.47000  0.73160  Biso   1.000  H
  H6       1.0000 0.05660  0.44360  0.72070  Biso   1.000  H
  C11      1.0000 0.30570  0.17360  0.98500  Biso   1.000  C
  C12      1.0000 0.03210  0.71670  0.57130  Biso   1.000  C
  C13      1.0000 0.08040  0.92850  0.57370  Biso   1.000  C
  C14      1.0000 0.31690  0.14120  0.94900  Biso   1.000  C
  C15      1.0000 0.25510  0.23020  0.83620  Biso   1.000  C
  C16      1.0000 0.29360  0.28550  0.77400  Biso   1.000  C
  C17      1.0000 0.21780  0.17520  0.90190  Biso   1.000  C
  C18      1.0000 0.04600  0.68750  0.64690  Biso   1.000  C
  H7       1.0000 0.99440  0.69670  0.65600  Biso   1.000  H
  H8       1.0000 0.07680  0.73280  0.65130  Biso   1.000  H
  H9       1.0000 0.06780  0.64490  0.66110  Biso   1.000  H
  C19      1.0000 0.93750  0.91280  0.57150  Biso   1.000  C
  C20      1.0000 0.09980  0.23420  0.81240  Biso   1.000  C
  H10      1.0000 0.04840  0.23500  0.80460  Biso   1.000  H
  C21      1.0000 0.11940  0.20810  0.85050  Biso   1.000  C
  H11      1.0000 0.08090  0.19330  0.86800  Biso   1.000  H
  C22      1.0000 0.19680  0.20440  0.86190  Biso   1.000  C
  C23      1.0000 0.04460  0.66910  0.60390  Biso   1.000  C
  C24      1.0000 0.35440  0.19450  0.88650  Biso   1.000  C
  C25      1.0000 0.33310  0.22980  0.84760  Biso   1.000  C
  C26      1.0000 0.37000  0.28280  0.78530  Biso   1.000  C
  H12      1.0000 0.40870  0.29860  0.76810  Biso   1.000  H
  C27      1.0000 0.23640  0.24500  0.63720  Biso   1.000  C
  H13      1.0000 0.21860  0.22700  0.61210  Biso   1.000  H
  H14      1.0000 0.22850  0.20550  0.65660  Biso   1.000  H
  H15      1.0000 0.29040  0.25710  0.63560  Biso   1.000  H
  C28      1.0000 0.14220  0.97510  0.57280  Biso   1.000  C
  H16      1.0000 0.19140  0.95360  0.57280  Biso   1.000  H
  C29      1.0000 0.02760  0.69390  0.49630  Biso   1.000  C
  H17      1.0000 0.05380  0.65730  0.47980  Biso   1.000  H
  H18      1.0000 0.04940  0.74430  0.49240  Biso   1.000  H
  H19      1.0000 0.97380  0.69490  0.48960  Biso   1.000  H
  C30      1.0000 0.17530  0.34440  0.68540  Biso   1.000  C
  C31      1.0000 0.23480  0.25730  0.79800  Biso   1.000  C
  C32      1.0000 0.13570  0.28380  0.74660  Biso   1.000  C
  C33      1.0000 0.15620  0.25850  0.78690  Biso   1.000  C
  C34      1.0000 0.38870  0.25590  0.82350  Biso   1.000  C
  H20      1.0000 0.43980  0.25620  0.83190  Biso   1.000  H
  C35      1.0000 0.86560  0.94430  0.57180  Biso   1.000  C
  H21      1.0000 0.82210  0.91280  0.57130  Biso   1.000  H
  C36      1.0000 0.38900  0.01630  0.92560  Biso   1.000  C
  H22      1.0000 0.42740  0.04080  0.90950  Biso   1.000  H
  H23      1.0000 0.34770  0.99800  0.90930  Biso   1.000  H
  H24      1.0000 0.41190  0.97360  0.93940  Biso   1.000  H
  Cu4      1.0000 0.58513  0.00757  0.11521  Biso   1.000  Cu
  Cu5      1.0000 0.65839  0.86418  0.06711  Biso   1.000  Cu
  Cu6      1.0000 0.58297  0.01218  0.02200  Biso   1.000  Cu
  N10      1.0000 0.62690  0.92450  0.14167  Biso   1.000  N
  N11      1.0000 0.66040  0.86450  0.12230  Biso   1.000  N
  N12      1.0000 0.87090  0.56670  0.49340  Biso   1.000  N
  N13      1.0000 0.55070  0.09850  0.04945  Biso   1.000  N
  N14      1.0000 0.55470  0.09720  0.09042  Biso   1.000  N
  N15      1.0000 0.83770  0.62780  0.51240  Biso   1.000  N
  N16      1.0000 0.79570  0.67090  0.41070  Biso   1.000  N
  O7       1.0000 0.57080  0.78120  0.23421  Biso   1.000  O
  O8       1.0000 0.39170  0.28490  0.06620  Biso   1.000  O
  N17      1.0000 0.52220  0.29860  0.07230  Biso   1.000  N
  O9       1.0000 0.65050  0.31280  0.08240  Biso   1.000  O
  O10      1.0000 0.92140  0.68890  0.39630  Biso   1.000  O
  O11      1.0000 0.66870  0.65500  0.42510  Biso   1.000  O
  C37      1.0000 0.53640  0.17140  0.03780  Biso   1.000  C
  C38      1.0000 0.50450  0.45920  0.07200  Biso   1.000  C
  C39      1.0000 0.63550  0.91190  0.18060  Biso   1.000  C
  N18      1.0000 0.69560  0.81120  0.22280  Biso   1.000  N
  O12      1.0000 0.82230  0.84380  0.21210  Biso   1.000  O
  C40      1.0000 0.85820  0.57330  0.45480  Biso   1.000  C
  C41      1.0000 0.58920  0.34280  0.07660  Biso   1.000  C
  C42      1.0000 0.69210  0.81600  0.14870  Biso   1.000  C
  C43      1.0000 0.44660  0.32680  0.07000  Biso   1.000  C
  C44      1.0000 0.77410  0.81710  0.23380  Biso   1.000  C
  C45      1.0000 0.76160  0.74480  0.49660  Biso   1.000  C
  H25      1.0000 0.70720  0.73520  0.49400  Biso   1.000  H
  H26      1.0000 0.77610  0.78680  0.47970  Biso   1.000  H
  H27      1.0000 0.77320  0.75780  0.52340  Biso   1.000  H
  C46      1.0000 0.60400  0.96440  0.21050  Biso   1.000  C
  H28      1.0000 0.59420  0.01390  0.19890  Biso   1.000  H
  H29      1.0000 0.64050  0.97000  0.23160  Biso   1.000  H
  H30      1.0000 0.55660  0.94360  0.22070  Biso   1.000  H
  C47      1.0000 0.80570  0.67360  0.48500  Biso   1.000  C
  C48      1.0000 0.53210  0.21670  0.07130  Biso   1.000  C
  C49      1.0000 0.58040  0.42850  0.07370  Biso   1.000  C
  C50      1.0000 0.81690  0.64120  0.44900  Biso   1.000  C
  C51      1.0000 0.75510  0.73020  0.33620  Biso   1.000  C
  C52      1.0000 0.79360  0.78550  0.27400  Biso   1.000  C
  C53      1.0000 0.71780  0.67520  0.40190  Biso   1.000  C
  C54      1.0000 0.54600  0.18750  0.14690  Biso   1.000  C
  H31      1.0000 0.49440  0.19670  0.15600  Biso   1.000  H
  H32      1.0000 0.57680  0.23280  0.15130  Biso   1.000  H
  H33      1.0000 0.56780  0.14490  0.16110  Biso   1.000  H
  C55      1.0000 0.43750  0.41280  0.07150  Biso   1.000  C
  C56      1.0000 0.59980  0.73420  0.31240  Biso   1.000  C
  H34      1.0000 0.54840  0.73500  0.30460  Biso   1.000  H
  C57      1.0000 0.61940  0.70810  0.35050  Biso   1.000  C
  H35      1.0000 0.58090  0.69330  0.36800  Biso   1.000  H
  C58      1.0000 0.69680  0.70440  0.36190  Biso   1.000  C
  C59      1.0000 0.54460  0.16910  0.10390  Biso   1.000  C
  C60      1.0000 0.85440  0.69450  0.38650  Biso   1.000  C
  C61      1.0000 0.83310  0.72980  0.34760  Biso   1.000  C
  C62      1.0000 0.87000  0.78280  0.28530  Biso   1.000  C
  H36      1.0000 0.90870  0.79860  0.26810  Biso   1.000  H
  C63      1.0000 0.73640  0.74500  0.13720  Biso   1.000  C
  H37      1.0000 0.71860  0.72700  0.11210  Biso   1.000  H
  H38      1.0000 0.72850  0.70550  0.15660  Biso   1.000  H
  H39      1.0000 0.79040  0.75710  0.13560  Biso   1.000  H
  C64      1.0000 0.64220  0.47510  0.07280  Biso   1.000  C
  H40      1.0000 0.69140  0.45360  0.07280  Biso   1.000  H
  C65      1.0000 0.52760  0.19390  0.99630  Biso   1.000  C
  H41      1.0000 0.55380  0.15730  0.97980  Biso   1.000  H
  H42      1.0000 0.54940  0.24430  0.99240  Biso   1.000  H
  H43      1.0000 0.47380  0.19490  0.98960  Biso   1.000  H
  C66      1.0000 0.67530  0.84440  0.18540  Biso   1.000  C
  C67      1.0000 0.73480  0.75730  0.29800  Biso   1.000  C
  C68      1.0000 0.63570  0.78380  0.24660  Biso   1.000  C
  C69      1.0000 0.65620  0.75850  0.28690  Biso   1.000  C
  C70      1.0000 0.88870  0.75590  0.32350  Biso   1.000  C
  H44      1.0000 0.93980  0.75620  0.33190  Biso   1.000  H
  C71      1.0000 0.36560  0.44430  0.07180  Biso   1.000  C
  H45      1.0000 0.32210  0.41280  0.07130  Biso   1.000  H
  C72      1.0000 0.88900  0.51630  0.42560  Biso   1.000  C
  H46      1.0000 0.92740  0.54080  0.40950  Biso   1.000  H
  H47      1.0000 0.84770  0.49800  0.40930  Biso   1.000  H
  H48      1.0000 0.91190  0.47360  0.43940  Biso   1.000  H
  Cu7      1.0000 0.91487  0.49243  0.61521  Biso   1.000  Cu
  Cu8      1.0000 0.84161  0.63582  0.56711  Biso   1.000  Cu
  Cu9      1.0000 0.91703  0.48782  0.52200  Biso   1.000  Cu
  N19      1.0000 0.87310  0.57550  0.64167  Biso   1.000  N
  N20      1.0000 0.83960  0.63550  0.62230  Biso   1.000  N
  N21      1.0000 0.62910  0.93330  0.99340  Biso   1.000  N
  N22      1.0000 0.94930  0.40150  0.54945  Biso   1.000  N
  N23      1.0000 0.94530  0.40280  0.59042  Biso   1.000  N
  N24      1.0000 0.66230  0.87220  0.01240  Biso   1.000  N
  N25      1.0000 0.70430  0.82910  0.91070  Biso   1.000  N
  O13      1.0000 0.92920  0.71880  0.73421  Biso   1.000  O
  O14      1.0000 0.10830  0.21510  0.56620  Biso   1.000  O
  N26      1.0000 0.97780  0.20140  0.57230  Biso   1.000  N
  O15      1.0000 0.84950  0.18720  0.58240  Biso   1.000  O
  O16      1.0000 0.57860  0.81110  0.89630  Biso   1.000  O
  O17      1.0000 0.83130  0.84500  0.92510  Biso   1.000  O
  C73      1.0000 0.96360  0.32860  0.53780  Biso   1.000  C
  C74      1.0000 0.99550  0.04080  0.57200  Biso   1.000  C
  C75      1.0000 0.86450  0.58810  0.68060  Biso   1.000  C
  N27      1.0000 0.80440  0.68880  0.72280  Biso   1.000  N
  O18      1.0000 0.67770  0.65620  0.71210  Biso   1.000  O
  C76      1.0000 0.64180  0.92670  0.95480  Biso   1.000  C
  C77      1.0000 0.91080  0.15720  0.57660  Biso   1.000  C
  C78      1.0000 0.80790  0.68400  0.64870  Biso   1.000  C
  C79      1.0000 0.05340  0.17320  0.57000  Biso   1.000  C
  C80      1.0000 0.72590  0.68290  0.73380  Biso   1.000  C
  C81      1.0000 0.73840  0.75520  0.99660  Biso   1.000  C
  H49      1.0000 0.79280  0.76480  0.99400  Biso   1.000  H
  H50      1.0000 0.72390  0.71320  0.97970  Biso   1.000  H
  H51      1.0000 0.72680  0.74220  0.02340  Biso   1.000  H
  C82      1.0000 0.89600  0.53560  0.71050  Biso   1.000  C
  H52      1.0000 0.90580  0.48610  0.69890  Biso   1.000  H
  H53      1.0000 0.85950  0.53000  0.73160  Biso   1.000  H
  H54      1.0000 0.94340  0.55640  0.72070  Biso   1.000  H
  C83      1.0000 0.69430  0.82640  0.98500  Biso   1.000  C
  C84      1.0000 0.96790  0.28330  0.57130  Biso   1.000  C
  C85      1.0000 0.91960  0.07150  0.57370  Biso   1.000  C
  C86      1.0000 0.68310  0.85880  0.94900  Biso   1.000  C
  C87      1.0000 0.74490  0.76980  0.83620  Biso   1.000  C
  C88      1.0000 0.70640  0.71450  0.77400  Biso   1.000  C
  C89      1.0000 0.78220  0.82480  0.90190  Biso   1.000  C
  C90      1.0000 0.95400  0.31250  0.64690  Biso   1.000  C
  H55      1.0000 0.00560  0.30330  0.65600  Biso   1.000  H
  H56      1.0000 0.92320  0.26720  0.65130  Biso   1.000  H
  H57      1.0000 0.93220  0.35510  0.66110  Biso   1.000  H
  C91      1.0000 0.06250  0.08720  0.57150  Biso   1.000  C
  C92      1.0000 0.90020  0.76580  0.81240  Biso   1.000  C
  H58      1.0000 0.95160  0.76500  0.80460  Biso   1.000  H
  C93      1.0000 0.88060  0.79190  0.85050  Biso   1.000  C
  H59      1.0000 0.91910  0.80670  0.86800  Biso   1.000  H
  C94      1.0000 0.80320  0.79560  0.86190  Biso   1.000  C
  C95      1.0000 0.95540  0.33090  0.60390  Biso   1.000  C
  C96      1.0000 0.64560  0.80550  0.88650  Biso   1.000  C
  C97      1.0000 0.66690  0.77020  0.84760  Biso   1.000  C
  C98      1.0000 0.63000  0.71720  0.78530  Biso   1.000  C
  H60      1.0000 0.59130  0.70140  0.76810  Biso   1.000  H
  C99      1.0000 0.76360  0.75500  0.63720  Biso   1.000  C
  H61      1.0000 0.78140  0.77300  0.61210  Biso   1.000  H
  H62      1.0000 0.77150  0.79450  0.65660  Biso   1.000  H
  H63      1.0000 0.70960  0.74290  0.63560  Biso   1.000  H
  C100     1.0000 0.85780  0.02490  0.57280  Biso   1.000  C
  H64      1.0000 0.80860  0.04640  0.57280  Biso   1.000  H
  C101     1.0000 0.97240  0.30610  0.49630  Biso   1.000  C
  H65      1.0000 0.94620  0.34270  0.47980  Biso   1.000  H
  H66      1.0000 0.95060  0.25570  0.49240  Biso   1.000  H
  H67      1.0000 0.02620  0.30510  0.48960  Biso   1.000  H
  C102     1.0000 0.82470  0.65560  0.68540  Biso   1.000  C
  C103     1.0000 0.76520  0.74270  0.79800  Biso   1.000  C
  C104     1.0000 0.86430  0.71620  0.74660  Biso   1.000  C
  C105     1.0000 0.84380  0.74150  0.78690  Biso   1.000  C
  C106     1.0000 0.61130  0.74410  0.82350  Biso   1.000  C
  H68      1.0000 0.56020  0.74380  0.83190  Biso   1.000  H
  C107     1.0000 0.13440  0.05570  0.57180  Biso   1.000  C
  H69      1.0000 0.17790  0.08720  0.57130  Biso   1.000  H
  C108     1.0000 0.61100  0.98370  0.92560  Biso   1.000  C
  H70      1.0000 0.57260  0.95920  0.90950  Biso   1.000  H
  H71      1.0000 0.65230  0.00200  0.90930  Biso   1.000  H
  H72      1.0000 0.58810  0.02640  0.93940  Biso   1.000  H
  Cu10     1.0000 0.41487  0.99243  0.11521  Biso   1.000  Cu
  Cu11     1.0000 0.34161  0.13582  0.06711  Biso   1.000  Cu
  Cu12     1.0000 0.41703  0.98782  0.02200  Biso   1.000  Cu
  N28      1.0000 0.37310  0.07550  0.14167  Biso   1.000  N
  N29      1.0000 0.33960  0.13550  0.12230  Biso   1.000  N
  N30      1.0000 0.12910  0.43330  0.49340  Biso   1.000  N
  N31      1.0000 0.44930  0.90150  0.04945  Biso   1.000  N
  N32      1.0000 0.44530  0.90280  0.09042  Biso   1.000  N
  N33      1.0000 0.16230  0.37220  0.51240  Biso   1.000  N
  N34      1.0000 0.20430  0.32910  0.41070  Biso   1.000  N
  O19      1.0000 0.42920  0.21880  0.23421  Biso   1.000  O
  O20      1.0000 0.60830  0.71510  0.06620  Biso   1.000  O
  N35      1.0000 0.47780  0.70140  0.07230  Biso   1.000  N
  O21      1.0000 0.34950  0.68720  0.08240  Biso   1.000  O
  O22      1.0000 0.07860  0.31110  0.39630  Biso   1.000  O
  O23      1.0000 0.33130  0.34500  0.42510  Biso   1.000  O
  C109     1.0000 0.46360  0.82860  0.03780  Biso   1.000  C
  C110     1.0000 0.49550  0.54080  0.07200  Biso   1.000  C
  C111     1.0000 0.36450  0.08810  0.18060  Biso   1.000  C
  N36      1.0000 0.30440  0.18880  0.22280  Biso   1.000  N
  O24      1.0000 0.17770  0.15620  0.21210  Biso   1.000  O
  C112     1.0000 0.14180  0.42670  0.45480  Biso   1.000  C
  C113     1.0000 0.41080  0.65720  0.07660  Biso   1.000  C
  C114     1.0000 0.30790  0.18400  0.14870  Biso   1.000  C
  C115     1.0000 0.55340  0.67320  0.07000  Biso   1.000  C
  C116     1.0000 0.22590  0.18290  0.23380  Biso   1.000  C
  C117     1.0000 0.23840  0.25520  0.49660  Biso   1.000  C
  H73      1.0000 0.29280  0.26480  0.49400  Biso   1.000  H
  H74      1.0000 0.22390  0.21320  0.47970  Biso   1.000  H
  H75      1.0000 0.22680  0.24220  0.52340  Biso   1.000  H
  C118     1.0000 0.39600  0.03560  0.21050  Biso   1.000  C
  H76      1.0000 0.40580  0.98610  0.19890  Biso   1.000  H
  H77      1.0000 0.35950  0.03000  0.23160  Biso   1.000  H
  H78      1.0000 0.44340  0.05640  0.22070  Biso   1.000  H
  C119     1.0000 0.19430  0.32640  0.48500  Biso   1.000  C
  C120     1.0000 0.46790  0.78330  0.07130  Biso   1.000  C
  C121     1.0000 0.41960  0.57150  0.07370  Biso   1.000  C
  C122     1.0000 0.18310  0.35880  0.44900  Biso   1.000  C
  C123     1.0000 0.24490  0.26980  0.33620  Biso   1.000  C
  C124     1.0000 0.20640  0.21450  0.27400  Biso   1.000  C
  C125     1.0000 0.28220  0.32480  0.40190  Biso   1.000  C
  C126     1.0000 0.45400  0.81250  0.14690  Biso   1.000  C
  H79      1.0000 0.50560  0.80330  0.15600  Biso   1.000  H
  H80      1.0000 0.42320  0.76720  0.15130  Biso   1.000  H
  H81      1.0000 0.43220  0.85510  0.16110  Biso   1.000  H
  C127     1.0000 0.56250  0.58720  0.07150  Biso   1.000  C
  C128     1.0000 0.40020  0.26580  0.31240  Biso   1.000  C
  H82      1.0000 0.45160  0.26500  0.30460  Biso   1.000  H
  C129     1.0000 0.38060  0.29190  0.35050  Biso   1.000  C
  H83      1.0000 0.41910  0.30670  0.36800  Biso   1.000  H
  C130     1.0000 0.30320  0.29560  0.36190  Biso   1.000  C
  C131     1.0000 0.45540  0.83090  0.10390  Biso   1.000  C
  C132     1.0000 0.14560  0.30550  0.38650  Biso   1.000  C
  C133     1.0000 0.16690  0.27020  0.34760  Biso   1.000  C
  C134     1.0000 0.13000  0.21720  0.28530  Biso   1.000  C
  H84      1.0000 0.09130  0.20140  0.26810  Biso   1.000  H
  C135     1.0000 0.26360  0.25500  0.13720  Biso   1.000  C
  H85      1.0000 0.28140  0.27300  0.11210  Biso   1.000  H
  H86      1.0000 0.27150  0.29450  0.15660  Biso   1.000  H
  H87      1.0000 0.20960  0.24290  0.13560  Biso   1.000  H
  C136     1.0000 0.35780  0.52490  0.07280  Biso   1.000  C
  H88      1.0000 0.30860  0.54640  0.07280  Biso   1.000  H
  C137     1.0000 0.47240  0.80610  0.99630  Biso   1.000  C
  H89      1.0000 0.44620  0.84270  0.97980  Biso   1.000  H
  H90      1.0000 0.45060  0.75570  0.99240  Biso   1.000  H
  H91      1.0000 0.52620  0.80510  0.98960  Biso   1.000  H
  C138     1.0000 0.32470  0.15560  0.18540  Biso   1.000  C
  C139     1.0000 0.26520  0.24270  0.29800  Biso   1.000  C
  C140     1.0000 0.36430  0.21620  0.24660  Biso   1.000  C
  C141     1.0000 0.34380  0.24150  0.28690  Biso   1.000  C
  C142     1.0000 0.11130  0.24410  0.32350  Biso   1.000  C
  H92      1.0000 0.06020  0.24380  0.33190  Biso   1.000  H
  C143     1.0000 0.63440  0.55570  0.07180  Biso   1.000  C
  H93      1.0000 0.67790  0.58720  0.07130  Biso   1.000  H
  C144     1.0000 0.11100  0.48370  0.42560  Biso   1.000  C
  H94      1.0000 0.07260  0.45920  0.40950  Biso   1.000  H
  H95      1.0000 0.15230  0.50200  0.40930  Biso   1.000  H
  H96      1.0000 0.08810  0.52640  0.43940  Biso   1.000  H
  Cu13     1.0000 0.50757  0.91487  0.38479  Biso   1.000  Cu
  Cu14     1.0000 0.36418  0.84161  0.43289  Biso   1.000  Cu
  Cu15     1.0000 0.51218  0.91703  0.47800  Biso   1.000  Cu
  N37      1.0000 0.42450  0.87310  0.35833  Biso   1.000  N
  N38      1.0000 0.36450  0.83960  0.37770  Biso   1.000  N
  N39      1.0000 0.06670  0.62910  0.00660  Biso   1.000  N
  N40      1.0000 0.59850  0.94930  0.45055  Biso   1.000  N
  N41      1.0000 0.59720  0.94530  0.40958  Biso   1.000  N
  N42      1.0000 0.12780  0.66230  0.98760  Biso   1.000  N
  N43      1.0000 0.17090  0.70430  0.08930  Biso   1.000  N
  O25      1.0000 0.28120  0.92920  0.26579  Biso   1.000  O
  O26      1.0000 0.78490  0.10830  0.43380  Biso   1.000  O
  N44      1.0000 0.79860  0.97780  0.42770  Biso   1.000  N
  O27      1.0000 0.81280  0.84950  0.41760  Biso   1.000  O
  O28      1.0000 0.18890  0.57860  0.10370  Biso   1.000  O
  O29      1.0000 0.15500  0.83130  0.07490  Biso   1.000  O
  C145     1.0000 0.67140  0.96360  0.46220  Biso   1.000  C
  C146     1.0000 0.95920  0.99550  0.42800  Biso   1.000  C
  C147     1.0000 0.41190  0.86450  0.31940  Biso   1.000  C
  N45      1.0000 0.31120  0.80440  0.27720  Biso   1.000  N
  O30      1.0000 0.34380  0.67770  0.28790  Biso   1.000  O
  C148     1.0000 0.07330  0.64180  0.04520  Biso   1.000  C
  C149     1.0000 0.84280  0.91080  0.42340  Biso   1.000  C
  C150     1.0000 0.31600  0.80790  0.35130  Biso   1.000  C
  C151     1.0000 0.82680  0.05340  0.43000  Biso   1.000  C
  C152     1.0000 0.31710  0.72590  0.26620  Biso   1.000  C
  C153     1.0000 0.24480  0.73840  0.00340  Biso   1.000  C
  H97      1.0000 0.23520  0.79280  0.00600  Biso   1.000  H
  H98      1.0000 0.28680  0.72390  0.02030  Biso   1.000  H
  H99      1.0000 0.25780  0.72680  0.97660  Biso   1.000  H
  C154     1.0000 0.46440  0.89600  0.28950  Biso   1.000  C
  H100     1.0000 0.51390  0.90580  0.30110  Biso   1.000  H
  H101     1.0000 0.47000  0.85950  0.26840  Biso   1.000  H
  H102     1.0000 0.44360  0.94340  0.27930  Biso   1.000  H
  C155     1.0000 0.17360  0.69430  0.01500  Biso   1.000  C
  C156     1.0000 0.71670  0.96790  0.42870  Biso   1.000  C
  C157     1.0000 0.92850  0.91960  0.42630  Biso   1.000  C
  C158     1.0000 0.14120  0.68310  0.05100  Biso   1.000  C
  C159     1.0000 0.23020  0.74490  0.16380  Biso   1.000  C
  C160     1.0000 0.28550  0.70640  0.22600  Biso   1.000  C
  C161     1.0000 0.17520  0.78220  0.09810  Biso   1.000  C
  C162     1.0000 0.68750  0.95400  0.35310  Biso   1.000  C
  H103     1.0000 0.69670  0.00560  0.34400  Biso   1.000  H
  H104     1.0000 0.73280  0.92320  0.34870  Biso   1.000  H
  H105     1.0000 0.64490  0.93220  0.33890  Biso   1.000  H
  C163     1.0000 0.91280  0.06250  0.42850  Biso   1.000  C
  C164     1.0000 0.23420  0.90020  0.18760  Biso   1.000  C
  H106     1.0000 0.23500  0.95160  0.19540  Biso   1.000  H
  C165     1.0000 0.20810  0.88060  0.14950  Biso   1.000  C
  H107     1.0000 0.19330  0.91910  0.13200  Biso   1.000  H
  C166     1.0000 0.20440  0.80320  0.13810  Biso   1.000  C
  C167     1.0000 0.66910  0.95540  0.39610  Biso   1.000  C
  C168     1.0000 0.19450  0.64560  0.11350  Biso   1.000  C
  C169     1.0000 0.22980  0.66690  0.15240  Biso   1.000  C
  C170     1.0000 0.28280  0.63000  0.21470  Biso   1.000  C
  H108     1.0000 0.29860  0.59130  0.23190  Biso   1.000  H
  C171     1.0000 0.24500  0.76360  0.36280  Biso   1.000  C
  H109     1.0000 0.22700  0.78140  0.38790  Biso   1.000  H
  H110     1.0000 0.20550  0.77150  0.34340  Biso   1.000  H
  H111     1.0000 0.25710  0.70960  0.36440  Biso   1.000  H
  C172     1.0000 0.97510  0.85780  0.42720  Biso   1.000  C
  H112     1.0000 0.95360  0.80860  0.42720  Biso   1.000  H
  C173     1.0000 0.69390  0.97240  0.50370  Biso   1.000  C
  H113     1.0000 0.65730  0.94620  0.52020  Biso   1.000  H
  H114     1.0000 0.74430  0.95060  0.50760  Biso   1.000  H
  H115     1.0000 0.69490  0.02620  0.51040  Biso   1.000  H
  C174     1.0000 0.34440  0.82470  0.31460  Biso   1.000  C
  C175     1.0000 0.25730  0.76520  0.20200  Biso   1.000  C
  C176     1.0000 0.28380  0.86430  0.25340  Biso   1.000  C
  C177     1.0000 0.25850  0.84380  0.21310  Biso   1.000  C
  C178     1.0000 0.25590  0.61130  0.17650  Biso   1.000  C
  H116     1.0000 0.25620  0.56020  0.16810  Biso   1.000  H
  C179     1.0000 0.94430  0.13440  0.42820  Biso   1.000  C
  H117     1.0000 0.91280  0.17790  0.42870  Biso   1.000  H
  C180     1.0000 0.01630  0.61100  0.07440  Biso   1.000  C
  H118     1.0000 0.04080  0.57260  0.09050  Biso   1.000  H
  H119     1.0000 0.99800  0.65230  0.09070  Biso   1.000  H
  H120     1.0000 0.97360  0.58810  0.06060  Biso   1.000  H
  Cu16     1.0000 0.00757  0.41487  0.88479  Biso   1.000  Cu
  Cu17     1.0000 0.86418  0.34161  0.93289  Biso   1.000  Cu
  Cu18     1.0000 0.01218  0.41703  0.97800  Biso   1.000  Cu
  N46      1.0000 0.92450  0.37310  0.85833  Biso   1.000  N
  N47      1.0000 0.86450  0.33960  0.87770  Biso   1.000  N
  N48      1.0000 0.56670  0.12910  0.50660  Biso   1.000  N
  N49      1.0000 0.09850  0.44930  0.95055  Biso   1.000  N
  N50      1.0000 0.09720  0.44530  0.90958  Biso   1.000  N
  N51      1.0000 0.62780  0.16230  0.48760  Biso   1.000  N
  N52      1.0000 0.67090  0.20430  0.58930  Biso   1.000  N
  O31      1.0000 0.78120  0.42920  0.76579  Biso   1.000  O
  O32      1.0000 0.28490  0.60830  0.93380  Biso   1.000  O
  N53      1.0000 0.29860  0.47780  0.92770  Biso   1.000  N
  O33      1.0000 0.31280  0.34950  0.91760  Biso   1.000  O
  O34      1.0000 0.68890  0.07860  0.60370  Biso   1.000  O
  O35      1.0000 0.65500  0.33130  0.57490  Biso   1.000  O
  C181     1.0000 0.17140  0.46360  0.96220  Biso   1.000  C
  C182     1.0000 0.45920  0.49550  0.92800  Biso   1.000  C
  C183     1.0000 0.91190  0.36450  0.81940  Biso   1.000  C
  N54      1.0000 0.81120  0.30440  0.77720  Biso   1.000  N
  O36      1.0000 0.84380  0.17770  0.78790  Biso   1.000  O
  C184     1.0000 0.57330  0.14180  0.54520  Biso   1.000  C
  C185     1.0000 0.34280  0.41080  0.92340  Biso   1.000  C
  C186     1.0000 0.81600  0.30790  0.85130  Biso   1.000  C
  C187     1.0000 0.32680  0.55340  0.93000  Biso   1.000  C
  C188     1.0000 0.81710  0.22590  0.76620  Biso   1.000  C
  C189     1.0000 0.74480  0.23840  0.50340  Biso   1.000  C
  H121     1.0000 0.73520  0.29280  0.50600  Biso   1.000  H
  H122     1.0000 0.78680  0.22390  0.52030  Biso   1.000  H
  H123     1.0000 0.75780  0.22680  0.47660  Biso   1.000  H
  C190     1.0000 0.96440  0.39600  0.78950  Biso   1.000  C
  H124     1.0000 0.01390  0.40580  0.80110  Biso   1.000  H
  H125     1.0000 0.97000  0.35950  0.76840  Biso   1.000  H
  H126     1.0000 0.94360  0.44340  0.77930  Biso   1.000  H
  C191     1.0000 0.67360  0.19430  0.51500  Biso   1.000  C
  C192     1.0000 0.21670  0.46790  0.92870  Biso   1.000  C
  C193     1.0000 0.42850  0.41960  0.92630  Biso   1.000  C
  C194     1.0000 0.64120  0.18310  0.55100  Biso   1.000  C
  C195     1.0000 0.73020  0.24490  0.66380  Biso   1.000  C
  C196     1.0000 0.78550  0.20640  0.72600  Biso   1.000  C
  C197     1.0000 0.67520  0.28220  0.59810  Biso   1.000  C
  C198     1.0000 0.18750  0.45400  0.85310  Biso   1.000  C
  H127     1.0000 0.19670  0.50560  0.84400  Biso   1.000  H
  H128     1.0000 0.23280  0.42320  0.84870  Biso   1.000  H
  H129     1.0000 0.14490  0.43220  0.83890  Biso   1.000  H
  C199     1.0000 0.41280  0.56250  0.92850  Biso   1.000  C
  C200     1.0000 0.73420  0.40020  0.68760  Biso   1.000  C
  H130     1.0000 0.73500  0.45160  0.69540  Biso   1.000  H
  C201     1.0000 0.70810  0.38060  0.64950  Biso   1.000  C
  H131     1.0000 0.69330  0.41910  0.63200  Biso   1.000  H
  C202     1.0000 0.70440  0.30320  0.63810  Biso   1.000  C
  C203     1.0000 0.16910  0.45540  0.89610  Biso   1.000  C
  C204     1.0000 0.69450  0.14560  0.61350  Biso   1.000  C
  C205     1.0000 0.72980  0.16690  0.65240  Biso   1.000  C
  C206     1.0000 0.78280  0.13000  0.71470  Biso   1.000  C
  H132     1.0000 0.79860  0.09130  0.73190  Biso   1.000  H
  C207     1.0000 0.74500  0.26360  0.86280  Biso   1.000  C
  H133     1.0000 0.72700  0.28140  0.88790  Biso   1.000  H
  H134     1.0000 0.70550  0.27150  0.84340  Biso   1.000  H
  H135     1.0000 0.75710  0.20960  0.86440  Biso   1.000  H
  C208     1.0000 0.47510  0.35780  0.92720  Biso   1.000  C
  H136     1.0000 0.45360  0.30860  0.92720  Biso   1.000  H
  C209     1.0000 0.19390  0.47240  0.00370  Biso   1.000  C
  H137     1.0000 0.15730  0.44620  0.02020  Biso   1.000  H
  H138     1.0000 0.24430  0.45060  0.00760  Biso   1.000  H
  H139     1.0000 0.19490  0.52620  0.01040  Biso   1.000  H
  C210     1.0000 0.84440  0.32470  0.81460  Biso   1.000  C
  C211     1.0000 0.75730  0.26520  0.70200  Biso   1.000  C
  C212     1.0000 0.78380  0.36430  0.75340  Biso   1.000  C
  C213     1.0000 0.75850  0.34380  0.71310  Biso   1.000  C
  C214     1.0000 0.75590  0.11130  0.67650  Biso   1.000  C
  H140     1.0000 0.75620  0.06020  0.66810  Biso   1.000  H
  C215     1.0000 0.44430  0.63440  0.92820  Biso   1.000  C
  H141     1.0000 0.41280  0.67790  0.92870  Biso   1.000  H
  C216     1.0000 0.51630  0.11100  0.57440  Biso   1.000  C
  H142     1.0000 0.54080  0.07260  0.59050  Biso   1.000  H
  H143     1.0000 0.49800  0.15230  0.59070  Biso   1.000  H
  H144     1.0000 0.47360  0.08810  0.56060  Biso   1.000  H
  Cu19     1.0000 0.49243  0.08513  0.38479  Biso   1.000  Cu
  Cu20     1.0000 0.63582  0.15839  0.43289  Biso   1.000  Cu
  Cu21     1.0000 0.48782  0.08297  0.47800  Biso   1.000  Cu
  N55      1.0000 0.57550  0.12690  0.35833  Biso   1.000  N
  N56      1.0000 0.63550  0.16040  0.37770  Biso   1.000  N
  N57      1.0000 0.93330  0.37090  0.00660  Biso   1.000  N
  N58      1.0000 0.40150  0.05070  0.45055  Biso   1.000  N
  N59      1.0000 0.40280  0.05470  0.40958  Biso   1.000  N
  N60      1.0000 0.87220  0.33770  0.98760  Biso   1.000  N
  N61      1.0000 0.82910  0.29570  0.08930  Biso   1.000  N
  O37      1.0000 0.71880  0.07080  0.26579  Biso   1.000  O
  O38      1.0000 0.21510  0.89170  0.43380  Biso   1.000  O
  N62      1.0000 0.20140  0.02220  0.42770  Biso   1.000  N
  O39      1.0000 0.18720  0.15050  0.41760  Biso   1.000  O
  O40      1.0000 0.81110  0.42140  0.10370  Biso   1.000  O
  O41      1.0000 0.84500  0.16870  0.07490  Biso   1.000  O
  C217     1.0000 0.32860  0.03640  0.46220  Biso   1.000  C
  C218     1.0000 0.04080  0.00450  0.42800  Biso   1.000  C
  C219     1.0000 0.58810  0.13550  0.31940  Biso   1.000  C
  N63      1.0000 0.68880  0.19560  0.27720  Biso   1.000  N
  O42      1.0000 0.65620  0.32230  0.28790  Biso   1.000  O
  C220     1.0000 0.92670  0.35820  0.04520  Biso   1.000  C
  C221     1.0000 0.15720  0.08920  0.42340  Biso   1.000  C
  C222     1.0000 0.68400  0.19210  0.35130  Biso   1.000  C
  C223     1.0000 0.17320  0.94660  0.43000  Biso   1.000  C
  C224     1.0000 0.68290  0.27410  0.26620  Biso   1.000  C
  C225     1.0000 0.75520  0.26160  0.00340  Biso   1.000  C
  H145     1.0000 0.76480  0.20720  0.00600  Biso   1.000  H
  H146     1.0000 0.71320  0.27610  0.02030  Biso   1.000  H
  H147     1.0000 0.74220  0.27320  0.97660  Biso   1.000  H
  C226     1.0000 0.53560  0.10400  0.28950  Biso   1.000  C
  H148     1.0000 0.48610  0.09420  0.30110  Biso   1.000  H
  H149     1.0000 0.53000  0.14050  0.26840  Biso   1.000  H
  H150     1.0000 0.55640  0.05660  0.27930  Biso   1.000  H
  C227     1.0000 0.82640  0.30570  0.01500  Biso   1.000  C
  C228     1.0000 0.28330  0.03210  0.42870  Biso   1.000  C
  C229     1.0000 0.07150  0.08040  0.42630  Biso   1.000  C
  C230     1.0000 0.85880  0.31690  0.05100  Biso   1.000  C
  C231     1.0000 0.76980  0.25510  0.16380  Biso   1.000  C
  C232     1.0000 0.71450  0.29360  0.22600  Biso   1.000  C
  C233     1.0000 0.82480  0.21780  0.09810  Biso   1.000  C
  C234     1.0000 0.31250  0.04600  0.35310  Biso   1.000  C
  H151     1.0000 0.30330  0.99440  0.34400  Biso   1.000  H
  H152     1.0000 0.26720  0.07680  0.34870  Biso   1.000  H
  H153     1.0000 0.35510  0.06780  0.33890  Biso   1.000  H
  C235     1.0000 0.08720  0.93750  0.42850  Biso   1.000  C
  C236     1.0000 0.76580  0.09980  0.18760  Biso   1.000  C
  H154     1.0000 0.76500  0.04840  0.19540  Biso   1.000  H
  C237     1.0000 0.79190  0.11940  0.14950  Biso   1.000  C
  H155     1.0000 0.80670  0.08090  0.13200  Biso   1.000  H
  C238     1.0000 0.79560  0.19680  0.13810  Biso   1.000  C
  C239     1.0000 0.33090  0.04460  0.39610  Biso   1.000  C
  C240     1.0000 0.80550  0.35440  0.11350  Biso   1.000  C
  C241     1.0000 0.77020  0.33310  0.15240  Biso   1.000  C
  C242     1.0000 0.71720  0.37000  0.21470  Biso   1.000  C
  H156     1.0000 0.70140  0.40870  0.23190  Biso   1.000  H
  C243     1.0000 0.75500  0.23640  0.36280  Biso   1.000  C
  H157     1.0000 0.77300  0.21860  0.38790  Biso   1.000  H
  H158     1.0000 0.79450  0.22850  0.34340  Biso   1.000  H
  H159     1.0000 0.74290  0.29040  0.36440  Biso   1.000  H
  C244     1.0000 0.02490  0.14220  0.42720  Biso   1.000  C
  H160     1.0000 0.04640  0.19140  0.42720  Biso   1.000  H
  C245     1.0000 0.30610  0.02760  0.50370  Biso   1.000  C
  H161     1.0000 0.34270  0.05380  0.52020  Biso   1.000  H
  H162     1.0000 0.25570  0.04940  0.50760  Biso   1.000  H
  H163     1.0000 0.30510  0.97380  0.51040  Biso   1.000  H
  C246     1.0000 0.65560  0.17530  0.31460  Biso   1.000  C
  C247     1.0000 0.74270  0.23480  0.20200  Biso   1.000  C
  C248     1.0000 0.71620  0.13570  0.25340  Biso   1.000  C
  C249     1.0000 0.74150  0.15620  0.21310  Biso   1.000  C
  C250     1.0000 0.74410  0.38870  0.17650  Biso   1.000  C
  H164     1.0000 0.74380  0.43980  0.16810  Biso   1.000  H
  C251     1.0000 0.05570  0.86560  0.42820  Biso   1.000  C
  H165     1.0000 0.08720  0.82210  0.42870  Biso   1.000  H
  C252     1.0000 0.98370  0.38900  0.07440  Biso   1.000  C
  H166     1.0000 0.95920  0.42740  0.09050  Biso   1.000  H
  H167     1.0000 0.00200  0.34770  0.09070  Biso   1.000  H
  H168     1.0000 0.02640  0.41190  0.06060  Biso   1.000  H
  Cu22     1.0000 0.99243  0.58513  0.88479  Biso   1.000  Cu
  Cu23     1.0000 0.13582  0.65839  0.93289  Biso   1.000  Cu
  Cu24     1.0000 0.98782  0.58297  0.97800  Biso   1.000  Cu
  N64      1.0000 0.07550  0.62690  0.85833  Biso   1.000  N
  N65      1.0000 0.13550  0.66040  0.87770  Biso   1.000  N
  N66      1.0000 0.43330  0.87090  0.50660  Biso   1.000  N
  N67      1.0000 0.90150  0.55070  0.95055  Biso   1.000  N
  N68      1.0000 0.90280  0.55470  0.90958  Biso   1.000  N
  N69      1.0000 0.37220  0.83770  0.48760  Biso   1.000  N
  N70      1.0000 0.32910  0.79570  0.58930  Biso   1.000  N
  O43      1.0000 0.21880  0.57080  0.76579  Biso   1.000  O
  O44      1.0000 0.71510  0.39170  0.93380  Biso   1.000  O
  N71      1.0000 0.70140  0.52220  0.92770  Biso   1.000  N
  O45      1.0000 0.68720  0.65050  0.91760  Biso   1.000  O
  O46      1.0000 0.31110  0.92140  0.60370  Biso   1.000  O
  O47      1.0000 0.34500  0.66870  0.57490  Biso   1.000  O
  C253     1.0000 0.82860  0.53640  0.96220  Biso   1.000  C
  C254     1.0000 0.54080  0.50450  0.92800  Biso   1.000  C
  C255     1.0000 0.08810  0.63550  0.81940  Biso   1.000  C
  N72      1.0000 0.18880  0.69560  0.77720  Biso   1.000  N
  O48      1.0000 0.15620  0.82230  0.78790  Biso   1.000  O
  C256     1.0000 0.42670  0.85820  0.54520  Biso   1.000  C
  C257     1.0000 0.65720  0.58920  0.92340  Biso   1.000  C
  C258     1.0000 0.18400  0.69210  0.85130  Biso   1.000  C
  C259     1.0000 0.67320  0.44660  0.93000  Biso   1.000  C
  C260     1.0000 0.18290  0.77410  0.76620  Biso   1.000  C
  C261     1.0000 0.25520  0.76160  0.50340  Biso   1.000  C
  H169     1.0000 0.26480  0.70720  0.50600  Biso   1.000  H
  H170     1.0000 0.21320  0.77610  0.52030  Biso   1.000  H
  H171     1.0000 0.24220  0.77320  0.47660  Biso   1.000  H
  C262     1.0000 0.03560  0.60400  0.78950  Biso   1.000  C
  H172     1.0000 0.98610  0.59420  0.80110  Biso   1.000  H
  H173     1.0000 0.03000  0.64050  0.76840  Biso   1.000  H
  H174     1.0000 0.05640  0.55660  0.77930  Biso   1.000  H
  C263     1.0000 0.32640  0.80570  0.51500  Biso   1.000  C
  C264     1.0000 0.78330  0.53210  0.92870  Biso   1.000  C
  C265     1.0000 0.57150  0.58040  0.92630  Biso   1.000  C
  C266     1.0000 0.35880  0.81690  0.55100  Biso   1.000  C
  C267     1.0000 0.26980  0.75510  0.66380  Biso   1.000  C
  C268     1.0000 0.21450  0.79360  0.72600  Biso   1.000  C
  C269     1.0000 0.32480  0.71780  0.59810  Biso   1.000  C
  C270     1.0000 0.81250  0.54600  0.85310  Biso   1.000  C
  H175     1.0000 0.80330  0.49440  0.84400  Biso   1.000  H
  H176     1.0000 0.76720  0.57680  0.84870  Biso   1.000  H
  H177     1.0000 0.85510  0.56780  0.83890  Biso   1.000  H
  C271     1.0000 0.58720  0.43750  0.92850  Biso   1.000  C
  C272     1.0000 0.26580  0.59980  0.68760  Biso   1.000  C
  H178     1.0000 0.26500  0.54840  0.69540  Biso   1.000  H
  C273     1.0000 0.29190  0.61940  0.64950  Biso   1.000  C
  H179     1.0000 0.30670  0.58090  0.63200  Biso   1.000  H
  C274     1.0000 0.29560  0.69680  0.63810  Biso   1.000  C
  C275     1.0000 0.83090  0.54460  0.89610  Biso   1.000  C
  C276     1.0000 0.30550  0.85440  0.61350  Biso   1.000  C
  C277     1.0000 0.27020  0.83310  0.65240  Biso   1.000  C
  C278     1.0000 0.21720  0.87000  0.71470  Biso   1.000  C
  H180     1.0000 0.20140  0.90870  0.73190  Biso   1.000  H
  C279     1.0000 0.25500  0.73640  0.86280  Biso   1.000  C
  H181     1.0000 0.27300  0.71860  0.88790  Biso   1.000  H
  H182     1.0000 0.29450  0.72850  0.84340  Biso   1.000  H
  H183     1.0000 0.24290  0.79040  0.86440  Biso   1.000  H
  C280     1.0000 0.52490  0.64220  0.92720  Biso   1.000  C
  H184     1.0000 0.54640  0.69140  0.92720  Biso   1.000  H
  C281     1.0000 0.80610  0.52760  0.00370  Biso   1.000  C
  H185     1.0000 0.84270  0.55380  0.02020  Biso   1.000  H
  H186     1.0000 0.75570  0.54940  0.00760  Biso   1.000  H
  H187     1.0000 0.80510  0.47380  0.01040  Biso   1.000  H
  C282     1.0000 0.15560  0.67530  0.81460  Biso   1.000  C
  C283     1.0000 0.24270  0.73480  0.70200  Biso   1.000  C
  C284     1.0000 0.21620  0.63570  0.75340  Biso   1.000  C
  C285     1.0000 0.24150  0.65620  0.71310  Biso   1.000  C
  C286     1.0000 0.24410  0.88870  0.67650  Biso   1.000  C
  H188     1.0000 0.24380  0.93980  0.66810  Biso   1.000  H
  C287     1.0000 0.55570  0.36560  0.92820  Biso   1.000  C
  H189     1.0000 0.58720  0.32210  0.92870  Biso   1.000  H
  C288     1.0000 0.48370  0.88900  0.57440  Biso   1.000  C
  H190     1.0000 0.45920  0.92740  0.59050  Biso   1.000  H
  H191     1.0000 0.50200  0.84770  0.59070  Biso   1.000  H
  H192     1.0000 0.52640  0.91190  0.56060  Biso   1.000  H
