data_image0
_cell_length_a       11.812
_cell_length_b       12.444
_cell_length_c       12.522
_cell_angle_alpha    118.949
_cell_angle_beta     108.3
_cell_angle_gamma    98.387

_symmetry_space_group_name_H-M    P 1
_symmetry_int_tables_number       1

loop_
  _symmetry_equiv_pos_as_xyz
  'x, y, z'

loop_
  _atom_site_label
  _atom_site_occupancy
  _atom_site_fract_x
  _atom_site_fract_y
  _atom_site_fract_z
  _atom_site_thermal_displace_type
  _atom_site_B_iso_or_equiv
  _atom_site_type_symbol
  Ce1      1.0000 0.52169  0.82224  0.99015  Biso   1.000  Ce
  Ce2      1.0000 0.80270  0.75667  0.23604  Biso   1.000  Ce
  Ce3      1.0000 0.47831  0.17776  0.00985  Biso   1.000  Ce
  Ce4      1.0000 0.19730  0.24333  0.76396  Biso   1.000  Ce
  H1       1.0000 0.40720  0.55520  0.20500  Biso   1.000  H
  H2       1.0000 0.15130  0.51020  0.34430  Biso   1.000  H
  H3       1.0000 0.34210  0.87300  0.44760  Biso   1.000  H
  H4       1.0000 0.50820  0.90840  0.39510  Biso   1.000  H
  H5       1.0000 0.58140  0.80830  0.38320  Biso   1.000  H
  H6       1.0000 0.31000  0.34500  0.22290  Biso   1.000  H
  H7       1.0000 0.16110  0.32190  0.17710  Biso   1.000  H
  H8       1.0000 0.15300  0.71810  0.53850  Biso   1.000  H
  H9       1.0000 0.22080  0.85840  0.56970  Biso   1.000  H
  H10      1.0000 0.43460  0.30350  0.48240  Biso   1.000  H
  H11      1.0000 0.12340  0.99180  0.16250  Biso   1.000  H
  H12      1.0000 0.08790  0.32740  0.41930  Biso   1.000  H
  H13      1.0000 0.27360  0.52180  0.59180  Biso   1.000  H
  H14      1.0000 0.41200  0.51810  0.60600  Biso   1.000  H
  H15      1.0000 0.44520  0.07980  0.34540  Biso   1.000  H
  H16      1.0000 0.32310  0.96750  0.20560  Biso   1.000  H
  H17      1.0000 0.92540  0.03250  0.08350  Biso   1.000  H
  H18      1.0000 0.91210  0.16640  0.18270  Biso   1.000  H
  H19      1.0000 0.59280  0.44480  0.79500  Biso   1.000  H
  H20      1.0000 0.84870  0.48980  0.65570  Biso   1.000  H
  H21      1.0000 0.65790  0.12700  0.55240  Biso   1.000  H
  H22      1.0000 0.49180  0.09160  0.60490  Biso   1.000  H
  H23      1.0000 0.41860  0.19170  0.61680  Biso   1.000  H
  H24      1.0000 0.69000  0.65500  0.77710  Biso   1.000  H
  H25      1.0000 0.83890  0.67810  0.82290  Biso   1.000  H
  H26      1.0000 0.84700  0.28190  0.46150  Biso   1.000  H
  H27      1.0000 0.77920  0.14160  0.43030  Biso   1.000  H
  H28      1.0000 0.56540  0.69650  0.51760  Biso   1.000  H
  H29      1.0000 0.87660  0.00820  0.83750  Biso   1.000  H
  H30      1.0000 0.91210  0.67260  0.58070  Biso   1.000  H
  H31      1.0000 0.72640  0.47820  0.40820  Biso   1.000  H
  H32      1.0000 0.58800  0.48190  0.39400  Biso   1.000  H
  H33      1.0000 0.55480  0.92020  0.65460  Biso   1.000  H
  H34      1.0000 0.67690  0.03250  0.79440  Biso   1.000  H
  H35      1.0000 0.07460  0.96750  0.91650  Biso   1.000  H
  H36      1.0000 0.08790  0.83360  0.81730  Biso   1.000  H
  C1       1.0000 0.39180  0.72760  0.32880  Biso   1.000  C
  C2       1.0000 0.36290  0.59300  0.25660  Biso   1.000  C
  C3       1.0000 0.27060  0.51260  0.25840  Biso   1.000  C
  C4       1.0000 0.21010  0.56500  0.33810  Biso   1.000  C
  C5       1.0000 0.23730  0.70390  0.41150  Biso   1.000  C
  C6       1.0000 0.32630  0.78130  0.40230  Biso   1.000  C
  C7       1.0000 0.50160  0.81640  0.33650  Biso   1.000  C
  C8       1.0000 0.49650  0.79400  0.20580  Biso   1.000  C
  C9       1.0000 0.23900  0.36480  0.17770  Biso   1.000  C
  C10      1.0000 0.21780  0.30890  0.03350  Biso   1.000  C
  C11      1.0000 0.16830  0.76490  0.49620  Biso   1.000  C
  C12      1.0000 0.04230  0.75410  0.40310  Biso   1.000  C
  C13      1.0000 0.26980  0.33450  0.46870  Biso   1.000  C
  C14      1.0000 0.34460  0.26430  0.42890  Biso   1.000  C
  C15      1.0000 0.29160  0.13600  0.31110  Biso   1.000  C
  C16      1.0000 0.16110  0.08090  0.23850  Biso   1.000  C
  C17      1.0000 0.08220  0.14990  0.27170  Biso   1.000  C
  C18      1.0000 0.13990  0.27880  0.39170  Biso   1.000  C
  C19      1.0000 0.33110  0.47250  0.59860  Biso   1.000  C
  C20      1.0000 0.35880  0.47600  0.72660  Biso   1.000  C
  C21      1.0000 0.37380  0.06290  0.26490  Biso   1.000  C
  C22      1.0000 0.42840  0.10000  0.18770  Biso   1.000  C
  C23      1.0000 0.93860  0.09290  0.17810  Biso   1.000  C
  C24      1.0000 0.84810  0.01870  0.20450  Biso   1.000  C
  C25      1.0000 0.60820  0.27240  0.67120  Biso   1.000  C
  C26      1.0000 0.63710  0.40700  0.74340  Biso   1.000  C
  C27      1.0000 0.72940  0.48740  0.74160  Biso   1.000  C
  C28      1.0000 0.78990  0.43500  0.66190  Biso   1.000  C
  C29      1.0000 0.76270  0.29610  0.58850  Biso   1.000  C
  C30      1.0000 0.67370  0.21870  0.59770  Biso   1.000  C
  C31      1.0000 0.49840  0.18360  0.66350  Biso   1.000  C
  C32      1.0000 0.50350  0.20600  0.79420  Biso   1.000  C
  C33      1.0000 0.76100  0.63520  0.82230  Biso   1.000  C
  C34      1.0000 0.78220  0.69110  0.96650  Biso   1.000  C
  C35      1.0000 0.83170  0.23510  0.50380  Biso   1.000  C
  C36      1.0000 0.95770  0.24590  0.59690  Biso   1.000  C
  C37      1.0000 0.73020  0.66550  0.53130  Biso   1.000  C
  C38      1.0000 0.65540  0.73570  0.57110  Biso   1.000  C
  C39      1.0000 0.70840  0.86400  0.68890  Biso   1.000  C
  C40      1.0000 0.83890  0.91910  0.76150  Biso   1.000  C
  C41      1.0000 0.91780  0.85010  0.72830  Biso   1.000  C
  C42      1.0000 0.86010  0.72120  0.60830  Biso   1.000  C
  C43      1.0000 0.66890  0.52750  0.40140  Biso   1.000  C
  C44      1.0000 0.64120  0.52400  0.27340  Biso   1.000  C
  C45      1.0000 0.62620  0.93710  0.73510  Biso   1.000  C
  C46      1.0000 0.57160  0.90000  0.81230  Biso   1.000  C
  C47      1.0000 0.06140  0.90710  0.82190  Biso   1.000  C
  C48      1.0000 0.15190  0.98130  0.79550  Biso   1.000  C
  O1       1.0000 0.39700  0.76760  0.11230  Biso   1.000  O
  O2       1.0000 0.60310  0.81370  0.19890  Biso   1.000  O
  O3       1.0000 0.11510  0.29350  0.94620  Biso   1.000  O
  O4       1.0000 0.30440  0.27690  0.99890  Biso   1.000  O
  O5       1.0000 0.04190  0.83560  0.36910  Biso   1.000  O
  O6       1.0000 0.93780  0.66480  0.35670  Biso   1.000  O
  O7       1.0000 0.40920  0.58500  0.84160  Biso   1.000  O
  O8       1.0000 0.33140  0.36870  0.71920  Biso   1.000  O
  O9       1.0000 0.42640  0.20300  0.19270  Biso   1.000  O
  O10      1.0000 0.47210  0.02280  0.11360  Biso   1.000  O
  O11      1.0000 0.73310  0.00220  0.14350  Biso   1.000  O
  O12      1.0000 0.88980  0.97520  0.27420  Biso   1.000  O
  O13      1.0000 0.30760  0.77660  0.82880  Biso   1.000  O
  O14      1.0000 0.83700  0.90850  0.47650  Biso   1.000  O
  O15      1.0000 0.74050  0.51490  0.06430  Biso   1.000  O
  O16      1.0000 0.60300  0.23240  0.88770  Biso   1.000  O
  O17      1.0000 0.39690  0.18630  0.80110  Biso   1.000  O
  O18      1.0000 0.88490  0.70650  0.05380  Biso   1.000  O
  O19      1.0000 0.69560  0.72310  0.00110  Biso   1.000  O
  O20      1.0000 0.95810  0.16440  0.63090  Biso   1.000  O
  O21      1.0000 0.06220  0.33520  0.64330  Biso   1.000  O
  O22      1.0000 0.59080  0.41500  0.15840  Biso   1.000  O
  O23      1.0000 0.66860  0.63130  0.28080  Biso   1.000  O
  O24      1.0000 0.57360  0.79700  0.80730  Biso   1.000  O
  O25      1.0000 0.52790  0.97720  0.88640  Biso   1.000  O
  O26      1.0000 0.26690  0.99780  0.85650  Biso   1.000  O
  O27      1.0000 0.11020  0.02480  0.72580  Biso   1.000  O
  O28      1.0000 0.69240  0.22340  0.17120  Biso   1.000  O
  O29      1.0000 0.16300  0.09150  0.52350  Biso   1.000  O
  O30      1.0000 0.25950  0.48510  0.93570  Biso   1.000  O
