data_image0
_cell_length_a       8.541
_cell_length_b       10.909
_cell_length_c       11.198
_cell_angle_alpha    64.153
_cell_angle_beta     79.902
_cell_angle_gamma    73.711

_symmetry_space_group_name_H-M    P 1
_symmetry_int_tables_number       1

loop_
  _symmetry_equiv_pos_as_xyz
  'x, y, z'

loop_
  _atom_site_label
  _atom_site_occupancy
  _atom_site_fract_x
  _atom_site_fract_y
  _atom_site_fract_z
  _atom_site_thermal_displace_type
  _atom_site_B_iso_or_equiv
  _atom_site_type_symbol
  Pr1      1.0000 0.75192  0.49704  0.49658  Biso   1.000  Pr
  Pr2      1.0000 0.24808  0.50296  0.50342  Biso   1.000  Pr
  H1       1.0000 0.74960  0.55270  0.97710  Biso   1.000  H
  H2       1.0000 0.40680  0.88950  0.98760  Biso   1.000  H
  H3       1.0000 0.73560  0.93360  0.67520  Biso   1.000  H
  H4       1.0000 0.96570  0.74410  0.68440  Biso   1.000  H
  H5       1.0000 0.98440  0.59760  0.81110  Biso   1.000  H
  H6       1.0000 0.37850  0.67000  0.14470  Biso   1.000  H
  H7       1.0000 0.48050  0.53140  0.12670  Biso   1.000  H
  H8       1.0000 0.56530  0.14140  0.70520  Biso   1.000  H
  H9       1.0000 0.43410  0.12240  0.82860  Biso   1.000  H
  H10      1.0000 0.25040  0.44730  0.02290  Biso   1.000  H
  H11      1.0000 0.59320  0.11050  0.01240  Biso   1.000  H
  H12      1.0000 0.26440  0.06640  0.32480  Biso   1.000  H
  H13      1.0000 0.03430  0.25590  0.31560  Biso   1.000  H
  H14      1.0000 0.01560  0.40240  0.18890  Biso   1.000  H
  H15      1.0000 0.62150  0.33000  0.85530  Biso   1.000  H
  H16      1.0000 0.51950  0.46860  0.87330  Biso   1.000  H
  H17      1.0000 0.43470  0.85860  0.29480  Biso   1.000  H
  H18      1.0000 0.56590  0.87760  0.17140  Biso   1.000  H
  C1       1.0000 0.76760  0.73320  0.81500  Biso   1.000  C
  C2       1.0000 0.70090  0.65000  0.93710  Biso   1.000  C
  C3       1.0000 0.56630  0.70560  0.00080  Biso   1.000  C
  C4       1.0000 0.49760  0.84960  0.94320  Biso   1.000  C
  C5       1.0000 0.56130  0.93490  0.82110  Biso   1.000  C
  C6       1.0000 0.69330  0.87570  0.75900  Biso   1.000  C
  C7       1.0000 0.90750  0.67050  0.74470  Biso   1.000  C
  C8       1.0000 0.86210  0.60490  0.66320  Biso   1.000  C
  C9       1.0000 0.49040  0.61730  0.13180  Biso   1.000  C
  C10      1.0000 0.58480  0.57430  0.25380  Biso   1.000  C
  C11      1.0000 0.47980  0.09010  0.75690  Biso   1.000  C
  C12      1.0000 0.34580  0.13090  0.66650  Biso   1.000  C
  C13      1.0000 0.23240  0.26680  0.18500  Biso   1.000  C
  C14      1.0000 0.29910  0.35000  0.06290  Biso   1.000  C
  C15      1.0000 0.43370  0.29440  0.99920  Biso   1.000  C
  C16      1.0000 0.50240  0.15040  0.05680  Biso   1.000  C
  C17      1.0000 0.43870  0.06510  0.17890  Biso   1.000  C
  C18      1.0000 0.30670  0.12430  0.24100  Biso   1.000  C
  C19      1.0000 0.09250  0.32950  0.25530  Biso   1.000  C
  C20      1.0000 0.13790  0.39510  0.33680  Biso   1.000  C
  C21      1.0000 0.50960  0.38270  0.86820  Biso   1.000  C
  C22      1.0000 0.41520  0.42570  0.74620  Biso   1.000  C
  C23      1.0000 0.52020  0.90990  0.24310  Biso   1.000  C
  C24      1.0000 0.65420  0.86910  0.33350  Biso   1.000  C
  O1       1.0000 0.96950  0.56290  0.58840  Biso   1.000  O
  O2       1.0000 0.71800  0.59240  0.67350  Biso   1.000  O
  O3       1.0000 0.73450  0.56350  0.24400  Biso   1.000  O
  O4       1.0000 0.50330  0.54790  0.36620  Biso   1.000  O
  O5       1.0000 0.27600  0.25940  0.61510  Biso   1.000  O
  O6       1.0000 0.30540  0.03850  0.65010  Biso   1.000  O
  O7       1.0000 0.74590  0.27370  0.48790  Biso   1.000  O
  O8       1.0000 0.88570  0.28660  0.69550  Biso   1.000  O
  O9       1.0000 0.03050  0.43710  0.41160  Biso   1.000  O
  O10      1.0000 0.28200  0.40760  0.32650  Biso   1.000  O
  O11      1.0000 0.26550  0.43650  0.75600  Biso   1.000  O
  O12      1.0000 0.49670  0.45210  0.63380  Biso   1.000  O
  O13      1.0000 0.72400  0.74060  0.38490  Biso   1.000  O
  O14      1.0000 0.69460  0.96150  0.34990  Biso   1.000  O
  O15      1.0000 0.25410  0.72630  0.51210  Biso   1.000  O
  O16      1.0000 0.11430  0.71340  0.30450  Biso   1.000  O
