data_image0
_cell_length_a       15.854
_cell_length_b       10.515
_cell_length_c       20.947
_cell_angle_alpha    90
_cell_angle_beta     107.587
_cell_angle_gamma    90

_symmetry_space_group_name_H-M    "P 1"
_symmetry_int_tables_number       1

loop_
  _symmetry_equiv_pos_as_xyz
  'x, y, z'

loop_
  _atom_site_label
  _atom_site_occupancy
  _atom_site_fract_x
  _atom_site_fract_y
  _atom_site_fract_z
  _atom_site_thermal_displace_type
  _atom_site_B_iso_or_equiv
  _atom_site_type_symbol
  C1       1.0000 0.74760  0.72780  0.75480  Biso   1.000  C
  C2       1.0000 0.73130  0.80050  0.80600  Biso   1.000  C
  H1       1.0000 0.76520  0.78650  0.85010  Biso   1.000  H
  C3       1.0000 0.66610  0.89220  0.79240  Biso   1.000  C
  C4       1.0000 0.61330  0.91430  0.72730  Biso   1.000  C
  H2       1.0000 0.56840  0.97470  0.71830  Biso   1.000  H
  C5       1.0000 0.62920  0.84350  0.67570  Biso   1.000  C
  C6       1.0000 0.69590  0.75320  0.68930  Biso   1.000  C
  H3       1.0000 0.70650  0.70870  0.65410  Biso   1.000  H
  C7       1.0000 0.57530  0.86750  0.60400  Biso   1.000  C
  C8       1.0000 0.61870  0.16820  0.56870  Biso   1.000  C
  C9       1.0000 0.67810  0.26800  0.60880  Biso   1.000  C
  C10      1.0000 0.65280  0.33500  0.65670  Biso   1.000  C
  H4       1.0000 0.60030  0.31450  0.66540  Biso   1.000  H
  C11      1.0000 0.70530  0.43270  0.69180  Biso   1.000  C
  H5       1.0000 0.68790  0.47640  0.72420  Biso   1.000  H
  C12      1.0000 0.78280  0.46610  0.67950  Biso   1.000  C
  C13      1.0000 0.80860  0.39700  0.63240  Biso   1.000  C
  H6       1.0000 0.86160  0.41650  0.62430  Biso   1.000  H
  C14      1.0000 0.75680  0.29940  0.59740  Biso   1.000  C
  H7       1.0000 0.77510  0.25420  0.56580  Biso   1.000  H
  C15      1.0000 0.83990  0.57660  0.71420  Biso   1.000  C
  H8       1.0000 0.90050  0.54740  0.73230  Biso   1.000  H
  H9       1.0000 0.83890  0.64190  0.68130  Biso   1.000  H
  C16      1.0000 0.86530  0.60180  0.83530  Biso   1.000  C
  H10      1.0000 0.88070  0.51230  0.83710  Biso   1.000  H
  H11      1.0000 0.83000  0.61500  0.86530  Biso   1.000  H
  C17      1.0000 0.94960  0.67920  0.86020  Biso   1.000  C
  C18      1.0000 0.96460  0.78520  0.82820  Biso   1.000  C
  H12      1.0000 0.92190  0.81140  0.78930  Biso   1.000  H
  C19      1.0000 0.04220  0.85590  0.85210  Biso   1.000  C
  H13      1.0000 0.05120  0.92750  0.82890  Biso   1.000  H
  C20      1.0000 0.10490  0.81930  0.90970  Biso   1.000  C
  C21      1.0000 0.09230  0.71140  0.94170  Biso   1.000  C
  H14      1.0000 0.13590  0.68490  0.98000  Biso   1.000  H
  C22      1.0000 0.01530  0.64080  0.91770  Biso   1.000  C
  H15      1.0000 0.00750  0.56750  0.94020  Biso   1.000  H
  C23      1.0000 0.18750  0.89580  0.93740  Biso   1.000  C
  C24      1.0000 0.65300  0.96760  0.84970  Biso   1.000  C
  C25      1.0000 0.38180  0.40640  0.56400  Biso   1.000  C
  C26      1.0000 0.39250  0.46890  0.66550  Biso   1.000  C
  H16      1.0000 0.40020  0.54500  0.69200  Biso   1.000  H
  H17      1.0000 0.43950  0.41040  0.68570  Biso   1.000  H
  H18      1.0000 0.33670  0.43060  0.66310  Biso   1.000  H
  C27      1.0000 0.39410  0.63430  0.58560  Biso   1.000  C
  H19      1.0000 0.40680  0.67810  0.62770  Biso   1.000  H
  H20      1.0000 0.33690  0.65970  0.55710  Biso   1.000  H
  H21      1.0000 0.43830  0.65500  0.56450  Biso   1.000  H
  O1       1.0000 0.50200  0.92030  0.59256  Biso   1.000  O
  O2       1.0000 0.60790  0.83120  0.55943  Biso   1.000  O
  O3       1.0000 0.53950  0.17010  0.56690  Biso   1.000  O
  O4       1.0000 0.65140  0.08810  0.53819  Biso   1.000  O
  O5       1.0000 0.19550  0.99190  0.90050  Biso   1.000  O
  O6       1.0000 0.24190  0.86680  0.98970  Biso   1.000  O
  O7       1.0000 0.68860  0.92950  0.90836  Biso   1.000  O
  O8       1.0000 0.60560  0.06600  0.83851  Biso   1.000  O
  O9       1.0000 0.38080  0.29480  0.57340  Biso   1.000  O
  Eu1      1.0000 0.39911  0.07866  0.54577  Biso   1.000  Eu
  N1       1.0000 0.81220  0.63260  0.76790  Biso   1.000  N
  N2       1.0000 0.39440  0.50130  0.59670  Biso   1.000  N
  C28      1.0000 0.41940  0.45100  0.50140  Biso   1.000  C
  H22      1.0000 0.42450  0.54200  0.50130  Biso   1.000  H
  H23      1.0000 0.37900  0.42330  0.45970  Biso   1.000  H
  H24      1.0000 0.47640  0.41340  0.50720  Biso   1.000  H
  C29      1.0000 0.25240  0.72780  0.74520  Biso   1.000  C
  C30      1.0000 0.26870  0.80050  0.69400  Biso   1.000  C
  H25      1.0000 0.23480  0.78650  0.64990  Biso   1.000  H
  C31      1.0000 0.33390  0.89220  0.70760  Biso   1.000  C
  C32      1.0000 0.38670  0.91430  0.77270  Biso   1.000  C
  H26      1.0000 0.43160  0.97470  0.78170  Biso   1.000  H
  C33      1.0000 0.37080  0.84350  0.82430  Biso   1.000  C
  C34      1.0000 0.30410  0.75320  0.81070  Biso   1.000  C
  H27      1.0000 0.29350  0.70870  0.84590  Biso   1.000  H
  C35      1.0000 0.42470  0.86750  0.89600  Biso   1.000  C
  C36      1.0000 0.38130  0.16820  0.93130  Biso   1.000  C
  C37      1.0000 0.32190  0.26800  0.89120  Biso   1.000  C
  C38      1.0000 0.34720  0.33500  0.84330  Biso   1.000  C
  H28      1.0000 0.39970  0.31450  0.83460  Biso   1.000  H
  C39      1.0000 0.29470  0.43270  0.80820  Biso   1.000  C
  H29      1.0000 0.31210  0.47640  0.77580  Biso   1.000  H
  C40      1.0000 0.21720  0.46610  0.82050  Biso   1.000  C
  C41      1.0000 0.19140  0.39700  0.86760  Biso   1.000  C
  H30      1.0000 0.13840  0.41650  0.87570  Biso   1.000  H
  C42      1.0000 0.24320  0.29940  0.90260  Biso   1.000  C
  H31      1.0000 0.22490  0.25420  0.93420  Biso   1.000  H
  C43      1.0000 0.16010  0.57660  0.78580  Biso   1.000  C
  H32      1.0000 0.09950  0.54740  0.76770  Biso   1.000  H
  H33      1.0000 0.16110  0.64190  0.81870  Biso   1.000  H
  C44      1.0000 0.13470  0.60180  0.66470  Biso   1.000  C
  H34      1.0000 0.11930  0.51230  0.66290  Biso   1.000  H
  H35      1.0000 0.17000  0.61500  0.63470  Biso   1.000  H
  C45      1.0000 0.05040  0.67920  0.63980  Biso   1.000  C
  C46      1.0000 0.03540  0.78520  0.67180  Biso   1.000  C
  H36      1.0000 0.07810  0.81140  0.71070  Biso   1.000  H
  C47      1.0000 0.95780  0.85590  0.64790  Biso   1.000  C
  H37      1.0000 0.94880  0.92750  0.67110  Biso   1.000  H
  C48      1.0000 0.89510  0.81930  0.59030  Biso   1.000  C
  C49      1.0000 0.90770  0.71140  0.55830  Biso   1.000  C
  H38      1.0000 0.86410  0.68490  0.52000  Biso   1.000  H
  C50      1.0000 0.98470  0.64080  0.58230  Biso   1.000  C
  H39      1.0000 0.99250  0.56750  0.55980  Biso   1.000  H
  C51      1.0000 0.81250  0.89580  0.56260  Biso   1.000  C
  C52      1.0000 0.34700  0.96760  0.65030  Biso   1.000  C
  C53      1.0000 0.61820  0.40640  0.93600  Biso   1.000  C
  C54      1.0000 0.60750  0.46890  0.83450  Biso   1.000  C
  H40      1.0000 0.59980  0.54500  0.80800  Biso   1.000  H
  H41      1.0000 0.56050  0.41040  0.81430  Biso   1.000  H
  H42      1.0000 0.66330  0.43060  0.83690  Biso   1.000  H
  C55      1.0000 0.60590  0.63430  0.91440  Biso   1.000  C
  H43      1.0000 0.59320  0.67810  0.87230  Biso   1.000  H
  H44      1.0000 0.66310  0.65970  0.94290  Biso   1.000  H
  H45      1.0000 0.56170  0.65500  0.93550  Biso   1.000  H
  O10      1.0000 0.49800  0.92030  0.90744  Biso   1.000  O
  O11      1.0000 0.39210  0.83120  0.94057  Biso   1.000  O
  O12      1.0000 0.46050  0.17010  0.93310  Biso   1.000  O
  O13      1.0000 0.34860  0.08810  0.96181  Biso   1.000  O
  O14      1.0000 0.80450  0.99190  0.59950  Biso   1.000  O
  O15      1.0000 0.75810  0.86680  0.51030  Biso   1.000  O
  O16      1.0000 0.31140  0.92950  0.59164  Biso   1.000  O
  O17      1.0000 0.39440  0.06600  0.66149  Biso   1.000  O
  O18      1.0000 0.61920  0.29480  0.92660  Biso   1.000  O
  Eu2      1.0000 0.60089  0.07866  0.95423  Biso   1.000  Eu
  N3       1.0000 0.18780  0.63260  0.73210  Biso   1.000  N
  N4       1.0000 0.60560  0.50130  0.90330  Biso   1.000  N
  C56      1.0000 0.58060  0.45100  0.99860  Biso   1.000  C
  H46      1.0000 0.57550  0.54200  0.99870  Biso   1.000  H
  H47      1.0000 0.62100  0.42330  0.04030  Biso   1.000  H
  H48      1.0000 0.52360  0.41340  0.99280  Biso   1.000  H
  C57      1.0000 0.25240  0.27220  0.24520  Biso   1.000  C
  C58      1.0000 0.26870  0.19950  0.19400  Biso   1.000  C
  H49      1.0000 0.23480  0.21350  0.14990  Biso   1.000  H
  C59      1.0000 0.33390  0.10780  0.20760  Biso   1.000  C
  C60      1.0000 0.38670  0.08570  0.27270  Biso   1.000  C
  H50      1.0000 0.43160  0.02530  0.28170  Biso   1.000  H
  C61      1.0000 0.37080  0.15650  0.32430  Biso   1.000  C
  C62      1.0000 0.30410  0.24680  0.31070  Biso   1.000  C
  H51      1.0000 0.29350  0.29130  0.34590  Biso   1.000  H
  C63      1.0000 0.42470  0.13250  0.39600  Biso   1.000  C
  C64      1.0000 0.38130  0.83180  0.43130  Biso   1.000  C
  C65      1.0000 0.32190  0.73200  0.39120  Biso   1.000  C
  C66      1.0000 0.34720  0.66500  0.34330  Biso   1.000  C
  H52      1.0000 0.39970  0.68550  0.33460  Biso   1.000  H
  C67      1.0000 0.29470  0.56730  0.30820  Biso   1.000  C
  H53      1.0000 0.31210  0.52360  0.27580  Biso   1.000  H
  C68      1.0000 0.21720  0.53390  0.32050  Biso   1.000  C
  C69      1.0000 0.19140  0.60300  0.36760  Biso   1.000  C
  H54      1.0000 0.13840  0.58350  0.37570  Biso   1.000  H
  C70      1.0000 0.24320  0.70060  0.40260  Biso   1.000  C
  H55      1.0000 0.22490  0.74580  0.43420  Biso   1.000  H
  C71      1.0000 0.16010  0.42340  0.28580  Biso   1.000  C
  H56      1.0000 0.09950  0.45260  0.26770  Biso   1.000  H
  H57      1.0000 0.16110  0.35810  0.31870  Biso   1.000  H
  C72      1.0000 0.13470  0.39820  0.16470  Biso   1.000  C
  H58      1.0000 0.11930  0.48770  0.16290  Biso   1.000  H
  H59      1.0000 0.17000  0.38500  0.13470  Biso   1.000  H
  C73      1.0000 0.05040  0.32080  0.13980  Biso   1.000  C
  C74      1.0000 0.03540  0.21480  0.17180  Biso   1.000  C
  H60      1.0000 0.07810  0.18860  0.21070  Biso   1.000  H
  C75      1.0000 0.95780  0.14410  0.14790  Biso   1.000  C
  H61      1.0000 0.94880  0.07250  0.17110  Biso   1.000  H
  C76      1.0000 0.89510  0.18070  0.09030  Biso   1.000  C
  C77      1.0000 0.90770  0.28860  0.05830  Biso   1.000  C
  H62      1.0000 0.86410  0.31510  0.02000  Biso   1.000  H
  C78      1.0000 0.98470  0.35920  0.08230  Biso   1.000  C
  H63      1.0000 0.99250  0.43250  0.05980  Biso   1.000  H
  C79      1.0000 0.81250  0.10420  0.06260  Biso   1.000  C
  C80      1.0000 0.34700  0.03240  0.15030  Biso   1.000  C
  C81      1.0000 0.61820  0.59360  0.43600  Biso   1.000  C
  C82      1.0000 0.60750  0.53110  0.33450  Biso   1.000  C
  H64      1.0000 0.59980  0.45500  0.30800  Biso   1.000  H
  H65      1.0000 0.56050  0.58960  0.31430  Biso   1.000  H
  H66      1.0000 0.66330  0.56940  0.33690  Biso   1.000  H
  C83      1.0000 0.60590  0.36570  0.41440  Biso   1.000  C
  H67      1.0000 0.59320  0.32190  0.37230  Biso   1.000  H
  H68      1.0000 0.66310  0.34030  0.44290  Biso   1.000  H
  H69      1.0000 0.56170  0.34500  0.43550  Biso   1.000  H
  O19      1.0000 0.49800  0.07970  0.40744  Biso   1.000  O
  O20      1.0000 0.39210  0.16880  0.44057  Biso   1.000  O
  O21      1.0000 0.46050  0.82990  0.43310  Biso   1.000  O
  O22      1.0000 0.34860  0.91190  0.46181  Biso   1.000  O
  O23      1.0000 0.80450  0.00810  0.09950  Biso   1.000  O
  O24      1.0000 0.75810  0.13320  0.01030  Biso   1.000  O
  O25      1.0000 0.31140  0.07050  0.09164  Biso   1.000  O
  O26      1.0000 0.39440  0.93400  0.16149  Biso   1.000  O
  O27      1.0000 0.61920  0.70520  0.42660  Biso   1.000  O
  Eu3      1.0000 0.60089  0.92134  0.45423  Biso   1.000  Eu
  N5       1.0000 0.18780  0.36740  0.23210  Biso   1.000  N
  N6       1.0000 0.60560  0.49870  0.40330  Biso   1.000  N
  C84      1.0000 0.58060  0.54900  0.49860  Biso   1.000  C
  H70      1.0000 0.57550  0.45800  0.49870  Biso   1.000  H
  H71      1.0000 0.62100  0.57670  0.54030  Biso   1.000  H
  H72      1.0000 0.52360  0.58660  0.49280  Biso   1.000  H
  C85      1.0000 0.74760  0.27220  0.25480  Biso   1.000  C
  C86      1.0000 0.73130  0.19950  0.30600  Biso   1.000  C
  H73      1.0000 0.76520  0.21350  0.35010  Biso   1.000  H
  C87      1.0000 0.66610  0.10780  0.29240  Biso   1.000  C
  C88      1.0000 0.61330  0.08570  0.22730  Biso   1.000  C
  H74      1.0000 0.56840  0.02530  0.21830  Biso   1.000  H
  C89      1.0000 0.62920  0.15650  0.17570  Biso   1.000  C
  C90      1.0000 0.69590  0.24680  0.18930  Biso   1.000  C
  H75      1.0000 0.70650  0.29130  0.15410  Biso   1.000  H
  C91      1.0000 0.57530  0.13250  0.10400  Biso   1.000  C
  C92      1.0000 0.61870  0.83180  0.06870  Biso   1.000  C
  C93      1.0000 0.67810  0.73200  0.10880  Biso   1.000  C
  C94      1.0000 0.65280  0.66500  0.15670  Biso   1.000  C
  H76      1.0000 0.60030  0.68550  0.16540  Biso   1.000  H
  C95      1.0000 0.70530  0.56730  0.19180  Biso   1.000  C
  H77      1.0000 0.68790  0.52360  0.22420  Biso   1.000  H
  C96      1.0000 0.78280  0.53390  0.17950  Biso   1.000  C
  C97      1.0000 0.80860  0.60300  0.13240  Biso   1.000  C
  H78      1.0000 0.86160  0.58350  0.12430  Biso   1.000  H
  C98      1.0000 0.75680  0.70060  0.09740  Biso   1.000  C
  H79      1.0000 0.77510  0.74580  0.06580  Biso   1.000  H
  C99      1.0000 0.83990  0.42340  0.21420  Biso   1.000  C
  H80      1.0000 0.90050  0.45260  0.23230  Biso   1.000  H
  H81      1.0000 0.83890  0.35810  0.18130  Biso   1.000  H
  C100     1.0000 0.86530  0.39820  0.33530  Biso   1.000  C
  H82      1.0000 0.88070  0.48770  0.33710  Biso   1.000  H
  H83      1.0000 0.83000  0.38500  0.36530  Biso   1.000  H
  C101     1.0000 0.94960  0.32080  0.36020  Biso   1.000  C
  C102     1.0000 0.96460  0.21480  0.32820  Biso   1.000  C
  H84      1.0000 0.92190  0.18860  0.28930  Biso   1.000  H
  C103     1.0000 0.04220  0.14410  0.35210  Biso   1.000  C
  H85      1.0000 0.05120  0.07250  0.32890  Biso   1.000  H
  C104     1.0000 0.10490  0.18070  0.40970  Biso   1.000  C
  C105     1.0000 0.09230  0.28860  0.44170  Biso   1.000  C
  H86      1.0000 0.13590  0.31510  0.48000  Biso   1.000  H
  C106     1.0000 0.01530  0.35920  0.41770  Biso   1.000  C
  H87      1.0000 0.00750  0.43250  0.44020  Biso   1.000  H
  C107     1.0000 0.18750  0.10420  0.43740  Biso   1.000  C
  C108     1.0000 0.65300  0.03240  0.34970  Biso   1.000  C
  C109     1.0000 0.38180  0.59360  0.06400  Biso   1.000  C
  C110     1.0000 0.39250  0.53110  0.16550  Biso   1.000  C
  H88      1.0000 0.40020  0.45500  0.19200  Biso   1.000  H
  H89      1.0000 0.43950  0.58960  0.18570  Biso   1.000  H
  H90      1.0000 0.33670  0.56940  0.16310  Biso   1.000  H
  C111     1.0000 0.39410  0.36570  0.08560  Biso   1.000  C
  H91      1.0000 0.40680  0.32190  0.12770  Biso   1.000  H
  H92      1.0000 0.33690  0.34030  0.05710  Biso   1.000  H
  H93      1.0000 0.43830  0.34500  0.06450  Biso   1.000  H
  O28      1.0000 0.50200  0.07970  0.09256  Biso   1.000  O
  O29      1.0000 0.60790  0.16880  0.05943  Biso   1.000  O
  O30      1.0000 0.53950  0.82990  0.06690  Biso   1.000  O
  O31      1.0000 0.65140  0.91190  0.03819  Biso   1.000  O
  O32      1.0000 0.19550  0.00810  0.40050  Biso   1.000  O
  O33      1.0000 0.24190  0.13320  0.48970  Biso   1.000  O
  O34      1.0000 0.68860  0.07050  0.40836  Biso   1.000  O
  O35      1.0000 0.60560  0.93400  0.33851  Biso   1.000  O
  O36      1.0000 0.38080  0.70520  0.07340  Biso   1.000  O
  Eu4      1.0000 0.39911  0.92134  0.04577  Biso   1.000  Eu
  N7       1.0000 0.81220  0.36740  0.26790  Biso   1.000  N
  N8       1.0000 0.39440  0.49870  0.09670  Biso   1.000  N
  C112     1.0000 0.41940  0.54900  0.00140  Biso   1.000  C
  H94      1.0000 0.42450  0.45800  0.00130  Biso   1.000  H
  H95      1.0000 0.37900  0.57670  0.95970  Biso   1.000  H
  H96      1.0000 0.47640  0.58660  0.00720  Biso   1.000  H
