data_image0
_cell_length_a       15.858
_cell_length_b       10.522
_cell_length_c       20.97
_cell_angle_alpha    90
_cell_angle_beta     107.52
_cell_angle_gamma    90

_symmetry_space_group_name_H-M    "P 1"
_symmetry_int_tables_number       1

loop_
  _symmetry_equiv_pos_as_xyz
  'x, y, z'

loop_
  _atom_site_label
  _atom_site_occupancy
  _atom_site_fract_x
  _atom_site_fract_y
  _atom_site_fract_z
  _atom_site_thermal_displace_type
  _atom_site_B_iso_or_equiv
  _atom_site_type_symbol
  C1       1.0000 0.74870  0.72790  0.75510  Biso   1.000  C
  C2       1.0000 0.69650  0.75270  0.68900  Biso   1.000  C
  H1       1.0000 0.70680  0.70810  0.65380  Biso   1.000  H
  C3       1.0000 0.62940  0.84370  0.67600  Biso   1.000  C
  C4       1.0000 0.61330  0.91380  0.72720  Biso   1.000  C
  H2       1.0000 0.56850  0.97420  0.71820  Biso   1.000  H
  C5       1.0000 0.66620  0.89120  0.79200  Biso   1.000  C
  C6       1.0000 0.73120  0.80020  0.80630  Biso   1.000  C
  H3       1.0000 0.76430  0.78600  0.85050  Biso   1.000  H
  C7       1.0000 0.65400  0.96830  0.84950  Biso   1.000  C
  C8       1.0000 0.57600  0.86650  0.60400  Biso   1.000  C
  C9       1.0000 0.86460  0.60150  0.83560  Biso   1.000  C
  H4       1.0000 0.87950  0.51190  0.83750  Biso   1.000  H
  H5       1.0000 0.82960  0.61580  0.86570  Biso   1.000  H
  C10      1.0000 0.94950  0.67850  0.85970  Biso   1.000  C
  C11      1.0000 0.96520  0.78480  0.82720  Biso   1.000  C
  H6       1.0000 0.92300  0.81050  0.78800  Biso   1.000  H
  C12      1.0000 0.04170  0.85430  0.85110  Biso   1.000  C
  H7       1.0000 0.05100  0.92570  0.82790  Biso   1.000  H
  C13      1.0000 0.10460  0.81780  0.90940  Biso   1.000  C
  C14      1.0000 0.09140  0.70980  0.94140  Biso   1.000  C
  H8       1.0000 0.13460  0.68300  0.97980  Biso   1.000  H
  C15      1.0000 0.01500  0.64050  0.91740  Biso   1.000  C
  H9       1.0000 0.00690  0.56740  0.93980  Biso   1.000  H
  C16      1.0000 0.18730  0.89300  0.93730  Biso   1.000  C
  C17      1.0000 0.83970  0.57770  0.71380  Biso   1.000  C
  H10      1.0000 0.90050  0.54960  0.73160  Biso   1.000  H
  H11      1.0000 0.83780  0.64320  0.68090  Biso   1.000  H
  C18      1.0000 0.78310  0.46610  0.67940  Biso   1.000  C
  C19      1.0000 0.70550  0.43210  0.69190  Biso   1.000  C
  H12      1.0000 0.68770  0.47550  0.72430  Biso   1.000  H
  C20      1.0000 0.65360  0.33400  0.65670  Biso   1.000  C
  H13      1.0000 0.60120  0.31300  0.66550  Biso   1.000  H
  C21      1.0000 0.67860  0.26790  0.60940  Biso   1.000  C
  C22      1.0000 0.61940  0.16790  0.56900  Biso   1.000  C
  C23      1.0000 0.75870  0.29810  0.59760  Biso   1.000  C
  H14      1.0000 0.77780  0.25110  0.56700  Biso   1.000  H
  C24      1.0000 0.80920  0.39840  0.63170  Biso   1.000  C
  H15      1.0000 0.86110  0.42050  0.62250  Biso   1.000  H
  C25      1.0000 0.38170  0.40700  0.56050  Biso   1.000  C
  C26      1.0000 0.39400  0.63660  0.58580  Biso   1.000  C
  H16      1.0000 0.40600  0.67990  0.62790  Biso   1.000  H
  H17      1.0000 0.33690  0.66160  0.55720  Biso   1.000  H
  H18      1.0000 0.43840  0.65840  0.56510  Biso   1.000  H
  C27      1.0000 0.40050  0.47400  0.66730  Biso   1.000  C
  H19      1.0000 0.40700  0.55140  0.69240  Biso   1.000  H
  H20      1.0000 0.45060  0.41990  0.68650  Biso   1.000  H
  H21      1.0000 0.34750  0.43110  0.66850  Biso   1.000  H
  C28      1.0000 0.32570  0.43140  0.48920  Biso   1.000  C
  H22      1.0000 0.32920  0.51960  0.47870  Biso   1.000  H
  H23      1.0000 0.26530  0.40950  0.48440  Biso   1.000  H
  H24      1.0000 0.34700  0.38050  0.45930  Biso   1.000  H
  N1       1.0000 0.81160  0.63270  0.76810  Biso   1.000  N
  N2       1.0000 0.39500  0.50330  0.59660  Biso   1.000  N
  O1       1.0000 0.24130  0.86560  0.98970  Biso   1.000  O
  O2       1.0000 0.19540  0.98980  0.90110  Biso   1.000  O
  O3       1.0000 0.60560  0.06570  0.83790  Biso   1.000  O
  O4       1.0000 0.50240  0.92140  0.59300  Biso   1.000  O
  O5       1.0000 0.60840  0.83070  0.55940  Biso   1.000  O
  O6       1.0000 0.38150  0.29580  0.57420  Biso   1.000  O
  O7       1.0000 0.68890  0.92920  0.90840  Biso   1.000  O
  O8       1.0000 0.54030  0.17010  0.56640  Biso   1.000  O
  O9       1.0000 0.65260  0.08740  0.53860  Biso   1.000  O
  Sm1      1.0000 0.39932  0.07927  0.54608  Biso   1.000  Sm
  C29      1.0000 0.25130  0.72790  0.74490  Biso   1.000  C
  C30      1.0000 0.30350  0.75270  0.81100  Biso   1.000  C
  H25      1.0000 0.29320  0.70810  0.84620  Biso   1.000  H
  C31      1.0000 0.37060  0.84370  0.82400  Biso   1.000  C
  C32      1.0000 0.38670  0.91380  0.77280  Biso   1.000  C
  H26      1.0000 0.43150  0.97420  0.78180  Biso   1.000  H
  C33      1.0000 0.33380  0.89120  0.70800  Biso   1.000  C
  C34      1.0000 0.26880  0.80020  0.69370  Biso   1.000  C
  H27      1.0000 0.23570  0.78600  0.64950  Biso   1.000  H
  C35      1.0000 0.34600  0.96830  0.65050  Biso   1.000  C
  C36      1.0000 0.42400  0.86650  0.89600  Biso   1.000  C
  C37      1.0000 0.13540  0.60150  0.66440  Biso   1.000  C
  H28      1.0000 0.12050  0.51190  0.66250  Biso   1.000  H
  H29      1.0000 0.17040  0.61580  0.63430  Biso   1.000  H
  C38      1.0000 0.05050  0.67850  0.64030  Biso   1.000  C
  C39      1.0000 0.03480  0.78480  0.67280  Biso   1.000  C
  H30      1.0000 0.07700  0.81050  0.71200  Biso   1.000  H
  C40      1.0000 0.95830  0.85430  0.64890  Biso   1.000  C
  H31      1.0000 0.94900  0.92570  0.67210  Biso   1.000  H
  C41      1.0000 0.89540  0.81780  0.59060  Biso   1.000  C
  C42      1.0000 0.90860  0.70980  0.55860  Biso   1.000  C
  H32      1.0000 0.86540  0.68300  0.52020  Biso   1.000  H
  C43      1.0000 0.98500  0.64050  0.58260  Biso   1.000  C
  H33      1.0000 0.99310  0.56740  0.56020  Biso   1.000  H
  C44      1.0000 0.81270  0.89300  0.56270  Biso   1.000  C
  C45      1.0000 0.16030  0.57770  0.78620  Biso   1.000  C
  H34      1.0000 0.09950  0.54960  0.76840  Biso   1.000  H
  H35      1.0000 0.16220  0.64320  0.81910  Biso   1.000  H
  C46      1.0000 0.21690  0.46610  0.82060  Biso   1.000  C
  C47      1.0000 0.29450  0.43210  0.80810  Biso   1.000  C
  H36      1.0000 0.31230  0.47550  0.77570  Biso   1.000  H
  C48      1.0000 0.34640  0.33400  0.84330  Biso   1.000  C
  H37      1.0000 0.39880  0.31300  0.83450  Biso   1.000  H
  C49      1.0000 0.32140  0.26790  0.89060  Biso   1.000  C
  C50      1.0000 0.38060  0.16790  0.93100  Biso   1.000  C
  C51      1.0000 0.24130  0.29810  0.90240  Biso   1.000  C
  H38      1.0000 0.22220  0.25110  0.93300  Biso   1.000  H
  C52      1.0000 0.19080  0.39840  0.86830  Biso   1.000  C
  H39      1.0000 0.13890  0.42050  0.87750  Biso   1.000  H
  C53      1.0000 0.61830  0.40700  0.93950  Biso   1.000  C
  C54      1.0000 0.60600  0.63660  0.91420  Biso   1.000  C
  H40      1.0000 0.59400  0.67990  0.87210  Biso   1.000  H
  H41      1.0000 0.66310  0.66160  0.94280  Biso   1.000  H
  H42      1.0000 0.56160  0.65840  0.93490  Biso   1.000  H
  C55      1.0000 0.59950  0.47400  0.83270  Biso   1.000  C
  H43      1.0000 0.59300  0.55140  0.80760  Biso   1.000  H
  H44      1.0000 0.54940  0.41990  0.81350  Biso   1.000  H
  H45      1.0000 0.65250  0.43110  0.83150  Biso   1.000  H
  C56      1.0000 0.67430  0.43140  0.01080  Biso   1.000  C
  H46      1.0000 0.67080  0.51960  0.02130  Biso   1.000  H
  H47      1.0000 0.73470  0.40950  0.01560  Biso   1.000  H
  H48      1.0000 0.65300  0.38050  0.04070  Biso   1.000  H
  N3       1.0000 0.18840  0.63270  0.73190  Biso   1.000  N
  N4       1.0000 0.60500  0.50330  0.90340  Biso   1.000  N
  O10      1.0000 0.75870  0.86560  0.51030  Biso   1.000  O
  O11      1.0000 0.80460  0.98980  0.59890  Biso   1.000  O
  O12      1.0000 0.39440  0.06570  0.66210  Biso   1.000  O
  O13      1.0000 0.49760  0.92140  0.90700  Biso   1.000  O
  O14      1.0000 0.39160  0.83070  0.94060  Biso   1.000  O
  O15      1.0000 0.61850  0.29580  0.92580  Biso   1.000  O
  O16      1.0000 0.31110  0.92920  0.59160  Biso   1.000  O
  O17      1.0000 0.45970  0.17010  0.93360  Biso   1.000  O
  O18      1.0000 0.34740  0.08740  0.96140  Biso   1.000  O
  Sm2      1.0000 0.60068  0.07927  0.95392  Biso   1.000  Sm
  C57      1.0000 0.25130  0.27210  0.24490  Biso   1.000  C
  C58      1.0000 0.30350  0.24730  0.31100  Biso   1.000  C
  H49      1.0000 0.29320  0.29190  0.34620  Biso   1.000  H
  C59      1.0000 0.37060  0.15630  0.32400  Biso   1.000  C
  C60      1.0000 0.38670  0.08620  0.27280  Biso   1.000  C
  H50      1.0000 0.43150  0.02580  0.28180  Biso   1.000  H
  C61      1.0000 0.33380  0.10880  0.20800  Biso   1.000  C
  C62      1.0000 0.26880  0.19980  0.19370  Biso   1.000  C
  H51      1.0000 0.23570  0.21400  0.14950  Biso   1.000  H
  C63      1.0000 0.34600  0.03170  0.15050  Biso   1.000  C
  C64      1.0000 0.42400  0.13350  0.39600  Biso   1.000  C
  C65      1.0000 0.13540  0.39850  0.16440  Biso   1.000  C
  H52      1.0000 0.12050  0.48810  0.16250  Biso   1.000  H
  H53      1.0000 0.17040  0.38420  0.13430  Biso   1.000  H
  C66      1.0000 0.05050  0.32150  0.14030  Biso   1.000  C
  C67      1.0000 0.03480  0.21520  0.17280  Biso   1.000  C
  H54      1.0000 0.07700  0.18950  0.21200  Biso   1.000  H
  C68      1.0000 0.95830  0.14570  0.14890  Biso   1.000  C
  H55      1.0000 0.94900  0.07430  0.17210  Biso   1.000  H
  C69      1.0000 0.89540  0.18220  0.09060  Biso   1.000  C
  C70      1.0000 0.90860  0.29020  0.05860  Biso   1.000  C
  H56      1.0000 0.86540  0.31700  0.02020  Biso   1.000  H
  C71      1.0000 0.98500  0.35950  0.08260  Biso   1.000  C
  H57      1.0000 0.99310  0.43260  0.06020  Biso   1.000  H
  C72      1.0000 0.81270  0.10700  0.06270  Biso   1.000  C
  C73      1.0000 0.16030  0.42230  0.28620  Biso   1.000  C
  H58      1.0000 0.09950  0.45040  0.26840  Biso   1.000  H
  H59      1.0000 0.16220  0.35680  0.31910  Biso   1.000  H
  C74      1.0000 0.21690  0.53390  0.32060  Biso   1.000  C
  C75      1.0000 0.29450  0.56790  0.30810  Biso   1.000  C
  H60      1.0000 0.31230  0.52450  0.27570  Biso   1.000  H
  C76      1.0000 0.34640  0.66600  0.34330  Biso   1.000  C
  H61      1.0000 0.39880  0.68700  0.33450  Biso   1.000  H
  C77      1.0000 0.32140  0.73210  0.39060  Biso   1.000  C
  C78      1.0000 0.38060  0.83210  0.43100  Biso   1.000  C
  C79      1.0000 0.24130  0.70190  0.40240  Biso   1.000  C
  H62      1.0000 0.22220  0.74890  0.43300  Biso   1.000  H
  C80      1.0000 0.19080  0.60160  0.36830  Biso   1.000  C
  H63      1.0000 0.13890  0.57950  0.37750  Biso   1.000  H
  C81      1.0000 0.61830  0.59300  0.43950  Biso   1.000  C
  C82      1.0000 0.60600  0.36340  0.41420  Biso   1.000  C
  H64      1.0000 0.59400  0.32010  0.37210  Biso   1.000  H
  H65      1.0000 0.66310  0.33840  0.44280  Biso   1.000  H
  H66      1.0000 0.56160  0.34160  0.43490  Biso   1.000  H
  C83      1.0000 0.59950  0.52600  0.33270  Biso   1.000  C
  H67      1.0000 0.59300  0.44860  0.30760  Biso   1.000  H
  H68      1.0000 0.54940  0.58010  0.31350  Biso   1.000  H
  H69      1.0000 0.65250  0.56890  0.33150  Biso   1.000  H
  C84      1.0000 0.67430  0.56860  0.51080  Biso   1.000  C
  H70      1.0000 0.67080  0.48040  0.52130  Biso   1.000  H
  H71      1.0000 0.73470  0.59050  0.51560  Biso   1.000  H
  H72      1.0000 0.65300  0.61950  0.54070  Biso   1.000  H
  N5       1.0000 0.18840  0.36730  0.23190  Biso   1.000  N
  N6       1.0000 0.60500  0.49670  0.40340  Biso   1.000  N
  O19      1.0000 0.75870  0.13440  0.01030  Biso   1.000  O
  O20      1.0000 0.80460  0.01020  0.09890  Biso   1.000  O
  O21      1.0000 0.39440  0.93430  0.16210  Biso   1.000  O
  O22      1.0000 0.49760  0.07860  0.40700  Biso   1.000  O
  O23      1.0000 0.39160  0.16930  0.44060  Biso   1.000  O
  O24      1.0000 0.61850  0.70420  0.42580  Biso   1.000  O
  O25      1.0000 0.31110  0.07080  0.09160  Biso   1.000  O
  O26      1.0000 0.45970  0.82990  0.43360  Biso   1.000  O
  O27      1.0000 0.34740  0.91260  0.46140  Biso   1.000  O
  Sm3      1.0000 0.60068  0.92073  0.45392  Biso   1.000  Sm
  C85      1.0000 0.74870  0.27210  0.25510  Biso   1.000  C
  C86      1.0000 0.69650  0.24730  0.18900  Biso   1.000  C
  H73      1.0000 0.70680  0.29190  0.15380  Biso   1.000  H
  C87      1.0000 0.62940  0.15630  0.17600  Biso   1.000  C
  C88      1.0000 0.61330  0.08620  0.22720  Biso   1.000  C
  H74      1.0000 0.56850  0.02580  0.21820  Biso   1.000  H
  C89      1.0000 0.66620  0.10880  0.29200  Biso   1.000  C
  C90      1.0000 0.73120  0.19980  0.30630  Biso   1.000  C
  H75      1.0000 0.76430  0.21400  0.35050  Biso   1.000  H
  C91      1.0000 0.65400  0.03170  0.34950  Biso   1.000  C
  C92      1.0000 0.57600  0.13350  0.10400  Biso   1.000  C
  C93      1.0000 0.86460  0.39850  0.33560  Biso   1.000  C
  H76      1.0000 0.87950  0.48810  0.33750  Biso   1.000  H
  H77      1.0000 0.82960  0.38420  0.36570  Biso   1.000  H
  C94      1.0000 0.94950  0.32150  0.35970  Biso   1.000  C
  C95      1.0000 0.96520  0.21520  0.32720  Biso   1.000  C
  H78      1.0000 0.92300  0.18950  0.28800  Biso   1.000  H
  C96      1.0000 0.04170  0.14570  0.35110  Biso   1.000  C
  H79      1.0000 0.05100  0.07430  0.32790  Biso   1.000  H
  C97      1.0000 0.10460  0.18220  0.40940  Biso   1.000  C
  C98      1.0000 0.09140  0.29020  0.44140  Biso   1.000  C
  H80      1.0000 0.13460  0.31700  0.47980  Biso   1.000  H
  C99      1.0000 0.01500  0.35950  0.41740  Biso   1.000  C
  H81      1.0000 0.00690  0.43260  0.43980  Biso   1.000  H
  C100     1.0000 0.18730  0.10700  0.43730  Biso   1.000  C
  C101     1.0000 0.83970  0.42230  0.21380  Biso   1.000  C
  H82      1.0000 0.90050  0.45040  0.23160  Biso   1.000  H
  H83      1.0000 0.83780  0.35680  0.18090  Biso   1.000  H
  C102     1.0000 0.78310  0.53390  0.17940  Biso   1.000  C
  C103     1.0000 0.70550  0.56790  0.19190  Biso   1.000  C
  H84      1.0000 0.68770  0.52450  0.22430  Biso   1.000  H
  C104     1.0000 0.65360  0.66600  0.15670  Biso   1.000  C
  H85      1.0000 0.60120  0.68700  0.16550  Biso   1.000  H
  C105     1.0000 0.67860  0.73210  0.10940  Biso   1.000  C
  C106     1.0000 0.61940  0.83210  0.06900  Biso   1.000  C
  C107     1.0000 0.75870  0.70190  0.09760  Biso   1.000  C
  H86      1.0000 0.77780  0.74890  0.06700  Biso   1.000  H
  C108     1.0000 0.80920  0.60160  0.13170  Biso   1.000  C
  H87      1.0000 0.86110  0.57950  0.12250  Biso   1.000  H
  C109     1.0000 0.38170  0.59300  0.06050  Biso   1.000  C
  C110     1.0000 0.39400  0.36340  0.08580  Biso   1.000  C
  H88      1.0000 0.40600  0.32010  0.12790  Biso   1.000  H
  H89      1.0000 0.33690  0.33840  0.05720  Biso   1.000  H
  H90      1.0000 0.43840  0.34160  0.06510  Biso   1.000  H
  C111     1.0000 0.40050  0.52600  0.16730  Biso   1.000  C
  H91      1.0000 0.40700  0.44860  0.19240  Biso   1.000  H
  H92      1.0000 0.45060  0.58010  0.18650  Biso   1.000  H
  H93      1.0000 0.34750  0.56890  0.16850  Biso   1.000  H
  C112     1.0000 0.32570  0.56860  0.98920  Biso   1.000  C
  H94      1.0000 0.32920  0.48040  0.97870  Biso   1.000  H
  H95      1.0000 0.26530  0.59050  0.98440  Biso   1.000  H
  H96      1.0000 0.34700  0.61950  0.95930  Biso   1.000  H
  N7       1.0000 0.81160  0.36730  0.26810  Biso   1.000  N
  N8       1.0000 0.39500  0.49670  0.09660  Biso   1.000  N
  O28      1.0000 0.24130  0.13440  0.48970  Biso   1.000  O
  O29      1.0000 0.19540  0.01020  0.40110  Biso   1.000  O
  O30      1.0000 0.60560  0.93430  0.33790  Biso   1.000  O
  O31      1.0000 0.50240  0.07860  0.09300  Biso   1.000  O
  O32      1.0000 0.60840  0.16930  0.05940  Biso   1.000  O
  O33      1.0000 0.38150  0.70420  0.07420  Biso   1.000  O
  O34      1.0000 0.68890  0.07080  0.40840  Biso   1.000  O
  O35      1.0000 0.54030  0.82990  0.06640  Biso   1.000  O
  O36      1.0000 0.65260  0.91260  0.03860  Biso   1.000  O
  Sm4      1.0000 0.39932  0.92073  0.04608  Biso   1.000  Sm
