data_image0
_cell_length_a       15.701
_cell_length_b       14.964
_cell_length_c       17.339
_cell_angle_alpha    90
_cell_angle_beta     115.096
_cell_angle_gamma    90

_symmetry_space_group_name_H-M    "P 1"
_symmetry_int_tables_number       1

loop_
  _symmetry_equiv_pos_as_xyz
  'x, y, z'

loop_
  _atom_site_label
  _atom_site_occupancy
  _atom_site_fract_x
  _atom_site_fract_y
  _atom_site_fract_z
  _atom_site_thermal_displace_type
  _atom_site_B_iso_or_equiv
  _atom_site_type_symbol
  Zn1      1.0000 0.04440  0.94929  0.34516  Biso   1.000  Zn
  O1       1.0000 0.04330  0.94200  0.68140  Biso   1.000  O
  O2       1.0000 0.13450  0.97130  0.81740  Biso   1.000  O
  O3       1.0000 0.42970  0.62940  0.81420  Biso   1.000  O
  O4       1.0000 0.38930  0.65730  0.67710  Biso   1.000  O
  N1       1.0000 0.10080  0.95190  0.47100  Biso   1.000  N
  N2       1.0000 0.16790  0.91270  0.60390  Biso   1.000  N
  C1       1.0000 0.12540  0.88470  0.52300  Biso   1.000  C
  H1       1.0000 0.11490  0.82520  0.50640  Biso   1.000  H
  C2       1.0000 0.13010  0.02820  0.52130  Biso   1.000  C
  H2       1.0000 0.12380  0.08670  0.50150  Biso   1.000  H
  C3       1.0000 0.16860  0.00330  0.60210  Biso   1.000  C
  H3       1.0000 0.19200  0.04100  0.64920  Biso   1.000  H
  C4       1.0000 0.20850  0.85710  0.67650  Biso   1.000  C
  C5       1.0000 0.27080  0.79350  0.67610  Biso   1.000  C
  H4       1.0000 0.28240  0.78590  0.62820  Biso   1.000  H
  C6       1.0000 0.31600  0.74110  0.74660  Biso   1.000  C
  C7       1.0000 0.30190  0.75350  0.81910  Biso   1.000  C
  H5       1.0000 0.33370  0.71890  0.86750  Biso   1.000  H
  C8       1.0000 0.23880  0.81920  0.81780  Biso   1.000  C
  H6       1.0000 0.23020  0.82940  0.86690  Biso   1.000  H
  C9       1.0000 0.18880  0.86940  0.74680  Biso   1.000  C
  C10      1.0000 0.11640  0.93300  0.74930  Biso   1.000  C
  C11      1.0000 0.38460  0.67020  0.74580  Biso   1.000  C
  Zn2      1.0000 0.54440  0.44929  0.34516  Biso   1.000  Zn
  O5       1.0000 0.54330  0.44200  0.68140  Biso   1.000  O
  O6       1.0000 0.63450  0.47130  0.81740  Biso   1.000  O
  O7       1.0000 0.92970  0.12940  0.81420  Biso   1.000  O
  O8       1.0000 0.88930  0.15730  0.67710  Biso   1.000  O
  N3       1.0000 0.60080  0.45190  0.47100  Biso   1.000  N
  N4       1.0000 0.66790  0.41270  0.60390  Biso   1.000  N
  C12      1.0000 0.62540  0.38470  0.52300  Biso   1.000  C
  H7       1.0000 0.61490  0.32520  0.50640  Biso   1.000  H
  C13      1.0000 0.63010  0.52820  0.52130  Biso   1.000  C
  H8       1.0000 0.62380  0.58670  0.50150  Biso   1.000  H
  C14      1.0000 0.66860  0.50330  0.60210  Biso   1.000  C
  H9       1.0000 0.69200  0.54100  0.64920  Biso   1.000  H
  C15      1.0000 0.70850  0.35710  0.67650  Biso   1.000  C
  C16      1.0000 0.77080  0.29350  0.67610  Biso   1.000  C
  H10      1.0000 0.78240  0.28590  0.62820  Biso   1.000  H
  C17      1.0000 0.81600  0.24110  0.74660  Biso   1.000  C
  C18      1.0000 0.80190  0.25350  0.81910  Biso   1.000  C
  H11      1.0000 0.83370  0.21890  0.86750  Biso   1.000  H
  C19      1.0000 0.73880  0.31920  0.81780  Biso   1.000  C
  H12      1.0000 0.73020  0.32940  0.86690  Biso   1.000  H
  C20      1.0000 0.68880  0.36940  0.74680  Biso   1.000  C
  C21      1.0000 0.61640  0.43300  0.74930  Biso   1.000  C
  C22      1.0000 0.88460  0.17020  0.74580  Biso   1.000  C
  Zn3      1.0000 0.95560  0.94929  0.15484  Biso   1.000  Zn
  O9       1.0000 0.95670  0.94200  0.81860  Biso   1.000  O
  O10      1.0000 0.86550  0.97130  0.68260  Biso   1.000  O
  O11      1.0000 0.57030  0.62940  0.68580  Biso   1.000  O
  O12      1.0000 0.61070  0.65730  0.82290  Biso   1.000  O
  N5       1.0000 0.89920  0.95190  0.02900  Biso   1.000  N
  N6       1.0000 0.83210  0.91270  0.89610  Biso   1.000  N
  C23      1.0000 0.87460  0.88470  0.97700  Biso   1.000  C
  H13      1.0000 0.88510  0.82520  0.99360  Biso   1.000  H
  C24      1.0000 0.86990  0.02820  0.97870  Biso   1.000  C
  H14      1.0000 0.87620  0.08670  0.99850  Biso   1.000  H
  C25      1.0000 0.83140  0.00330  0.89790  Biso   1.000  C
  H15      1.0000 0.80800  0.04100  0.85080  Biso   1.000  H
  C26      1.0000 0.79150  0.85710  0.82350  Biso   1.000  C
  C27      1.0000 0.72920  0.79350  0.82390  Biso   1.000  C
  H16      1.0000 0.71760  0.78590  0.87180  Biso   1.000  H
  C28      1.0000 0.68400  0.74110  0.75340  Biso   1.000  C
  C29      1.0000 0.69810  0.75350  0.68090  Biso   1.000  C
  H17      1.0000 0.66630  0.71890  0.63250  Biso   1.000  H
  C30      1.0000 0.76120  0.81920  0.68220  Biso   1.000  C
  H18      1.0000 0.76980  0.82940  0.63310  Biso   1.000  H
  C31      1.0000 0.81120  0.86940  0.75320  Biso   1.000  C
  C32      1.0000 0.88360  0.93300  0.75070  Biso   1.000  C
  C33      1.0000 0.61540  0.67020  0.75420  Biso   1.000  C
  Zn4      1.0000 0.45560  0.44929  0.15484  Biso   1.000  Zn
  O13      1.0000 0.45670  0.44200  0.81860  Biso   1.000  O
  O14      1.0000 0.36550  0.47130  0.68260  Biso   1.000  O
  O15      1.0000 0.07030  0.12940  0.68580  Biso   1.000  O
  O16      1.0000 0.11070  0.15730  0.82290  Biso   1.000  O
  N7       1.0000 0.39920  0.45190  0.02900  Biso   1.000  N
  N8       1.0000 0.33210  0.41270  0.89610  Biso   1.000  N
  C34      1.0000 0.37460  0.38470  0.97700  Biso   1.000  C
  H19      1.0000 0.38510  0.32520  0.99360  Biso   1.000  H
  C35      1.0000 0.36990  0.52820  0.97870  Biso   1.000  C
  H20      1.0000 0.37620  0.58670  0.99850  Biso   1.000  H
  C36      1.0000 0.33140  0.50330  0.89790  Biso   1.000  C
  H21      1.0000 0.30800  0.54100  0.85080  Biso   1.000  H
  C37      1.0000 0.29150  0.35710  0.82350  Biso   1.000  C
  C38      1.0000 0.22920  0.29350  0.82390  Biso   1.000  C
  H22      1.0000 0.21760  0.28590  0.87180  Biso   1.000  H
  C39      1.0000 0.18400  0.24110  0.75340  Biso   1.000  C
  C40      1.0000 0.19810  0.25350  0.68090  Biso   1.000  C
  H23      1.0000 0.16630  0.21890  0.63250  Biso   1.000  H
  C41      1.0000 0.26120  0.31920  0.68220  Biso   1.000  C
  H24      1.0000 0.26980  0.32940  0.63310  Biso   1.000  H
  C42      1.0000 0.31120  0.36940  0.75320  Biso   1.000  C
  C43      1.0000 0.38360  0.43300  0.75070  Biso   1.000  C
  C44      1.0000 0.11540  0.17020  0.75420  Biso   1.000  C
  Zn5      1.0000 0.95560  0.05071  0.65484  Biso   1.000  Zn
  O17      1.0000 0.95670  0.05800  0.31860  Biso   1.000  O
  O18      1.0000 0.86550  0.02870  0.18260  Biso   1.000  O
  O19      1.0000 0.57030  0.37060  0.18580  Biso   1.000  O
  O20      1.0000 0.61070  0.34270  0.32290  Biso   1.000  O
  N9       1.0000 0.89920  0.04810  0.52900  Biso   1.000  N
  N10      1.0000 0.83210  0.08730  0.39610  Biso   1.000  N
  C45      1.0000 0.87460  0.11530  0.47700  Biso   1.000  C
  H25      1.0000 0.88510  0.17480  0.49360  Biso   1.000  H
  C46      1.0000 0.86990  0.97180  0.47870  Biso   1.000  C
  H26      1.0000 0.87620  0.91330  0.49850  Biso   1.000  H
  C47      1.0000 0.83140  0.99670  0.39790  Biso   1.000  C
  H27      1.0000 0.80800  0.95900  0.35080  Biso   1.000  H
  C48      1.0000 0.79150  0.14290  0.32350  Biso   1.000  C
  C49      1.0000 0.72920  0.20650  0.32390  Biso   1.000  C
  H28      1.0000 0.71760  0.21410  0.37180  Biso   1.000  H
  C50      1.0000 0.68400  0.25890  0.25340  Biso   1.000  C
  C51      1.0000 0.69810  0.24650  0.18090  Biso   1.000  C
  H29      1.0000 0.66630  0.28110  0.13250  Biso   1.000  H
  C52      1.0000 0.76120  0.18080  0.18220  Biso   1.000  C
  H30      1.0000 0.76980  0.17060  0.13310  Biso   1.000  H
  C53      1.0000 0.81120  0.13060  0.25320  Biso   1.000  C
  C54      1.0000 0.88360  0.06700  0.25070  Biso   1.000  C
  C55      1.0000 0.61540  0.32980  0.25420  Biso   1.000  C
  Zn6      1.0000 0.45560  0.55071  0.65484  Biso   1.000  Zn
  O21      1.0000 0.45670  0.55800  0.31860  Biso   1.000  O
  O22      1.0000 0.36550  0.52870  0.18260  Biso   1.000  O
  O23      1.0000 0.07030  0.87060  0.18580  Biso   1.000  O
  O24      1.0000 0.11070  0.84270  0.32290  Biso   1.000  O
  N11      1.0000 0.39920  0.54810  0.52900  Biso   1.000  N
  N12      1.0000 0.33210  0.58730  0.39610  Biso   1.000  N
  C56      1.0000 0.37460  0.61530  0.47700  Biso   1.000  C
  H31      1.0000 0.38510  0.67480  0.49360  Biso   1.000  H
  C57      1.0000 0.36990  0.47180  0.47870  Biso   1.000  C
  H32      1.0000 0.37620  0.41330  0.49850  Biso   1.000  H
  C58      1.0000 0.33140  0.49670  0.39790  Biso   1.000  C
  H33      1.0000 0.30800  0.45900  0.35080  Biso   1.000  H
  C59      1.0000 0.29150  0.64290  0.32350  Biso   1.000  C
  C60      1.0000 0.22920  0.70650  0.32390  Biso   1.000  C
  H34      1.0000 0.21760  0.71410  0.37180  Biso   1.000  H
  C61      1.0000 0.18400  0.75890  0.25340  Biso   1.000  C
  C62      1.0000 0.19810  0.74650  0.18090  Biso   1.000  C
  H35      1.0000 0.16630  0.78110  0.13250  Biso   1.000  H
  C63      1.0000 0.26120  0.68080  0.18220  Biso   1.000  C
  H36      1.0000 0.26980  0.67060  0.13310  Biso   1.000  H
  C64      1.0000 0.31120  0.63060  0.25320  Biso   1.000  C
  C65      1.0000 0.38360  0.56700  0.25070  Biso   1.000  C
  C66      1.0000 0.11540  0.82980  0.25420  Biso   1.000  C
  Zn7      1.0000 0.04440  0.05071  0.84516  Biso   1.000  Zn
  O25      1.0000 0.04330  0.05800  0.18140  Biso   1.000  O
  O26      1.0000 0.13450  0.02870  0.31740  Biso   1.000  O
  O27      1.0000 0.42970  0.37060  0.31420  Biso   1.000  O
  O28      1.0000 0.38930  0.34270  0.17710  Biso   1.000  O
  N13      1.0000 0.10080  0.04810  0.97100  Biso   1.000  N
  N14      1.0000 0.16790  0.08730  0.10390  Biso   1.000  N
  C67      1.0000 0.12540  0.11530  0.02300  Biso   1.000  C
  H37      1.0000 0.11490  0.17480  0.00640  Biso   1.000  H
  C68      1.0000 0.13010  0.97180  0.02130  Biso   1.000  C
  H38      1.0000 0.12380  0.91330  0.00150  Biso   1.000  H
  C69      1.0000 0.16860  0.99670  0.10210  Biso   1.000  C
  H39      1.0000 0.19200  0.95900  0.14920  Biso   1.000  H
  C70      1.0000 0.20850  0.14290  0.17650  Biso   1.000  C
  C71      1.0000 0.27080  0.20650  0.17610  Biso   1.000  C
  H40      1.0000 0.28240  0.21410  0.12820  Biso   1.000  H
  C72      1.0000 0.31600  0.25890  0.24660  Biso   1.000  C
  C73      1.0000 0.30190  0.24650  0.31910  Biso   1.000  C
  H41      1.0000 0.33370  0.28110  0.36750  Biso   1.000  H
  C74      1.0000 0.23880  0.18080  0.31780  Biso   1.000  C
  H42      1.0000 0.23020  0.17060  0.36690  Biso   1.000  H
  C75      1.0000 0.18880  0.13060  0.24680  Biso   1.000  C
  C76      1.0000 0.11640  0.06700  0.24930  Biso   1.000  C
  C77      1.0000 0.38460  0.32980  0.24580  Biso   1.000  C
  Zn8      1.0000 0.54440  0.55071  0.84516  Biso   1.000  Zn
  O29      1.0000 0.54330  0.55800  0.18140  Biso   1.000  O
  O30      1.0000 0.63450  0.52870  0.31740  Biso   1.000  O
  O31      1.0000 0.92970  0.87060  0.31420  Biso   1.000  O
  O32      1.0000 0.88930  0.84270  0.17710  Biso   1.000  O
  N15      1.0000 0.60080  0.54810  0.97100  Biso   1.000  N
  N16      1.0000 0.66790  0.58730  0.10390  Biso   1.000  N
  C78      1.0000 0.62540  0.61530  0.02300  Biso   1.000  C
  H43      1.0000 0.61490  0.67480  0.00640  Biso   1.000  H
  C79      1.0000 0.63010  0.47180  0.02130  Biso   1.000  C
  H44      1.0000 0.62380  0.41330  0.00150  Biso   1.000  H
  C80      1.0000 0.66860  0.49670  0.10210  Biso   1.000  C
  H45      1.0000 0.69200  0.45900  0.14920  Biso   1.000  H
  C81      1.0000 0.70850  0.64290  0.17650  Biso   1.000  C
  C82      1.0000 0.77080  0.70650  0.17610  Biso   1.000  C
  H46      1.0000 0.78240  0.71410  0.12820  Biso   1.000  H
  C83      1.0000 0.81600  0.75890  0.24660  Biso   1.000  C
  C84      1.0000 0.80190  0.74650  0.31910  Biso   1.000  C
  H47      1.0000 0.83370  0.78110  0.36750  Biso   1.000  H
  C85      1.0000 0.73880  0.68080  0.31780  Biso   1.000  C
  H48      1.0000 0.73020  0.67060  0.36690  Biso   1.000  H
  C86      1.0000 0.68880  0.63060  0.24680  Biso   1.000  C
  C87      1.0000 0.61640  0.56700  0.24930  Biso   1.000  C
  C88      1.0000 0.88460  0.82980  0.24580  Biso   1.000  C
