data_GATJIV_charged
_audit_creation_date              2014-07-02
_audit_creation_method            'Materials Studio'
_symmetry_space_group_name_H-M    'P1'
_symmetry_Int_Tables_number       1
_symmetry_cell_setting            triclinic
loop_
_symmetry_equiv_pos_as_xyz
  x,y,z
_cell_length_a                    12.7517
_cell_length_b                    26.2090
_cell_length_c                    26.2090
_cell_angle_alpha                 120.0000
_cell_angle_beta                  90.0000
_cell_angle_gamma                 90.0000
loop_
_atom_site_label
_atom_site_type_symbol
_atom_site_fract_x
_atom_site_fract_y
_atom_site_fract_z
_atom_site_U_iso_or_equiv
_atom_site_adp_type
_atom_site_occupancy
Cd1    Cd    0.00000   0.30114   0.30114   0.01267  Uiso   1.00
Cd2    Cd    0.00000   1.00000   0.69886   0.01267  Uiso   1.00
Cd3    Cd    0.00000   0.69886   0.00000   0.01267  Uiso   1.00
H1     H     0.06560   0.23420   0.18670   0.01267  Uiso   1.00
H2     H     0.17400   0.25920   0.21860   0.01267  Uiso   1.00
H3     H     0.82860   0.27520   0.37760   0.01267  Uiso   1.00
H4     H     0.70200   0.31520   0.44580   0.01267  Uiso   1.00
H5     H     0.79580   0.47530   0.48020   0.01267  Uiso   1.00
H6     H     0.91430   0.42860   0.40190   0.01267  Uiso   1.00
H7     H     0.76890   0.47610   0.58250   0.01267  Uiso   1.00
H8     H     0.32070   0.44550   0.58210   0.01267  Uiso   1.00
H9     H     0.25950   0.38010   0.48930   0.01267  Uiso   1.00
H10    H     0.55540   0.36120   0.42140   0.01267  Uiso   1.00
H11    H     0.80660   0.55480   0.67250   0.01267  Uiso   1.00
H12    H     0.79570   0.49560   0.67620   0.01267  Uiso   1.00
H13    H     0.85870   0.57150   0.76860   0.01267  Uiso   1.00
H14    H     0.74230   0.55500   0.77820   0.01267  Uiso   1.00
H15    H     0.76240   0.61300   0.77390   0.01267  Uiso   1.00
H16    H     0.64350   0.42670   0.78520   0.01267  Uiso   1.00
H17    H     0.67650   0.43680   0.73210   0.01267  Uiso   1.00
H18    H     0.60100   0.38320   0.72020   0.01267  Uiso   1.00
H19    H     0.55080   0.50150   0.78890   0.01267  Uiso   1.00
H20    H     0.47520   0.44760   0.77630   0.01267  Uiso   1.00
H21    H     0.35510   0.51880   0.78620   0.01267  Uiso   1.00
H22    H     0.19760   0.65930   0.75230   0.01267  Uiso   1.00
H23    H     0.33530   0.63870   0.60620   0.01267  Uiso   1.00
H24    H     0.42570   0.56140   0.59690   0.01267  Uiso   1.00
H25    H     0.16210   0.73240   0.92980   0.01267  Uiso   1.00
H26    H     0.27980   0.69020   0.84920   0.01267  Uiso   1.00
H27    H     0.14810   0.53040   0.79870   0.01267  Uiso   1.00
H28    H     0.04280   0.57680   0.88020   0.01267  Uiso   1.00
H29    H     0.06560   0.95250   0.76580   0.01267  Uiso   1.00
H30    H     0.17400   0.95940   0.74080   0.01267  Uiso   1.00
H31    H     0.82860   0.10240   0.72480   0.01267  Uiso   1.00
H32    H     0.70200   0.13060   0.68480   0.01267  Uiso   1.00
H33    H     0.79580   0.00490   0.52470   0.01267  Uiso   1.00
H34    H     0.91430   0.97330   0.57140   0.01267  Uiso   1.00
H35    H     0.76890   0.10640   0.52390   0.01267  Uiso   1.00
H36    H     0.32070   0.13660   0.55450   0.01267  Uiso   1.00
H37    H     0.25950   0.10920   0.61990   0.01267  Uiso   1.00
H38    H     0.55540   0.06020   0.63880   0.01267  Uiso   1.00
H39    H     0.80660   0.11770   0.44520   0.01267  Uiso   1.00
H40    H     0.79570   0.18060   0.50440   0.01267  Uiso   1.00
H41    H     0.85870   0.19710   0.42850   0.01267  Uiso   1.00
H42    H     0.74230   0.22320   0.44500   0.01267  Uiso   1.00
H43    H     0.76240   0.16090   0.38700   0.01267  Uiso   1.00
H44    H     0.64350   0.35850   0.57330   0.01267  Uiso   1.00
H45    H     0.67650   0.29530   0.56320   0.01267  Uiso   1.00
H46    H     0.60100   0.33700   0.61680   0.01267  Uiso   1.00
H47    H     0.55080   0.28740   0.49850   0.01267  Uiso   1.00
H48    H     0.47520   0.32870   0.55240   0.01267  Uiso   1.00
H49    H     0.35510   0.26740   0.48120   0.01267  Uiso   1.00
H50    H     0.19760   0.09300   0.34070   0.01267  Uiso   1.00
H51    H     0.33530   0.96750   0.36130   0.01267  Uiso   1.00
H52    H     0.42570   0.03550   0.43860   0.01267  Uiso   1.00
H53    H     0.16210   0.19740   0.26760   0.01267  Uiso   1.00
H54    H     0.27980   0.15900   0.30980   0.01267  Uiso   1.00
H55    H     0.14810   0.26830   0.46960   0.01267  Uiso   1.00
H56    H     0.04280   0.30340   0.42320   0.01267  Uiso   1.00
H57    H     0.06560   0.81330   0.04750   0.01267  Uiso   1.00
H58    H     0.17400   0.78140   0.04060   0.01267  Uiso   1.00
H59    H     0.82860   0.62240   0.89760   0.01267  Uiso   1.00
H60    H     0.70200   0.55420   0.86940   0.01267  Uiso   1.00
H61    H     0.79580   0.51980   0.99510   0.01267  Uiso   1.00
H62    H     0.91430   0.59810   0.02670   0.01267  Uiso   1.00
H63    H     0.76890   0.41750   0.89360   0.01267  Uiso   1.00
H64    H     0.32070   0.41790   0.86340   0.01267  Uiso   1.00
H65    H     0.25950   0.51070   0.89080   0.01267  Uiso   1.00
H66    H     0.55540   0.57860   0.93980   0.01267  Uiso   1.00
H67    H     0.80660   0.32750   0.88230   0.01267  Uiso   1.00
H68    H     0.79570   0.32380   0.81940   0.01267  Uiso   1.00
H69    H     0.85870   0.23140   0.80290   0.01267  Uiso   1.00
H70    H     0.74230   0.22180   0.77680   0.01267  Uiso   1.00
H71    H     0.76240   0.22610   0.83910   0.01267  Uiso   1.00
H72    H     0.64350   0.21480   0.64150   0.01267  Uiso   1.00
H73    H     0.67650   0.26790   0.70470   0.01267  Uiso   1.00
H74    H     0.60100   0.27980   0.66300   0.01267  Uiso   1.00
H75    H     0.55080   0.21110   0.71260   0.01267  Uiso   1.00
H76    H     0.47520   0.22370   0.67130   0.01267  Uiso   1.00
H77    H     0.35510   0.21380   0.73260   0.01267  Uiso   1.00
H78    H     0.19760   0.24770   0.90700   0.01267  Uiso   1.00
H79    H     0.33530   0.39380   0.03250   0.01267  Uiso   1.00
H80    H     0.42570   0.40310   0.96450   0.01267  Uiso   1.00
H81    H     0.16210   0.07020   0.80260   0.01267  Uiso   1.00
H82    H     0.27980   0.15080   0.84100   0.01267  Uiso   1.00
H83    H     0.14810   0.20130   0.73170   0.01267  Uiso   1.00
H84    H     0.04280   0.11980   0.69660   0.01267  Uiso   1.00
H85    H     0.93440   0.04750   0.81330   0.01267  Uiso   1.00
H86    H     0.82600   0.04060   0.78140   0.01267  Uiso   1.00
H87    H     0.17140   0.89760   0.62240   0.01267  Uiso   1.00
H88    H     0.29800   0.86940   0.55420   0.01267  Uiso   1.00
H89    H     0.20420   0.99510   0.51980   0.01267  Uiso   1.00
H90    H     0.08570   0.02670   0.59810   0.01267  Uiso   1.00
H91    H     0.23110   0.89360   0.41750   0.01267  Uiso   1.00
H92    H     0.67930   0.86340   0.41790   0.01267  Uiso   1.00
H93    H     0.74050   0.89080   0.51070   0.01267  Uiso   1.00
H94    H     0.44460   0.93980   0.57860   0.01267  Uiso   1.00
H95    H     0.19340   0.88230   0.32750   0.01267  Uiso   1.00
H96    H     0.20430   0.81940   0.32380   0.01267  Uiso   1.00
H97    H     0.14130   0.80290   0.23140   0.01267  Uiso   1.00
H98    H     0.25770   0.77680   0.22180   0.01267  Uiso   1.00
H99    H     0.23760   0.83910   0.22610   0.01267  Uiso   1.00
H100   H     0.35650   0.64150   0.21480   0.01267  Uiso   1.00
H101   H     0.32350   0.70470   0.26790   0.01267  Uiso   1.00
H102   H     0.39900   0.66300   0.27980   0.01267  Uiso   1.00
H103   H     0.44920   0.71260   0.21110   0.01267  Uiso   1.00
H104   H     0.52480   0.67130   0.22370   0.01267  Uiso   1.00
H105   H     0.64490   0.73260   0.21380   0.01267  Uiso   1.00
H106   H     0.80240   0.90700   0.24770   0.01267  Uiso   1.00
H107   H     0.66470   0.03250   0.39380   0.01267  Uiso   1.00
H108   H     0.57430   0.96450   0.40310   0.01267  Uiso   1.00
H109   H     0.83790   0.80260   0.07020   0.01267  Uiso   1.00
H110   H     0.72020   0.84100   0.15080   0.01267  Uiso   1.00
H111   H     0.85190   0.73170   0.20130   0.01267  Uiso   1.00
H112   H     0.95720   0.69660   0.11980   0.01267  Uiso   1.00
H113   H     0.93440   0.18670   0.23420   0.01267  Uiso   1.00
H114   H     0.82600   0.21860   0.25920   0.01267  Uiso   1.00
H115   H     0.17140   0.37760   0.27520   0.01267  Uiso   1.00
H116   H     0.29800   0.44580   0.31520   0.01267  Uiso   1.00
H117   H     0.20420   0.48020   0.47530   0.01267  Uiso   1.00
H118   H     0.08570   0.40190   0.42860   0.01267  Uiso   1.00
H119   H     0.23110   0.58250   0.47610   0.01267  Uiso   1.00
H120   H     0.67930   0.58210   0.44550   0.01267  Uiso   1.00
H121   H     0.74050   0.48930   0.38010   0.01267  Uiso   1.00
H122   H     0.44460   0.42140   0.36120   0.01267  Uiso   1.00
H123   H     0.19340   0.67250   0.55480   0.01267  Uiso   1.00
H124   H     0.20430   0.67620   0.49560   0.01267  Uiso   1.00
H125   H     0.14130   0.76860   0.57150   0.01267  Uiso   1.00
H126   H     0.25770   0.77820   0.55500   0.01267  Uiso   1.00
H127   H     0.23760   0.77390   0.61300   0.01267  Uiso   1.00
H128   H     0.35650   0.78520   0.42670   0.01267  Uiso   1.00
H129   H     0.32350   0.73210   0.43680   0.01267  Uiso   1.00
H130   H     0.39900   0.72020   0.38320   0.01267  Uiso   1.00
H131   H     0.44920   0.78890   0.50150   0.01267  Uiso   1.00
H132   H     0.52480   0.77630   0.44760   0.01267  Uiso   1.00
H133   H     0.64490   0.78620   0.51880   0.01267  Uiso   1.00
H134   H     0.80240   0.75230   0.65930   0.01267  Uiso   1.00
H135   H     0.66470   0.60620   0.63870   0.01267  Uiso   1.00
H136   H     0.57430   0.59690   0.56140   0.01267  Uiso   1.00
H137   H     0.83790   0.92980   0.73240   0.01267  Uiso   1.00
H138   H     0.72020   0.84920   0.69020   0.01267  Uiso   1.00
H139   H     0.85190   0.79870   0.53040   0.01267  Uiso   1.00
H140   H     0.95720   0.88020   0.57680   0.01267  Uiso   1.00
H141   H     0.93440   0.76580   0.95250   0.01267  Uiso   1.00
H142   H     0.82600   0.74080   0.95940   0.01267  Uiso   1.00
H143   H     0.17140   0.72480   0.10240   0.01267  Uiso   1.00
H144   H     0.29800   0.68480   0.13060   0.01267  Uiso   1.00
H145   H     0.20420   0.52470   0.00490   0.01267  Uiso   1.00
H146   H     0.08570   0.57140   0.97330   0.01267  Uiso   1.00
H147   H     0.23110   0.52390   0.10640   0.01267  Uiso   1.00
H148   H     0.67930   0.55450   0.13660   0.01267  Uiso   1.00
H149   H     0.74050   0.61990   0.10920   0.01267  Uiso   1.00
H150   H     0.44460   0.63880   0.06020   0.01267  Uiso   1.00
H151   H     0.19340   0.44520   0.11770   0.01267  Uiso   1.00
H152   H     0.20430   0.50440   0.18060   0.01267  Uiso   1.00
H153   H     0.14130   0.42850   0.19710   0.01267  Uiso   1.00
H154   H     0.25770   0.44500   0.22320   0.01267  Uiso   1.00
H155   H     0.23760   0.38700   0.16090   0.01267  Uiso   1.00
H156   H     0.35650   0.57330   0.35850   0.01267  Uiso   1.00
H157   H     0.32350   0.56320   0.29530   0.01267  Uiso   1.00
H158   H     0.39900   0.61680   0.33700   0.01267  Uiso   1.00
H159   H     0.44920   0.49850   0.28740   0.01267  Uiso   1.00
H160   H     0.52480   0.55240   0.32870   0.01267  Uiso   1.00
H161   H     0.64490   0.48120   0.26740   0.01267  Uiso   1.00
H162   H     0.80240   0.34070   0.09300   0.01267  Uiso   1.00
H163   H     0.66470   0.36130   0.96750   0.01267  Uiso   1.00
H164   H     0.57430   0.43860   0.03550   0.01267  Uiso   1.00
H165   H     0.83790   0.26760   0.19740   0.01267  Uiso   1.00
H166   H     0.72020   0.30980   0.15900   0.01267  Uiso   1.00
H167   H     0.85190   0.46960   0.26830   0.01267  Uiso   1.00
H168   H     0.95720   0.42320   0.30340   0.01267  Uiso   1.00
C1     C     0.82090   0.31680   0.39780   0.01267  Uiso   1.00
C2     C     0.74730   0.34020   0.43940   0.01267  Uiso   1.00
C3     C     0.73660   0.40000   0.47280   0.01267  Uiso   1.00
C4     C     0.80050   0.43360   0.45880   0.01267  Uiso   1.00
C5     C     0.87210   0.40550   0.41250   0.01267  Uiso   1.00
C6     C     0.65740   0.42870   0.52160   0.01267  Uiso   1.00
C7     C     0.69590   0.46810   0.57700   0.01267  Uiso   1.00
C8     C     0.62630   0.49620   0.62520   0.01267  Uiso   1.00
C9     C     0.51670   0.48400   0.61690   0.01267  Uiso   1.00
C10    C     0.47930   0.44390   0.56090   0.01267  Uiso   1.00
C11    C     0.36830   0.42860   0.54990   0.01267  Uiso   1.00
C12    C     0.33130   0.39110   0.49520   0.01267  Uiso   1.00
C13    C     0.40070   0.36900   0.44780   0.01267  Uiso   1.00
C14    C     0.50960   0.37910   0.45450   0.01267  Uiso   1.00
C15    C     0.54850   0.41670   0.51200   0.01267  Uiso   1.00
C16    C     0.76880   0.53610   0.69190   0.01267  Uiso   1.00
C17    C     0.78450   0.57220   0.75930   0.01267  Uiso   1.00
C18    C     0.61990   0.42400   0.74840   0.01267  Uiso   1.00
C19    C     0.53220   0.46040   0.75960   0.01267  Uiso   1.00
C20    C     0.44320   0.51720   0.66900   0.01267  Uiso   1.00
C21    C     0.43070   0.50110   0.71130   0.01267  Uiso   1.00
C22    C     0.36080   0.53040   0.75730   0.01267  Uiso   1.00
C23    C     0.29890   0.57610   0.76260   0.01267  Uiso   1.00
C24    C     0.30800   0.59390   0.71880   0.01267  Uiso   1.00
C25    C     0.24910   0.64080   0.72230   0.01267  Uiso   1.00
C26    C     0.26340   0.65930   0.68550   0.01267  Uiso   1.00
C27    C     0.32990   0.62760   0.63550   0.01267  Uiso   1.00
C28    C     0.38300   0.58280   0.63080   0.01267  Uiso   1.00
C29    C     0.38100   0.56410   0.67290   0.01267  Uiso   1.00
C30    C     0.16110   0.69100   0.90340   0.01267  Uiso   1.00
C31    C     0.23020   0.66590   0.85410   0.01267  Uiso   1.00
C32    C     0.22530   0.60540   0.81290   0.01267  Uiso   1.00
C33    C     0.15370   0.57170   0.82440   0.01267  Uiso   1.00
C34    C     0.09200   0.60030   0.87380   0.01267  Uiso   1.00
C35    C     0.82090   0.08100   0.68320   0.01267  Uiso   1.00
C36    C     0.74730   0.09920   0.65980   0.01267  Uiso   1.00
C37    C     0.73660   0.07280   0.60000   0.01267  Uiso   1.00
C38    C     0.80050   0.02520   0.56640   0.01267  Uiso   1.00
C39    C     0.87210   0.00700   0.59450   0.01267  Uiso   1.00
C40    C     0.65740   0.09290   0.57130   0.01267  Uiso   1.00
C41    C     0.69590   0.10890   0.53190   0.01267  Uiso   1.00
C42    C     0.62630   0.12900   0.50380   0.01267  Uiso   1.00
C43    C     0.51670   0.13290   0.51600   0.01267  Uiso   1.00
C44    C     0.47930   0.11700   0.55610   0.01267  Uiso   1.00
C45    C     0.36830   0.12130   0.57140   0.01267  Uiso   1.00
C46    C     0.33130   0.10410   0.60890   0.01267  Uiso   1.00
C47    C     0.40070   0.07880   0.63100   0.01267  Uiso   1.00
C48    C     0.50960   0.07540   0.62090   0.01267  Uiso   1.00
C49    C     0.54850   0.09530   0.58330   0.01267  Uiso   1.00
C50    C     0.76880   0.15580   0.46390   0.01267  Uiso   1.00
C51    C     0.78450   0.18710   0.42780   0.01267  Uiso   1.00
C52    C     0.61990   0.32440   0.57600   0.01267  Uiso   1.00
C53    C     0.53220   0.29920   0.53960   0.01267  Uiso   1.00
C54    C     0.44320   0.15180   0.48280   0.01267  Uiso   1.00
C55    C     0.43070   0.21020   0.49890   0.01267  Uiso   1.00
C56    C     0.36080   0.22690   0.46960   0.01267  Uiso   1.00
C57    C     0.29890   0.18650   0.42390   0.01267  Uiso   1.00
C58    C     0.30800   0.12490   0.40610   0.01267  Uiso   1.00
C59    C     0.24910   0.08150   0.35920   0.01267  Uiso   1.00
C60    C     0.26340   0.02620   0.34070   0.01267  Uiso   1.00
C61    C     0.32990   0.00790   0.37240   0.01267  Uiso   1.00
C62    C     0.38300   0.04800   0.41720   0.01267  Uiso   1.00
C63    C     0.38100   0.10880   0.43590   0.01267  Uiso   1.00
C64    C     0.16110   0.21240   0.30900   0.01267  Uiso   1.00
C65    C     0.23020   0.18820   0.33410   0.01267  Uiso   1.00
C66    C     0.22530   0.20750   0.39460   0.01267  Uiso   1.00
C67    C     0.15370   0.25270   0.42830   0.01267  Uiso   1.00
C68    C     0.09200   0.27350   0.39970   0.01267  Uiso   1.00
C69    C     0.82090   0.60220   0.91900   0.01267  Uiso   1.00
C70    C     0.74730   0.56060   0.90080   0.01267  Uiso   1.00
C71    C     0.73660   0.52720   0.92720   0.01267  Uiso   1.00
C72    C     0.80050   0.54120   0.97480   0.01267  Uiso   1.00
C73    C     0.87210   0.58750   0.99300   0.01267  Uiso   1.00
C74    C     0.65740   0.47840   0.90710   0.01267  Uiso   1.00
C75    C     0.69590   0.42300   0.89110   0.01267  Uiso   1.00
C76    C     0.62630   0.37480   0.87100   0.01267  Uiso   1.00
C77    C     0.51670   0.38310   0.86710   0.01267  Uiso   1.00
C78    C     0.47930   0.43910   0.88300   0.01267  Uiso   1.00
C79    C     0.36830   0.45010   0.87870   0.01267  Uiso   1.00
C80    C     0.33130   0.50480   0.89590   0.01267  Uiso   1.00
C81    C     0.40070   0.55220   0.92120   0.01267  Uiso   1.00
C82    C     0.50960   0.54550   0.92460   0.01267  Uiso   1.00
C83    C     0.54850   0.48800   0.90470   0.01267  Uiso   1.00
C84    C     0.76880   0.30810   0.84420   0.01267  Uiso   1.00
C85    C     0.78450   0.24070   0.81290   0.01267  Uiso   1.00
C86    C     0.61990   0.25160   0.67560   0.01267  Uiso   1.00
C87    C     0.53220   0.24040   0.70080   0.01267  Uiso   1.00
C88    C     0.44320   0.33100   0.84820   0.01267  Uiso   1.00
C89    C     0.43070   0.28870   0.78980   0.01267  Uiso   1.00
C90    C     0.36080   0.24270   0.77310   0.01267  Uiso   1.00
C91    C     0.29890   0.23740   0.81350   0.01267  Uiso   1.00
C92    C     0.30800   0.28120   0.87510   0.01267  Uiso   1.00
C93    C     0.24910   0.27770   0.91850   0.01267  Uiso   1.00
C94    C     0.26340   0.31450   0.97380   0.01267  Uiso   1.00
C95    C     0.32990   0.36450   0.99210   0.01267  Uiso   1.00
C96    C     0.38300   0.36920   0.95200   0.01267  Uiso   1.00
C97    C     0.38100   0.32710   0.89120   0.01267  Uiso   1.00
C98    C     0.16110   0.09660   0.78760   0.01267  Uiso   1.00
C99    C     0.23020   0.14590   0.81180   0.01267  Uiso   1.00
C100   C     0.22530   0.18710   0.79250   0.01267  Uiso   1.00
C101   C     0.15370   0.17560   0.74730   0.01267  Uiso   1.00
C102   C     0.09200   0.12620   0.72650   0.01267  Uiso   1.00
C103   C     0.17910   0.91900   0.60220   0.01267  Uiso   1.00
C104   C     0.25270   0.90080   0.56060   0.01267  Uiso   1.00
C105   C     0.26340   0.92720   0.52720   0.01267  Uiso   1.00
C106   C     0.19950   0.97480   0.54120   0.01267  Uiso   1.00
C107   C     0.12790   0.99300   0.58750   0.01267  Uiso   1.00
C108   C     0.34260   0.90710   0.47840   0.01267  Uiso   1.00
C109   C     0.30410   0.89110   0.42300   0.01267  Uiso   1.00
C110   C     0.37370   0.87100   0.37480   0.01267  Uiso   1.00
C111   C     0.48330   0.86710   0.38310   0.01267  Uiso   1.00
C112   C     0.52070   0.88300   0.43910   0.01267  Uiso   1.00
C113   C     0.63170   0.87870   0.45010   0.01267  Uiso   1.00
C114   C     0.66870   0.89590   0.50480   0.01267  Uiso   1.00
C115   C     0.59930   0.92120   0.55220   0.01267  Uiso   1.00
C116   C     0.49040   0.92460   0.54550   0.01267  Uiso   1.00
C117   C     0.45150   0.90470   0.48800   0.01267  Uiso   1.00
C118   C     0.23120   0.84420   0.30810   0.01267  Uiso   1.00
C119   C     0.21550   0.81290   0.24070   0.01267  Uiso   1.00
C120   C     0.38010   0.67560   0.25160   0.01267  Uiso   1.00
C121   C     0.46780   0.70080   0.24040   0.01267  Uiso   1.00
C122   C     0.55680   0.84820   0.33100   0.01267  Uiso   1.00
C123   C     0.56930   0.78980   0.28870   0.01267  Uiso   1.00
C124   C     0.63920   0.77310   0.24270   0.01267  Uiso   1.00
C125   C     0.70110   0.81350   0.23740   0.01267  Uiso   1.00
C126   C     0.69200   0.87510   0.28120   0.01267  Uiso   1.00
C127   C     0.75090   0.91850   0.27770   0.01267  Uiso   1.00
C128   C     0.73660   0.97380   0.31450   0.01267  Uiso   1.00
C129   C     0.67010   0.99210   0.36450   0.01267  Uiso   1.00
C130   C     0.61700   0.95200   0.36920   0.01267  Uiso   1.00
C131   C     0.61900   0.89120   0.32710   0.01267  Uiso   1.00
C132   C     0.83890   0.78760   0.09660   0.01267  Uiso   1.00
C133   C     0.76980   0.81180   0.14590   0.01267  Uiso   1.00
C134   C     0.77470   0.79250   0.18710   0.01267  Uiso   1.00
C135   C     0.84630   0.74730   0.17560   0.01267  Uiso   1.00
C136   C     0.90800   0.72650   0.12620   0.01267  Uiso   1.00
C137   C     0.17910   0.39780   0.31680   0.01267  Uiso   1.00
C138   C     0.25270   0.43940   0.34020   0.01267  Uiso   1.00
C139   C     0.26340   0.47280   0.40000   0.01267  Uiso   1.00
C140   C     0.19950   0.45880   0.43360   0.01267  Uiso   1.00
C141   C     0.12790   0.41250   0.40550   0.01267  Uiso   1.00
C142   C     0.34260   0.52160   0.42870   0.01267  Uiso   1.00
C143   C     0.30410   0.57700   0.46810   0.01267  Uiso   1.00
C144   C     0.37370   0.62520   0.49620   0.01267  Uiso   1.00
C145   C     0.48330   0.61690   0.48400   0.01267  Uiso   1.00
C146   C     0.52070   0.56090   0.44390   0.01267  Uiso   1.00
C147   C     0.63170   0.54990   0.42860   0.01267  Uiso   1.00
C148   C     0.66870   0.49520   0.39110   0.01267  Uiso   1.00
C149   C     0.59930   0.44780   0.36900   0.01267  Uiso   1.00
C150   C     0.49040   0.45450   0.37910   0.01267  Uiso   1.00
C151   C     0.45150   0.51200   0.41670   0.01267  Uiso   1.00
C152   C     0.23120   0.69190   0.53610   0.01267  Uiso   1.00
C153   C     0.21550   0.75930   0.57220   0.01267  Uiso   1.00
C154   C     0.38010   0.74840   0.42400   0.01267  Uiso   1.00
C155   C     0.46780   0.75960   0.46040   0.01267  Uiso   1.00
C156   C     0.55680   0.66900   0.51720   0.01267  Uiso   1.00
C157   C     0.56930   0.71130   0.50110   0.01267  Uiso   1.00
C158   C     0.63920   0.75730   0.53040   0.01267  Uiso   1.00
C159   C     0.70110   0.76260   0.57610   0.01267  Uiso   1.00
C160   C     0.69200   0.71880   0.59390   0.01267  Uiso   1.00
C161   C     0.75090   0.72230   0.64080   0.01267  Uiso   1.00
C162   C     0.73660   0.68550   0.65930   0.01267  Uiso   1.00
C163   C     0.67010   0.63550   0.62760   0.01267  Uiso   1.00
C164   C     0.61700   0.63080   0.58280   0.01267  Uiso   1.00
C165   C     0.61900   0.67290   0.56410   0.01267  Uiso   1.00
C166   C     0.83890   0.90340   0.69100   0.01267  Uiso   1.00
C167   C     0.76980   0.85410   0.66590   0.01267  Uiso   1.00
C168   C     0.77470   0.81290   0.60540   0.01267  Uiso   1.00
C169   C     0.84630   0.82440   0.57170   0.01267  Uiso   1.00
C170   C     0.90800   0.87380   0.60030   0.01267  Uiso   1.00
C171   C     0.17910   0.68320   0.08100   0.01267  Uiso   1.00
C172   C     0.25270   0.65980   0.09920   0.01267  Uiso   1.00
C173   C     0.26340   0.60000   0.07280   0.01267  Uiso   1.00
C174   C     0.19950   0.56640   0.02520   0.01267  Uiso   1.00
C175   C     0.12790   0.59450   0.00700   0.01267  Uiso   1.00
C176   C     0.34260   0.57130   0.09290   0.01267  Uiso   1.00
C177   C     0.30410   0.53190   0.10890   0.01267  Uiso   1.00
C178   C     0.37370   0.50380   0.12900   0.01267  Uiso   1.00
C179   C     0.48330   0.51600   0.13290   0.01267  Uiso   1.00
C180   C     0.52070   0.55610   0.11700   0.01267  Uiso   1.00
C181   C     0.63170   0.57140   0.12130   0.01267  Uiso   1.00
C182   C     0.66870   0.60890   0.10410   0.01267  Uiso   1.00
C183   C     0.59930   0.63100   0.07880   0.01267  Uiso   1.00
C184   C     0.49040   0.62090   0.07540   0.01267  Uiso   1.00
C185   C     0.45150   0.58330   0.09530   0.01267  Uiso   1.00
C186   C     0.23120   0.46390   0.15580   0.01267  Uiso   1.00
C187   C     0.21550   0.42780   0.18710   0.01267  Uiso   1.00
C188   C     0.38010   0.57600   0.32440   0.01267  Uiso   1.00
C189   C     0.46780   0.53960   0.29920   0.01267  Uiso   1.00
C190   C     0.55680   0.48280   0.15180   0.01267  Uiso   1.00
C191   C     0.56930   0.49890   0.21020   0.01267  Uiso   1.00
C192   C     0.63920   0.46960   0.22690   0.01267  Uiso   1.00
C193   C     0.70110   0.42390   0.18650   0.01267  Uiso   1.00
C194   C     0.69200   0.40610   0.12490   0.01267  Uiso   1.00
C195   C     0.75090   0.35920   0.08150   0.01267  Uiso   1.00
C196   C     0.73660   0.34070   0.02620   0.01267  Uiso   1.00
C197   C     0.67010   0.37240   0.00790   0.01267  Uiso   1.00
C198   C     0.61700   0.41720   0.04800   0.01267  Uiso   1.00
C199   C     0.61900   0.43590   0.10880   0.01267  Uiso   1.00
C200   C     0.83890   0.30900   0.21240   0.01267  Uiso   1.00
C201   C     0.76980   0.33410   0.18820   0.01267  Uiso   1.00
C202   C     0.77470   0.39460   0.20750   0.01267  Uiso   1.00
C203   C     0.84630   0.42830   0.25270   0.01267  Uiso   1.00
C204   C     0.90800   0.39970   0.27350   0.01267  Uiso   1.00
N1     N     0.88300   0.34640   0.38270   0.01267  Uiso   1.00
N2     N     0.09420   0.65700   0.91320   0.01267  Uiso   1.00
N3     N     0.88300   0.03630   0.65360   0.01267  Uiso   1.00
N4     N     0.09420   0.25620   0.34300   0.01267  Uiso   1.00
N5     N     0.88300   0.61730   0.96370   0.01267  Uiso   1.00
N6     N     0.09420   0.08680   0.74380   0.01267  Uiso   1.00
N7     N     0.11700   0.96370   0.61730   0.01267  Uiso   1.00
N8     N     0.90580   0.74380   0.08680   0.01267  Uiso   1.00
N9     N     0.11700   0.38270   0.34640   0.01267  Uiso   1.00
N10    N     0.90580   0.91320   0.65700   0.01267  Uiso   1.00
N11    N     0.11700   0.65360   0.03630   0.01267  Uiso   1.00
N12    N     0.90580   0.34300   0.25620   0.01267  Uiso   1.00
Cl1    Cl    0.35283   0.32218   0.37699   0.01267  Uiso   1.00
Cl2    Cl    0.17860   0.71300   0.68547   0.01267  Uiso   1.00
Cl3    Cl    0.35283   0.05481   0.67782   0.01267  Uiso   1.00
Cl4    Cl    0.17860   0.97247   0.28700   0.01267  Uiso   1.00
Cl5    Cl    0.35283   0.62301   0.94519   0.01267  Uiso   1.00
Cl6    Cl    0.17860   0.31453   0.02753   0.01267  Uiso   1.00
Cl7    Cl    0.64717   0.94519   0.62301   0.01267  Uiso   1.00
Cl8    Cl    0.82140   0.02753   0.31453   0.01267  Uiso   1.00
Cl9    Cl    0.64717   0.37699   0.32218   0.01267  Uiso   1.00
Cl10   Cl    0.82140   0.68547   0.71300   0.01267  Uiso   1.00
Cl11   Cl    0.64717   0.67782   0.05481   0.01267  Uiso   1.00
Cl12   Cl    0.82140   0.28700   0.97247   0.01267  Uiso   1.00
O1     O     0.65790   0.53510   0.68140   0.01267  Uiso   1.00
O2     O     0.49560   0.45810   0.70640   0.01267  Uiso   1.00
O3     O     0.10400   0.25420   0.21610   0.01267  Uiso   1.00
O4     O     0.65790   0.14630   0.46490   0.01267  Uiso   1.00
O5     O     0.49560   0.24830   0.54190   0.01267  Uiso   1.00
O6     O     0.10400   0.96190   0.74580   0.01267  Uiso   1.00
O7     O     0.65790   0.31860   0.85370   0.01267  Uiso   1.00
O8     O     0.49560   0.29360   0.75170   0.01267  Uiso   1.00
O9     O     0.10400   0.78390   0.03810   0.01267  Uiso   1.00
O10    O     0.34210   0.85370   0.31860   0.01267  Uiso   1.00
O11    O     0.50440   0.75170   0.29360   0.01267  Uiso   1.00
O12    O     0.89600   0.03810   0.78390   0.01267  Uiso   1.00
O13    O     0.34210   0.68140   0.53510   0.01267  Uiso   1.00
O14    O     0.50440   0.70640   0.45810   0.01267  Uiso   1.00
O15    O     0.89600   0.21610   0.25420   0.01267  Uiso   1.00
O16    O     0.34210   0.46490   0.14630   0.01267  Uiso   1.00
O17    O     0.50440   0.54190   0.24830   0.01267  Uiso   1.00
O18    O     0.89600   0.74580   0.96190   0.01267  Uiso   1.00
Cl13   Cl    0.98930   0.60680   0.16490   0.01267  Uiso   1.00
O19    O     0.96020   0.59750   0.11210   0.01267  Uiso   1.00
O20    O     0.05100   0.55890   0.15750   0.01267  Uiso   1.00
O21    O     0.05100   0.65550   0.19430   0.01267  Uiso   1.00
O22    O     0.90600   0.61200   0.19960   0.01267  Uiso   1.00
Cl14   Cl    0.98930   0.55810   0.39320   0.01267  Uiso   1.00
O23    O     0.96020   0.51460   0.40250   0.01267  Uiso   1.00
O24    O     0.05100   0.59860   0.44110   0.01267  Uiso   1.00
O25    O     0.05100   0.53880   0.34450   0.01267  Uiso   1.00
O26    O     0.90600   0.58760   0.38800   0.01267  Uiso   1.00
Cl15   Cl    0.98930   0.83510   0.44190   0.01267  Uiso   1.00
O27    O     0.96020   0.88790   0.48540   0.01267  Uiso   1.00
O28    O     0.05100   0.84250   0.40140   0.01267  Uiso   1.00
O29    O     0.05100   0.80570   0.46120   0.01267  Uiso   1.00
O30    O     0.90600   0.80040   0.41240   0.01267  Uiso   1.00
Cl16   Cl    0.01070   0.44190   0.83510   0.01267  Uiso   1.00
O31    O     0.03980   0.48540   0.88790   0.01267  Uiso   1.00
O32    O     0.94900   0.40140   0.84250   0.01267  Uiso   1.00
O33    O     0.94900   0.46120   0.80570   0.01267  Uiso   1.00
O34    O     0.09400   0.41240   0.80040   0.01267  Uiso   1.00
Cl17   Cl    0.01070   0.16490   0.60680   0.01267  Uiso   1.00
O35    O     0.03980   0.11210   0.59750   0.01267  Uiso   1.00
O36    O     0.94900   0.15750   0.55890   0.01267  Uiso   1.00
O37    O     0.94900   0.19430   0.65550   0.01267  Uiso   1.00
O38    O     0.09400   0.19960   0.61200   0.01267  Uiso   1.00
Cl18   Cl    0.01070   0.39320   0.55810   0.01267  Uiso   1.00
O39    O     0.03980   0.40250   0.51460   0.01267  Uiso   1.00
O40    O     0.94900   0.44110   0.59860   0.01267  Uiso   1.00
O41    O     0.94900   0.34450   0.53880   0.01267  Uiso   1.00
O42    O     0.09400   0.38800   0.58760   0.01267  Uiso   1.00
