data_image0
_cell_length_a       9.6189
_cell_length_b       10.639
_cell_length_c       10.986
_cell_angle_alpha    79.523
_cell_angle_beta     64.995
_cell_angle_gamma    70.574

_symmetry_space_group_name_H-M    P 1
_symmetry_int_tables_number       1

loop_
  _symmetry_equiv_pos_as_xyz
  'x, y, z'

loop_
  _atom_site_label
  _atom_site_occupancy
  _atom_site_fract_x
  _atom_site_fract_y
  _atom_site_fract_z
  _atom_site_thermal_displace_type
  _atom_site_B_iso_or_equiv
  _atom_site_type_symbol
  Cu1      1.0000 0.65174  0.15708  0.54579  Biso   1.000  Cu
  Cu2      1.0000 0.34826  0.84292  0.45421  Biso   1.000  Cu
  Cu3      1.0000 0.00000  0.50000  0.50000  Biso   1.000  Cu
  Mo1      1.0000 0.35329  0.20841  0.40615  Biso   1.000  Mo
  Mo2      1.0000 0.64671  0.79159  0.59385  Biso   1.000  Mo
  H1       1.0000 0.56110  0.20980  0.83380  Biso   1.000  H
  H2       1.0000 0.36370  0.20320  0.04100  Biso   1.000  H
  H3       1.0000 0.21410  0.11350  0.22830  Biso   1.000  H
  H4       1.0000 0.00340  0.12170  0.42850  Biso   1.000  H
  H5       1.0000 0.70830  0.20110  0.25190  Biso   1.000  H
  H6       1.0000 0.91040  0.19250  0.04690  Biso   1.000  H
  H7       1.0000 0.13930  0.08080  0.87390  Biso   1.000  H
  H8       1.0000 0.34910  0.07930  0.67360  Biso   1.000  H
  H9       1.0000 0.23510  0.47980  0.82500  Biso   1.000  H
  H10      1.0000 0.22970  0.48100  0.61910  Biso   1.000  H
  H11      1.0000 0.76700  0.52150  0.98820  Biso   1.000  H
  H12      1.0000 0.77200  0.52930  0.77860  Biso   1.000  H
  H13      1.0000 0.43890  0.79020  0.16620  Biso   1.000  H
  H14      1.0000 0.63630  0.79680  0.95900  Biso   1.000  H
  H15      1.0000 0.78590  0.88650  0.77170  Biso   1.000  H
  H16      1.0000 0.99660  0.87830  0.57150  Biso   1.000  H
  H17      1.0000 0.29170  0.79890  0.74810  Biso   1.000  H
  H18      1.0000 0.08960  0.80750  0.95310  Biso   1.000  H
  H19      1.0000 0.86070  0.91920  0.12610  Biso   1.000  H
  H20      1.0000 0.65090  0.92070  0.32640  Biso   1.000  H
  H21      1.0000 0.76490  0.52020  0.17500  Biso   1.000  H
  H22      1.0000 0.77030  0.51900  0.38090  Biso   1.000  H
  H23      1.0000 0.23300  0.47850  0.01180  Biso   1.000  H
  H24      1.0000 0.22800  0.47070  0.22140  Biso   1.000  H
  C1       1.0000 0.47450  0.18330  0.84210  Biso   1.000  C
  C2       1.0000 0.35550  0.18120  0.96660  Biso   1.000  C
  C3       1.0000 0.22390  0.14660  0.98130  Biso   1.000  C
  C4       1.0000 0.08830  0.15180  0.11260  Biso   1.000  C
  C5       1.0000 0.11180  0.13130  0.23030  Biso   1.000  C
  C6       1.0000 0.98420  0.13700  0.35010  Biso   1.000  C
  C7       1.0000 0.81200  0.18300  0.24700  Biso   1.000  C
  C8       1.0000 0.93240  0.17820  0.12380  Biso   1.000  C
  C9       1.0000 0.22450  0.10770  0.86830  Biso   1.000  C
  C10      1.0000 0.34990  0.10870  0.74800  Biso   1.000  C
  C11      1.0000 0.13900  0.48900  0.81830  Biso   1.000  C
  C12      1.0000 0.13460  0.49100  0.69490  Biso   1.000  C
  C13      1.0000 0.00040  0.50050  0.93260  Biso   1.000  C
  C14      1.0000 0.86330  0.51450  0.91410  Biso   1.000  C
  C15      1.0000 0.86700  0.51820  0.78820  Biso   1.000  C
  C16      1.0000 0.52550  0.81670  0.15790  Biso   1.000  C
  C17      1.0000 0.64450  0.81880  0.03340  Biso   1.000  C
  C18      1.0000 0.77610  0.85340  0.01870  Biso   1.000  C
  C19      1.0000 0.91170  0.84820  0.88740  Biso   1.000  C
  C20      1.0000 0.88820  0.86870  0.76970  Biso   1.000  C
  C21      1.0000 0.01580  0.86300  0.64990  Biso   1.000  C
  C22      1.0000 0.18800  0.81700  0.75300  Biso   1.000  C
  C23      1.0000 0.06760  0.82180  0.87620  Biso   1.000  C
  C24      1.0000 0.77550  0.89230  0.13170  Biso   1.000  C
  C25      1.0000 0.65010  0.89130  0.25200  Biso   1.000  C
  C26      1.0000 0.86100  0.51100  0.18170  Biso   1.000  C
  C27      1.0000 0.86540  0.50900  0.30510  Biso   1.000  C
  C28      1.0000 0.99960  0.49950  0.06740  Biso   1.000  C
  C29      1.0000 0.13670  0.48550  0.08590  Biso   1.000  C
  C30      1.0000 0.13300  0.48180  0.21180  Biso   1.000  C
  N1       1.0000 0.84250  0.23720  0.64830  Biso   1.000  N
  N2       1.0000 0.47310  0.14930  0.73190  Biso   1.000  N
  N3       1.0000 0.83460  0.16300  0.36190  Biso   1.000  N
  N4       1.0000 0.00070  0.50650  0.67900  Biso   1.000  N
  N5       1.0000 0.15750  0.76280  0.35170  Biso   1.000  N
  N6       1.0000 0.52690  0.85070  0.26810  Biso   1.000  N
  N7       1.0000 0.16540  0.83700  0.63810  Biso   1.000  N
  N8       1.0000 0.99930  0.49350  0.32100  Biso   1.000  N
  O1       1.0000 0.94160  0.19490  0.72910  Biso   1.000  O
  O2       1.0000 0.81640  0.35160  0.59550  Biso   1.000  O
  O3       1.0000 0.78750  0.14820  0.63620  Biso   1.000  O
  O4       1.0000 0.49790  0.20850  0.46480  Biso   1.000  O
  O5       1.0000 0.43690  0.21180  0.23320  Biso   1.000  O
  O6       1.0000 0.29340  0.06580  0.46580  Biso   1.000  O
  O7       1.0000 0.18860  0.34920  0.46020  Biso   1.000  O
  O8       1.0000 0.05840  0.80510  0.27090  Biso   1.000  O
  O9       1.0000 0.18360  0.64840  0.40450  Biso   1.000  O
  O10      1.0000 0.21250  0.85180  0.36380  Biso   1.000  O
  O11      1.0000 0.50210  0.79150  0.53520  Biso   1.000  O
  O12      1.0000 0.56310  0.78820  0.76680  Biso   1.000  O
  O13      1.0000 0.70660  0.93420  0.53420  Biso   1.000  O
  O14      1.0000 0.81140  0.65080  0.53980  Biso   1.000  O
