data_image0
_cell_length_a       18.3638
_cell_length_b       10.9135
_cell_length_c       18.8942
_cell_angle_alpha    90
_cell_angle_beta     108.374
_cell_angle_gamma    90

_symmetry_space_group_name_H-M    "P 1"
_symmetry_int_tables_number       1

loop_
  _symmetry_equiv_pos_as_xyz
  'x, y, z'

loop_
  _atom_site_label
  _atom_site_occupancy
  _atom_site_fract_x
  _atom_site_fract_y
  _atom_site_fract_z
  _atom_site_thermal_displace_type
  _atom_site_B_iso_or_equiv
  _atom_site_type_symbol
  Co1      1.0000 0.18635  0.29472  0.47069  Biso   1.000  Co
  Co2      1.0000 0.28547  0.29775  0.37667  Biso   1.000  Co
  O1       1.0000 0.11172  0.30150  0.36397  Biso   1.000  O
  O2       1.0000 0.18544  0.30570  0.28995  Biso   1.000  O
  O3       1.0000 0.25962  0.11770  0.38731  Biso   1.000  O
  O4       1.0000 0.18782  0.11060  0.46227  Biso   1.000  O
  O5       1.0000 0.28131  0.48150  0.39262  Biso   1.000  O
  O6       1.0000 0.20443  0.47910  0.46415  Biso   1.000  O
  O7       1.0000 0.78904  0.21490  0.05285  Biso   1.000  O
  O8       1.0000 0.86467  0.21790  0.98065  Biso   1.000  O
  N1       1.0000 0.10528  0.32570  0.52198  Biso   1.000  N
  N2       1.0000 0.04164  0.40470  0.59159  Biso   1.000  N
  N3       1.0000 0.92651  0.22620  0.73942  Biso   1.000  N
  N4       1.0000 0.86057  0.18730  0.81585  Biso   1.000  N
  C1       1.0000 0.12169  0.29680  0.30130  Biso   1.000  C
  C2       1.0000 0.22508  0.06140  0.42456  Biso   1.000  C
  C3       1.0000 0.23038  0.92500  0.42573  Biso   1.000  C
  C4       1.0000 0.20920  0.85850  0.47964  Biso   1.000  C
  H1       1.0000 0.19050  0.89960  0.51410  Biso   1.000  H
  C5       1.0000 0.25712  0.86310  0.37473  Biso   1.000  C
  H2       1.0000 0.27140  0.90750  0.33860  Biso   1.000  H
  C6       1.0000 0.24353  0.53280  0.42987  Biso   1.000  C
  C7       1.0000 0.24215  0.66990  0.43074  Biso   1.000  C
  C8       1.0000 0.21584  0.73210  0.48200  Biso   1.000  C
  H3       1.0000 0.20240  0.68790  0.51870  Biso   1.000  H
  C9       1.0000 0.26292  0.73610  0.37662  Biso   1.000  C
  H4       1.0000 0.28070  0.69480  0.34160  Biso   1.000  H
  C10      1.0000 0.05139  0.27930  0.23478  Biso   1.000  C
  C11      1.0000 0.05623  0.29140  0.16288  Biso   1.000  C
  H5       1.0000 0.10360  0.31070  0.15630  Biso   1.000  H
  C12      1.0000 0.99172  0.27530  0.10106  Biso   1.000  C
  H6       1.0000 0.99560  0.28390  0.05290  Biso   1.000  H
  C13      1.0000 0.92127  0.24640  0.11001  Biso   1.000  C
  C14      1.0000 0.85334  0.22500  0.04217  Biso   1.000  C
  C15      1.0000 0.91633  0.23560  0.18126  Biso   1.000  C
  H7       1.0000 0.86890  0.21660  0.18780  Biso   1.000  H
  C16      1.0000 0.98067  0.25250  0.24322  Biso   1.000  C
  H8       1.0000 0.97630  0.24580  0.29130  Biso   1.000  H
  C17      1.0000 0.11166  0.38780  0.58426  Biso   1.000  C
  C18      1.0000 0.98850  0.35210  0.53113  Biso   1.000  C
  H9       1.0000 0.93510  0.35040  0.52110  Biso   1.000  H
  C19      1.0000 0.02817  0.30380  0.48918  Biso   1.000  C
  H10      1.0000 0.00650  0.26140  0.44410  Biso   1.000  H
  C20      1.0000 0.02440  0.46780  0.65302  Biso   1.000  C
  H11      1.0000 0.97620  0.51300  0.63310  Biso   1.000  H
  H12      1.0000 0.06510  0.52750  0.67530  Biso   1.000  H
  C21      1.0000 0.01770  0.38000  0.71364  Biso   1.000  C
  H13      1.0000 0.06580  0.33430  0.73360  Biso   1.000  H
  H14      1.0000 0.00930  0.42700  0.75450  Biso   1.000  H
  C22      1.0000 0.95190  0.29060  0.68308  Biso   1.000  C
  H15      1.0000 0.90810  0.33550  0.65000  Biso   1.000  H
  H16      1.0000 0.96750  0.22940  0.65270  Biso   1.000  H
  C23      1.0000 0.88330  0.27410  0.77845  Biso   1.000  C
  C24      1.0000 0.89060  0.07830  0.79902  Biso   1.000  C
  H17      1.0000 0.88360  0.00070  0.81750  Biso   1.000  H
  C25      1.0000 0.93120  0.10060  0.75230  Biso   1.000  C
  H18      1.0000 0.95750  0.04290  0.73250  Biso   1.000  H
  C26      1.0000 0.86380  0.40640  0.77830  Biso   1.000  C
  H19      1.0000 0.85600  0.44020  0.72890  Biso   1.000  H
  H20      1.0000 0.90550  0.44960  0.81420  Biso   1.000  H
  H21      1.0000 0.81730  0.41580  0.79160  Biso   1.000  H
  C27      1.0000 0.18380  0.43430  0.63750  Biso   1.000  C
  H22      1.0000 0.19480  0.39010  0.68420  Biso   1.000  H
  H23      1.0000 0.17850  0.52100  0.64620  Biso   1.000  H
  H24      1.0000 0.22550  0.42240  0.61700  Biso   1.000  H
  Co3      1.0000 0.68635  0.20528  0.97069  Biso   1.000  Co
  Co4      1.0000 0.78547  0.20225  0.87667  Biso   1.000  Co
  O9       1.0000 0.61172  0.19850  0.86397  Biso   1.000  O
  O10      1.0000 0.68544  0.19430  0.78995  Biso   1.000  O
  O11      1.0000 0.75962  0.38230  0.88731  Biso   1.000  O
  O12      1.0000 0.68782  0.38940  0.96227  Biso   1.000  O
  O13      1.0000 0.78131  0.01850  0.89262  Biso   1.000  O
  O14      1.0000 0.70443  0.02090  0.96415  Biso   1.000  O
  O15      1.0000 0.28904  0.28510  0.55285  Biso   1.000  O
  O16      1.0000 0.36467  0.28210  0.48065  Biso   1.000  O
  N5       1.0000 0.60528  0.17430  0.02198  Biso   1.000  N
  N6       1.0000 0.54164  0.09530  0.09159  Biso   1.000  N
  N7       1.0000 0.42651  0.27380  0.23942  Biso   1.000  N
  N8       1.0000 0.36057  0.31270  0.31585  Biso   1.000  N
  C28      1.0000 0.62169  0.20320  0.80130  Biso   1.000  C
  C29      1.0000 0.72508  0.43860  0.92456  Biso   1.000  C
  C30      1.0000 0.73038  0.57500  0.92573  Biso   1.000  C
  C31      1.0000 0.70920  0.64150  0.97964  Biso   1.000  C
  H25      1.0000 0.69050  0.60040  0.01410  Biso   1.000  H
  C32      1.0000 0.75712  0.63690  0.87473  Biso   1.000  C
  H26      1.0000 0.77140  0.59250  0.83860  Biso   1.000  H
  C33      1.0000 0.74353  0.96720  0.92987  Biso   1.000  C
  C34      1.0000 0.74215  0.83010  0.93074  Biso   1.000  C
  C35      1.0000 0.71584  0.76790  0.98200  Biso   1.000  C
  H27      1.0000 0.70240  0.81210  0.01870  Biso   1.000  H
  C36      1.0000 0.76292  0.76390  0.87662  Biso   1.000  C
  H28      1.0000 0.78070  0.80520  0.84160  Biso   1.000  H
  C37      1.0000 0.55139  0.22070  0.73478  Biso   1.000  C
  C38      1.0000 0.55623  0.20860  0.66288  Biso   1.000  C
  H29      1.0000 0.60360  0.18930  0.65630  Biso   1.000  H
  C39      1.0000 0.49172  0.22470  0.60106  Biso   1.000  C
  H30      1.0000 0.49560  0.21610  0.55290  Biso   1.000  H
  C40      1.0000 0.42127  0.25360  0.61001  Biso   1.000  C
  C41      1.0000 0.35334  0.27500  0.54217  Biso   1.000  C
  C42      1.0000 0.41633  0.26440  0.68126  Biso   1.000  C
  H31      1.0000 0.36890  0.28340  0.68780  Biso   1.000  H
  C43      1.0000 0.48067  0.24750  0.74322  Biso   1.000  C
  H32      1.0000 0.47630  0.25420  0.79130  Biso   1.000  H
  C44      1.0000 0.61166  0.11220  0.08426  Biso   1.000  C
  C45      1.0000 0.48850  0.14790  0.03113  Biso   1.000  C
  H33      1.0000 0.43510  0.14960  0.02110  Biso   1.000  H
  C46      1.0000 0.52817  0.19620  0.98918  Biso   1.000  C
  H34      1.0000 0.50650  0.23860  0.94410  Biso   1.000  H
  C47      1.0000 0.52440  0.03220  0.15302  Biso   1.000  C
  H35      1.0000 0.47620  0.98700  0.13310  Biso   1.000  H
  H36      1.0000 0.56510  0.97250  0.17530  Biso   1.000  H
  C48      1.0000 0.51770  0.12000  0.21364  Biso   1.000  C
  H37      1.0000 0.56580  0.16570  0.23360  Biso   1.000  H
  H38      1.0000 0.50930  0.07300  0.25450  Biso   1.000  H
  C49      1.0000 0.45190  0.20940  0.18308  Biso   1.000  C
  H39      1.0000 0.40810  0.16450  0.15000  Biso   1.000  H
  H40      1.0000 0.46750  0.27060  0.15270  Biso   1.000  H
  C50      1.0000 0.38330  0.22590  0.27845  Biso   1.000  C
  C51      1.0000 0.39060  0.42170  0.29902  Biso   1.000  C
  H41      1.0000 0.38360  0.49930  0.31750  Biso   1.000  H
  C52      1.0000 0.43120  0.39940  0.25230  Biso   1.000  C
  H42      1.0000 0.45750  0.45710  0.23250  Biso   1.000  H
  C53      1.0000 0.36380  0.09360  0.27830  Biso   1.000  C
  H43      1.0000 0.35600  0.05980  0.22890  Biso   1.000  H
  H44      1.0000 0.40550  0.05040  0.31420  Biso   1.000  H
  H45      1.0000 0.31730  0.08420  0.29160  Biso   1.000  H
  C54      1.0000 0.68380  0.06570  0.13750  Biso   1.000  C
  H46      1.0000 0.69480  0.10990  0.18420  Biso   1.000  H
  H47      1.0000 0.67850  0.97900  0.14620  Biso   1.000  H
  H48      1.0000 0.72550  0.07760  0.11700  Biso   1.000  H
  Co5      1.0000 0.31365  0.79472  0.02931  Biso   1.000  Co
  Co6      1.0000 0.21453  0.79775  0.12333  Biso   1.000  Co
  O17      1.0000 0.38828  0.80150  0.13603  Biso   1.000  O
  O18      1.0000 0.31456  0.80570  0.21005  Biso   1.000  O
  O19      1.0000 0.24038  0.61770  0.11269  Biso   1.000  O
  O20      1.0000 0.31218  0.61060  0.03773  Biso   1.000  O
  O21      1.0000 0.21869  0.98150  0.10738  Biso   1.000  O
  O22      1.0000 0.29557  0.97910  0.03585  Biso   1.000  O
  O23      1.0000 0.71096  0.71490  0.44715  Biso   1.000  O
  O24      1.0000 0.63533  0.71790  0.51935  Biso   1.000  O
  N9       1.0000 0.39472  0.82570  0.97802  Biso   1.000  N
  N10      1.0000 0.45836  0.90470  0.90841  Biso   1.000  N
  N11      1.0000 0.57349  0.72620  0.76058  Biso   1.000  N
  N12      1.0000 0.63943  0.68730  0.68415  Biso   1.000  N
  C55      1.0000 0.37831  0.79680  0.19870  Biso   1.000  C
  C56      1.0000 0.27492  0.56140  0.07544  Biso   1.000  C
  C57      1.0000 0.26962  0.42500  0.07427  Biso   1.000  C
  C58      1.0000 0.29080  0.35850  0.02036  Biso   1.000  C
  H49      1.0000 0.30950  0.39960  0.98590  Biso   1.000  H
  C59      1.0000 0.24288  0.36310  0.12527  Biso   1.000  C
  H50      1.0000 0.22860  0.40750  0.16140  Biso   1.000  H
  C60      1.0000 0.25647  0.03280  0.07013  Biso   1.000  C
  C61      1.0000 0.25785  0.16990  0.06926  Biso   1.000  C
  C62      1.0000 0.28416  0.23210  0.01800  Biso   1.000  C
  H51      1.0000 0.29760  0.18790  0.98130  Biso   1.000  H
  C63      1.0000 0.23708  0.23610  0.12338  Biso   1.000  C
  H52      1.0000 0.21930  0.19480  0.15840  Biso   1.000  H
  C64      1.0000 0.44861  0.77930  0.26522  Biso   1.000  C
  C65      1.0000 0.44377  0.79140  0.33712  Biso   1.000  C
  H53      1.0000 0.39640  0.81070  0.34370  Biso   1.000  H
  C66      1.0000 0.50828  0.77530  0.39894  Biso   1.000  C
  H54      1.0000 0.50440  0.78390  0.44710  Biso   1.000  H
  C67      1.0000 0.57873  0.74640  0.38999  Biso   1.000  C
  C68      1.0000 0.64666  0.72500  0.45783  Biso   1.000  C
  C69      1.0000 0.58367  0.73560  0.31874  Biso   1.000  C
  H55      1.0000 0.63110  0.71660  0.31220  Biso   1.000  H
  C70      1.0000 0.51933  0.75250  0.25678  Biso   1.000  C
  H56      1.0000 0.52370  0.74580  0.20870  Biso   1.000  H
  C71      1.0000 0.38834  0.88780  0.91574  Biso   1.000  C
  C72      1.0000 0.51150  0.85210  0.96887  Biso   1.000  C
  H57      1.0000 0.56490  0.85040  0.97890  Biso   1.000  H
  C73      1.0000 0.47183  0.80380  0.01082  Biso   1.000  C
  H58      1.0000 0.49350  0.76140  0.05590  Biso   1.000  H
  C74      1.0000 0.47560  0.96780  0.84698  Biso   1.000  C
  H59      1.0000 0.52380  0.01300  0.86690  Biso   1.000  H
  H60      1.0000 0.43490  0.02750  0.82470  Biso   1.000  H
  C75      1.0000 0.48230  0.88000  0.78636  Biso   1.000  C
  H61      1.0000 0.43420  0.83430  0.76640  Biso   1.000  H
  H62      1.0000 0.49070  0.92700  0.74550  Biso   1.000  H
  C76      1.0000 0.54810  0.79060  0.81692  Biso   1.000  C
  H63      1.0000 0.59190  0.83550  0.85000  Biso   1.000  H
  H64      1.0000 0.53250  0.72940  0.84730  Biso   1.000  H
  C77      1.0000 0.61670  0.77410  0.72155  Biso   1.000  C
  C78      1.0000 0.60940  0.57830  0.70098  Biso   1.000  C
  H65      1.0000 0.61640  0.50070  0.68250  Biso   1.000  H
  C79      1.0000 0.56880  0.60060  0.74770  Biso   1.000  C
  H66      1.0000 0.54250  0.54290  0.76750  Biso   1.000  H
  C80      1.0000 0.63620  0.90640  0.72170  Biso   1.000  C
  H67      1.0000 0.64400  0.94020  0.77110  Biso   1.000  H
  H68      1.0000 0.59450  0.94960  0.68580  Biso   1.000  H
  H69      1.0000 0.68270  0.91580  0.70840  Biso   1.000  H
  C81      1.0000 0.31620  0.93430  0.86250  Biso   1.000  C
  H70      1.0000 0.30520  0.89010  0.81580  Biso   1.000  H
  H71      1.0000 0.32150  0.02100  0.85380  Biso   1.000  H
  H72      1.0000 0.27450  0.92240  0.88300  Biso   1.000  H
  Co7      1.0000 0.81365  0.70528  0.52931  Biso   1.000  Co
  Co8      1.0000 0.71453  0.70225  0.62333  Biso   1.000  Co
  O25      1.0000 0.88828  0.69850  0.63603  Biso   1.000  O
  O26      1.0000 0.81456  0.69430  0.71005  Biso   1.000  O
  O27      1.0000 0.74038  0.88230  0.61269  Biso   1.000  O
  O28      1.0000 0.81218  0.88940  0.53773  Biso   1.000  O
  O29      1.0000 0.71869  0.51850  0.60738  Biso   1.000  O
  O30      1.0000 0.79557  0.52090  0.53585  Biso   1.000  O
  O31      1.0000 0.21096  0.78510  0.94715  Biso   1.000  O
  O32      1.0000 0.13533  0.78210  0.01935  Biso   1.000  O
  N13      1.0000 0.89472  0.67430  0.47802  Biso   1.000  N
  N14      1.0000 0.95836  0.59530  0.40841  Biso   1.000  N
  N15      1.0000 0.07349  0.77380  0.26058  Biso   1.000  N
  N16      1.0000 0.13943  0.81270  0.18415  Biso   1.000  N
  C82      1.0000 0.87831  0.70320  0.69870  Biso   1.000  C
  C83      1.0000 0.77492  0.93860  0.57544  Biso   1.000  C
  C84      1.0000 0.76962  0.07500  0.57427  Biso   1.000  C
  C85      1.0000 0.79080  0.14150  0.52036  Biso   1.000  C
  H73      1.0000 0.80950  0.10040  0.48590  Biso   1.000  H
  C86      1.0000 0.74288  0.13690  0.62527  Biso   1.000  C
  H74      1.0000 0.72860  0.09250  0.66140  Biso   1.000  H
  C87      1.0000 0.75647  0.46720  0.57013  Biso   1.000  C
  C88      1.0000 0.75785  0.33010  0.56926  Biso   1.000  C
  C89      1.0000 0.78416  0.26790  0.51800  Biso   1.000  C
  H75      1.0000 0.79760  0.31210  0.48130  Biso   1.000  H
  C90      1.0000 0.73708  0.26390  0.62338  Biso   1.000  C
  H76      1.0000 0.71930  0.30520  0.65840  Biso   1.000  H
  C91      1.0000 0.94861  0.72070  0.76522  Biso   1.000  C
  C92      1.0000 0.94377  0.70860  0.83712  Biso   1.000  C
  H77      1.0000 0.89640  0.68930  0.84370  Biso   1.000  H
  C93      1.0000 0.00828  0.72470  0.89894  Biso   1.000  C
  H78      1.0000 0.00440  0.71610  0.94710  Biso   1.000  H
  C94      1.0000 0.07873  0.75360  0.88999  Biso   1.000  C
  C95      1.0000 0.14666  0.77500  0.95783  Biso   1.000  C
  C96      1.0000 0.08367  0.76440  0.81874  Biso   1.000  C
  H79      1.0000 0.13110  0.78340  0.81220  Biso   1.000  H
  C97      1.0000 0.01933  0.74750  0.75678  Biso   1.000  C
  H80      1.0000 0.02370  0.75420  0.70870  Biso   1.000  H
  C98      1.0000 0.88834  0.61220  0.41574  Biso   1.000  C
  C99      1.0000 0.01150  0.64790  0.46887  Biso   1.000  C
  H81      1.0000 0.06490  0.64960  0.47890  Biso   1.000  H
  C100     1.0000 0.97183  0.69620  0.51082  Biso   1.000  C
  H82      1.0000 0.99350  0.73860  0.55590  Biso   1.000  H
  C101     1.0000 0.97560  0.53220  0.34698  Biso   1.000  C
  H83      1.0000 0.02380  0.48700  0.36690  Biso   1.000  H
  H84      1.0000 0.93490  0.47250  0.32470  Biso   1.000  H
  C102     1.0000 0.98230  0.62000  0.28636  Biso   1.000  C
  H85      1.0000 0.93420  0.66570  0.26640  Biso   1.000  H
  H86      1.0000 0.99070  0.57300  0.24550  Biso   1.000  H
  C103     1.0000 0.04810  0.70940  0.31692  Biso   1.000  C
  H87      1.0000 0.09190  0.66450  0.35000  Biso   1.000  H
  H88      1.0000 0.03250  0.77060  0.34730  Biso   1.000  H
  C104     1.0000 0.11670  0.72590  0.22155  Biso   1.000  C
  C105     1.0000 0.10940  0.92170  0.20098  Biso   1.000  C
  H89      1.0000 0.11640  0.99930  0.18250  Biso   1.000  H
  C106     1.0000 0.06880  0.89940  0.24770  Biso   1.000  C
  H90      1.0000 0.04250  0.95710  0.26750  Biso   1.000  H
  C107     1.0000 0.13620  0.59360  0.22170  Biso   1.000  C
  H91      1.0000 0.14400  0.55980  0.27110  Biso   1.000  H
  H92      1.0000 0.09450  0.55040  0.18580  Biso   1.000  H
  H93      1.0000 0.18270  0.58420  0.20840  Biso   1.000  H
  C108     1.0000 0.81620  0.56570  0.36250  Biso   1.000  C
  H94      1.0000 0.80520  0.60990  0.31580  Biso   1.000  H
  H95      1.0000 0.82150  0.47900  0.35380  Biso   1.000  H
  H96      1.0000 0.77450  0.57760  0.38300  Biso   1.000  H
