data_image0
_cell_length_a       10.6211
_cell_length_b       12.6597
_cell_length_c       25.6894
_cell_angle_alpha    84.7076
_cell_angle_beta     78.0696
_cell_angle_gamma    65.1979

_symmetry_space_group_name_H-M    P 1
_symmetry_int_tables_number       1

loop_
  _symmetry_equiv_pos_as_xyz
  'x, y, z'

loop_
  _atom_site_label
  _atom_site_occupancy
  _atom_site_fract_x
  _atom_site_fract_y
  _atom_site_fract_z
  _atom_site_thermal_displace_type
  _atom_site_B_iso_or_equiv
  _atom_site_type_symbol
  Zn1      1.0000 0.24778  0.46292  0.11632  Biso   1.000  Zn
  Zn2      1.0000 0.71104  0.75512  0.04302  Biso   1.000  Zn
  Zn3      1.0000 0.82702  0.03708  0.38368  Biso   1.000  Zn
  Zn4      1.0000 0.50918  0.74488  0.45698  Biso   1.000  Zn
  Zn5      1.0000 0.75222  0.53708  0.88368  Biso   1.000  Zn
  Zn6      1.0000 0.28896  0.24488  0.95698  Biso   1.000  Zn
  Zn7      1.0000 0.17298  0.96292  0.61632  Biso   1.000  Zn
  Zn8      1.0000 0.49082  0.25512  0.54302  Biso   1.000  Zn
  Zn9      1.0000 0.06303  0.25000  0.75000  Biso   1.000  Zn
  Zn10     1.0000 0.93697  0.75000  0.25000  Biso   1.000  Zn
  Zn11     1.0000 0.50000  0.00000  0.00000  Biso   1.000  Zn
  Zn12     1.0000 0.50000  0.50000  0.50000  Biso   1.000  Zn
  H1       1.0000 0.03520  0.41960  0.12980  Biso   1.000  H
  H2       1.0000 0.83320  0.55280  0.04820  Biso   1.000  H
  H3       1.0000 0.82320  0.77010  0.11950  Biso   1.000  H
  H4       1.0000 0.54340  0.92490  0.77790  Biso   1.000  H
  H5       1.0000 0.05610  0.99230  0.07810  Biso   1.000  H
  H6       1.0000 0.07890  0.80290  0.09350  Biso   1.000  H
  H7       1.0000 0.80240  0.94070  0.85790  Biso   1.000  H
  H8       1.0000 0.66320  0.79880  0.83920  Biso   1.000  H
  H9       1.0000 0.58970  0.27690  0.82250  Biso   1.000  H
  H10      1.0000 0.18360  0.02270  0.88650  Biso   1.000  H
  H11      1.0000 0.94330  0.67950  0.08990  Biso   1.000  H
  H12      1.0000 0.77300  0.56100  0.00700  Biso   1.000  H
  H13      1.0000 0.02130  0.47390  0.17750  Biso   1.000  H
  H14      1.0000 0.48330  0.47990  0.05750  Biso   1.000  H
  H15      1.0000 0.51000  0.45450  0.10750  Biso   1.000  H
  H16      1.0000 0.58460  0.08040  0.37020  Biso   1.000  H
  H17      1.0000 0.43420  0.94720  0.45180  Biso   1.000  H
  H18      1.0000 0.71280  0.72990  0.38050  Biso   1.000  H
  H19      1.0000 0.24620  0.57510  0.72210  Biso   1.000  H
  H20      1.0000 0.12650  0.50770  0.42190  Biso   1.000  H
  H21      1.0000 0.97530  0.69710  0.40650  Biso   1.000  H
  H22      1.0000 0.60100  0.55930  0.64210  Biso   1.000  H
  H23      1.0000 0.30120  0.70120  0.66080  Biso   1.000  H
  H24      1.0000 0.68910  0.22310  0.67750  Biso   1.000  H
  H25      1.0000 0.09280  0.47730  0.61350  Biso   1.000  H
  H26      1.0000 0.71270  0.82050  0.41010  Biso   1.000  H
  H27      1.0000 0.34100  0.93900  0.49300  Biso   1.000  H
  H28      1.0000 0.67270  0.02610  0.32250  Biso   1.000  H
  H29      1.0000 0.02070  0.02010  0.44250  Biso   1.000  H
  H30      1.0000 0.07200  0.04550  0.39250  Biso   1.000  H
  H31      1.0000 0.96480  0.58040  0.87020  Biso   1.000  H
  H32      1.0000 0.16680  0.44720  0.95180  Biso   1.000  H
  H33      1.0000 0.17680  0.22990  0.88050  Biso   1.000  H
  H34      1.0000 0.45660  0.07510  0.22210  Biso   1.000  H
  H35      1.0000 0.94390  0.00770  0.92190  Biso   1.000  H
  H36      1.0000 0.92110  0.19710  0.90650  Biso   1.000  H
  H37      1.0000 0.19760  0.05930  0.14210  Biso   1.000  H
  H38      1.0000 0.33680  0.20120  0.16080  Biso   1.000  H
  H39      1.0000 0.41030  0.72310  0.17750  Biso   1.000  H
  H40      1.0000 0.81640  0.97730  0.11350  Biso   1.000  H
  H41      1.0000 0.05670  0.32050  0.91010  Biso   1.000  H
  H42      1.0000 0.22700  0.43900  0.99300  Biso   1.000  H
  H43      1.0000 0.97870  0.52610  0.82250  Biso   1.000  H
  H44      1.0000 0.51670  0.52010  0.94250  Biso   1.000  H
  H45      1.0000 0.49000  0.54550  0.89250  Biso   1.000  H
  H46      1.0000 0.41540  0.91960  0.62980  Biso   1.000  H
  H47      1.0000 0.56580  0.05280  0.54820  Biso   1.000  H
  H48      1.0000 0.28720  0.27010  0.61950  Biso   1.000  H
  H49      1.0000 0.75380  0.42490  0.27790  Biso   1.000  H
  H50      1.0000 0.87350  0.49230  0.57810  Biso   1.000  H
  H51      1.0000 0.02470  0.30290  0.59350  Biso   1.000  H
  H52      1.0000 0.39900  0.44070  0.35790  Biso   1.000  H
  H53      1.0000 0.69880  0.29880  0.33920  Biso   1.000  H
  H54      1.0000 0.31090  0.77690  0.32250  Biso   1.000  H
  H55      1.0000 0.90720  0.52270  0.38650  Biso   1.000  H
  H56      1.0000 0.28730  0.17950  0.58990  Biso   1.000  H
  H57      1.0000 0.65900  0.06100  0.50700  Biso   1.000  H
  H58      1.0000 0.32730  0.97390  0.67750  Biso   1.000  H
  H59      1.0000 0.97930  0.97990  0.55750  Biso   1.000  H
  H60      1.0000 0.92800  0.95450  0.60750  Biso   1.000  H
  C1       1.0000 0.89390  0.99427  0.79073  Biso   1.000  C
  C2       1.0000 0.99762  0.07511  0.71065  Biso   1.000  C
  C3       1.0000 0.49746  0.83774  0.90054  Biso   1.000  C
  C4       1.0000 0.49596  0.92011  0.81217  Biso   1.000  C
  C5       1.0000 0.67744  0.11095  0.84757  Biso   1.000  C
  C6       1.0000 0.56445  0.11988  0.89482  Biso   1.000  C
  C7       1.0000 0.18492  0.08411  0.00345  Biso   1.000  C
  C8       1.0000 0.22380  0.61619  0.03081  Biso   1.000  C
  C9       1.0000 0.58632  0.77100  0.94036  Biso   1.000  C
  C10      1.0000 0.11368  0.93536  0.05288  Biso   1.000  C
  C11      1.0000 0.35035  0.90239  0.91491  Biso   1.000  C
  C12      1.0000 0.12494  0.82273  0.06179  Biso   1.000  C
  C13      1.0000 0.26988  0.88155  0.96749  Biso   1.000  C
  C14      1.0000 0.76677  0.19862  0.76904  Biso   1.000  C
  C15      1.0000 0.20575  0.73970  0.02300  Biso   1.000  C
  C16      1.0000 0.35246  0.98875  0.82673  Biso   1.000  C
  C17      1.0000 0.79336  0.00452  0.83556  Biso   1.000  C
  C18      1.0000 0.56727  0.84513  0.84893  Biso   1.000  C
  C19      1.0000 0.66656  0.20607  0.81421  Biso   1.000  C
  C20      1.0000 0.28025  0.97811  0.87759  Biso   1.000  C
  C21      1.0000 0.27570  0.07453  0.78747  Biso   1.000  C
  C22      1.0000 0.27611  0.76862  0.97516  Biso   1.000  C
  C23      1.0000 0.88196  0.09169  0.75759  Biso   1.000  C
  C24      1.0000 0.18706  0.96486  0.00682  Biso   1.000  C
  C25      1.0000 0.67890  0.50573  0.70927  Biso   1.000  C
  C26      1.0000 0.78338  0.42489  0.78935  Biso   1.000  C
  C27      1.0000 0.23574  0.66226  0.59946  Biso   1.000  C
  C28      1.0000 0.22824  0.57989  0.68783  Biso   1.000  C
  C29      1.0000 0.63596  0.38905  0.65243  Biso   1.000  C
  C30      1.0000 0.57915  0.38012  0.60518  Biso   1.000  C
  C31      1.0000 0.27248  0.41589  0.49655  Biso   1.000  C
  C32      1.0000 0.87080  0.88381  0.46919  Biso   1.000  C
  C33      1.0000 0.29768  0.72900  0.55964  Biso   1.000  C
  C34      1.0000 0.10192  0.56464  0.44712  Biso   1.000  C
  C35      1.0000 0.16765  0.59761  0.58509  Biso   1.000  C
  C36      1.0000 0.00946  0.67727  0.43821  Biso   1.000  C
  C37      1.0000 0.11892  0.61845  0.53251  Biso   1.000  C
  C38      1.0000 0.73443  0.30138  0.73096  Biso   1.000  C
  C39      1.0000 0.96845  0.76030  0.47700  Biso   1.000  C
  C40      1.0000 0.16794  0.51125  0.67327  Biso   1.000  C
  C41      1.0000 0.63344  0.49548  0.66444  Biso   1.000  C
  C42      1.0000 0.26133  0.65487  0.65107  Biso   1.000  C
  C43      1.0000 0.68684  0.29393  0.68579  Biso   1.000  C
  C44      1.0000 0.13595  0.52189  0.62241  Biso   1.000  C
  C45      1.0000 0.13770  0.42547  0.71253  Biso   1.000  C
  C46      1.0000 0.01989  0.73138  0.52484  Biso   1.000  C
  C47      1.0000 0.73124  0.40831  0.74241  Biso   1.000  C
  C48      1.0000 0.15874  0.53514  0.49318  Biso   1.000  C
  C49      1.0000 0.10610  0.00573  0.20927  Biso   1.000  C
  C50      1.0000 0.00238  0.92489  0.28935  Biso   1.000  C
  C51      1.0000 0.50254  0.16226  0.09946  Biso   1.000  C
  C52      1.0000 0.50404  0.07989  0.18783  Biso   1.000  C
  C53      1.0000 0.32256  0.88905  0.15243  Biso   1.000  C
  C54      1.0000 0.43555  0.88012  0.10518  Biso   1.000  C
  C55      1.0000 0.81508  0.91589  0.99655  Biso   1.000  C
  C56      1.0000 0.77620  0.38381  0.96919  Biso   1.000  C
  C57      1.0000 0.41368  0.22900  0.05964  Biso   1.000  C
  C58      1.0000 0.88632  0.06464  0.94712  Biso   1.000  C
  C59      1.0000 0.64965  0.09761  0.08509  Biso   1.000  C
  C60      1.0000 0.87506  0.17727  0.93821  Biso   1.000  C
  C61      1.0000 0.73012  0.11845  0.03251  Biso   1.000  C
  C62      1.0000 0.23323  0.80138  0.23096  Biso   1.000  C
  C63      1.0000 0.79425  0.26030  0.97700  Biso   1.000  C
  C64      1.0000 0.64754  0.01125  0.17327  Biso   1.000  C
  C65      1.0000 0.20664  0.99548  0.16444  Biso   1.000  C
  C66      1.0000 0.43273  0.15487  0.15107  Biso   1.000  C
  C67      1.0000 0.33344  0.79393  0.18579  Biso   1.000  C
  C68      1.0000 0.71975  0.02189  0.12241  Biso   1.000  C
  C69      1.0000 0.72430  0.92547  0.21253  Biso   1.000  C
  C70      1.0000 0.72389  0.23138  0.02484  Biso   1.000  C
  C71      1.0000 0.11804  0.90831  0.24241  Biso   1.000  C
  C72      1.0000 0.81294  0.03514  0.99318  Biso   1.000  C
  C73      1.0000 0.32110  0.49427  0.29073  Biso   1.000  C
  C74      1.0000 0.21662  0.57511  0.21065  Biso   1.000  C
  C75      1.0000 0.76426  0.33774  0.40054  Biso   1.000  C
  C76      1.0000 0.77176  0.42011  0.31217  Biso   1.000  C
  C77      1.0000 0.36404  0.61095  0.34757  Biso   1.000  C
  C78      1.0000 0.42085  0.61988  0.39482  Biso   1.000  C
  C79      1.0000 0.72752  0.58411  0.50345  Biso   1.000  C
  C80      1.0000 0.12920  0.11619  0.53081  Biso   1.000  C
  C81      1.0000 0.70232  0.27100  0.44036  Biso   1.000  C
  C82      1.0000 0.89808  0.43536  0.55288  Biso   1.000  C
  C83      1.0000 0.83235  0.40239  0.41491  Biso   1.000  C
  C84      1.0000 0.99054  0.32273  0.56179  Biso   1.000  C
  C85      1.0000 0.88108  0.38155  0.46749  Biso   1.000  C
  C86      1.0000 0.26557  0.69862  0.26904  Biso   1.000  C
  C87      1.0000 0.03155  0.23970  0.52300  Biso   1.000  C
  C88      1.0000 0.83206  0.48875  0.32673  Biso   1.000  C
  C89      1.0000 0.36656  0.50452  0.33556  Biso   1.000  C
  C90      1.0000 0.73867  0.34513  0.34893  Biso   1.000  C
  C91      1.0000 0.31316  0.70607  0.31421  Biso   1.000  C
  C92      1.0000 0.86405  0.47811  0.37759  Biso   1.000  C
  C93      1.0000 0.86230  0.57453  0.28747  Biso   1.000  C
  C94      1.0000 0.98011  0.26862  0.47516  Biso   1.000  C
  C95      1.0000 0.26876  0.59169  0.25759  Biso   1.000  C
  C96      1.0000 0.84126  0.46486  0.50682  Biso   1.000  C
  O1       1.0000 0.14540  0.59448  0.07212  Biso   1.000  O
  O2       1.0000 0.56131  0.81829  0.98477  Biso   1.000  O
  O3       1.0000 0.04470  0.98114  0.68566  Biso   1.000  O
  O4       1.0000 0.15908  0.15783  0.80681  Biso   1.000  O
  O5       1.0000 0.04452  0.15247  0.69849  Biso   1.000  O
  O6       1.0000 0.07453  0.42684  0.15270  Biso   1.000  O
  O7       1.0000 0.45168  0.21159  0.89845  Biso   1.000  O
  O8       1.0000 0.81229  0.59347  0.02195  Biso   1.000  O
  O9       1.0000 0.58972  0.03454  0.92662  Biso   1.000  O
  O10      1.0000 0.08526  0.16895  0.02533  Biso   1.000  O
  O11      1.0000 0.32438  0.06332  0.73912  Biso   1.000  O
  O12      1.0000 0.31290  0.54112  0.99888  Biso   1.000  O
  O13      1.0000 0.68793  0.67524  0.92850  Biso   1.000  O
  O14      1.0000 0.30031  0.08857  0.97589  Biso   1.000  O
  O15      1.0000 0.85483  0.71763  0.09771  Biso   1.000  O
  O16      1.0000 0.44531  0.47964  0.08934  Biso   1.000  O
  O17      1.0000 0.81200  0.90552  0.42788  Biso   1.000  O
  O18      1.0000 0.36437  0.68171  0.51523  Biso   1.000  O
  O19      1.0000 0.71150  0.51886  0.81434  Biso   1.000  O
  O20      1.0000 0.12372  0.34217  0.69319  Biso   1.000  O
  O21      1.0000 0.89548  0.34753  0.80151  Biso   1.000  O
  O22      1.0000 0.65407  0.07316  0.34730  Biso   1.000  O
  O23      1.0000 0.56172  0.28841  0.60155  Biso   1.000  O
  O24      1.0000 0.42771  0.90653  0.47805  Biso   1.000  O
  O25      1.0000 0.55088  0.46546  0.57338  Biso   1.000  O
  O26      1.0000 0.27954  0.33105  0.47467  Biso   1.000  O
  O27      1.0000 0.12682  0.43668  0.76088  Biso   1.000  O
  O28      1.0000 0.85290  0.95888  0.50112  Biso   1.000  O
  O29      1.0000 0.29167  0.82476  0.57150  Biso   1.000  O
  O30      1.0000 0.36477  0.41143  0.52411  Biso   1.000  O
  O31      1.0000 0.67017  0.78237  0.40229  Biso   1.000  O
  O32      1.0000 0.01429  0.02036  0.41066  Biso   1.000  O
  O33      1.0000 0.85460  0.40552  0.92788  Biso   1.000  O
  O34      1.0000 0.43869  0.18171  0.01523  Biso   1.000  O
  O35      1.0000 0.95530  0.01886  0.31434  Biso   1.000  O
  O36      1.0000 0.84092  0.84217  0.19319  Biso   1.000  O
  O37      1.0000 0.95548  0.84753  0.30151  Biso   1.000  O
  O38      1.0000 0.92547  0.57316  0.84730  Biso   1.000  O
  O39      1.0000 0.54832  0.78841  0.10155  Biso   1.000  O
  O40      1.0000 0.18771  0.40653  0.97805  Biso   1.000  O
  O41      1.0000 0.41028  0.96546  0.07338  Biso   1.000  O
  O42      1.0000 0.91474  0.83105  0.97467  Biso   1.000  O
  O43      1.0000 0.67562  0.93668  0.26088  Biso   1.000  O
  O44      1.0000 0.68710  0.45888  0.00112  Biso   1.000  O
  O45      1.0000 0.31207  0.32476  0.07150  Biso   1.000  O
  O46      1.0000 0.69969  0.91143  0.02411  Biso   1.000  O
  O47      1.0000 0.14517  0.28237  0.90229  Biso   1.000  O
  O48      1.0000 0.55469  0.52036  0.91066  Biso   1.000  O
  O49      1.0000 0.18800  0.09448  0.57212  Biso   1.000  O
  O50      1.0000 0.63563  0.31829  0.48477  Biso   1.000  O
  O51      1.0000 0.28850  0.48114  0.18566  Biso   1.000  O
  O52      1.0000 0.87628  0.65783  0.30681  Biso   1.000  O
  O53      1.0000 0.10452  0.65247  0.19849  Biso   1.000  O
  O54      1.0000 0.34593  0.92684  0.65270  Biso   1.000  O
  O55      1.0000 0.43828  0.71159  0.39845  Biso   1.000  O
  O56      1.0000 0.57229  0.09347  0.52195  Biso   1.000  O
  O57      1.0000 0.44912  0.53454  0.42662  Biso   1.000  O
  O58      1.0000 0.72046  0.66895  0.52533  Biso   1.000  O
  O59      1.0000 0.87318  0.56332  0.23912  Biso   1.000  O
  O60      1.0000 0.14710  0.04112  0.49888  Biso   1.000  O
  O61      1.0000 0.70833  0.17524  0.42850  Biso   1.000  O
  O62      1.0000 0.63523  0.58857  0.47589  Biso   1.000  O
  O63      1.0000 0.32983  0.21763  0.59771  Biso   1.000  O
  O64      1.0000 0.98571  0.97964  0.58934  Biso   1.000  O
