data_image0
_cell_length_a       14.907
_cell_length_b       18.432
_cell_length_c       33.284
_cell_angle_alpha    97.89
_cell_angle_beta     90
_cell_angle_gamma    90

_symmetry_space_group_name_H-M    P 1
_symmetry_int_tables_number       1

loop_
  _symmetry_equiv_pos_as_xyz
  'x, y, z'

loop_
  _atom_site_label
  _atom_site_occupancy
  _atom_site_fract_x
  _atom_site_fract_y
  _atom_site_fract_z
  _atom_site_thermal_displace_type
  _atom_site_B_iso_or_equiv
  _atom_site_type_symbol
  Cu1      1.0000 0.05247  0.48059  0.61290  Biso   1.000  Cu
  Cu2      1.0000 0.13861  0.31622  0.62394  Biso   1.000  Cu
  Cu3      1.0000 0.74440  0.04798  0.77338  Biso   1.000  Cu
  Cu4      1.0000 0.30310  0.94814  0.62883  Biso   1.000  Cu
  Cu5      1.0000 0.96591  0.77062  0.79261  Biso   1.000  Cu
  Cu6      1.0000 0.21165  0.79529  0.65805  Biso   1.000  Cu
  Cu7      1.0000 0.26234  0.47138  0.64984  Biso   1.000  Cu
  Cu8      1.0000 0.80940  0.25487  0.52040  Biso   1.000  Cu
  Cu9      1.0000 0.55247  0.51941  0.88710  Biso   1.000  Cu
  Cu10     1.0000 0.63861  0.68378  0.87606  Biso   1.000  Cu
  Cu11     1.0000 0.24440  0.95202  0.72662  Biso   1.000  Cu
  Cu12     1.0000 0.80310  0.05186  0.87117  Biso   1.000  Cu
  Cu13     1.0000 0.46591  0.22938  0.70739  Biso   1.000  Cu
  Cu14     1.0000 0.71165  0.20471  0.84195  Biso   1.000  Cu
  Cu15     1.0000 0.76234  0.52862  0.85016  Biso   1.000  Cu
  Cu16     1.0000 0.30940  0.74513  0.97960  Biso   1.000  Cu
  Cu17     1.0000 0.94753  0.51941  0.38710  Biso   1.000  Cu
  Cu18     1.0000 0.86139  0.68378  0.37606  Biso   1.000  Cu
  Cu19     1.0000 0.25560  0.95202  0.22662  Biso   1.000  Cu
  Cu20     1.0000 0.69690  0.05186  0.37117  Biso   1.000  Cu
  Cu21     1.0000 0.03409  0.22938  0.20739  Biso   1.000  Cu
  Cu22     1.0000 0.78835  0.20471  0.34195  Biso   1.000  Cu
  Cu23     1.0000 0.73766  0.52862  0.35016  Biso   1.000  Cu
  Cu24     1.0000 0.19060  0.74513  0.47960  Biso   1.000  Cu
  Cu25     1.0000 0.44753  0.48059  0.11290  Biso   1.000  Cu
  Cu26     1.0000 0.36139  0.31622  0.12394  Biso   1.000  Cu
  Cu27     1.0000 0.75560  0.04798  0.27338  Biso   1.000  Cu
  Cu28     1.0000 0.19690  0.94814  0.12883  Biso   1.000  Cu
  Cu29     1.0000 0.53409  0.77062  0.29261  Biso   1.000  Cu
  Cu30     1.0000 0.28835  0.79529  0.15805  Biso   1.000  Cu
  Cu31     1.0000 0.23766  0.47138  0.14984  Biso   1.000  Cu
  Cu32     1.0000 0.69060  0.25487  0.02040  Biso   1.000  Cu
  P1       1.0000 0.73730  0.83400  0.57840  Biso   1.000  P
  P2       1.0000 0.66170  0.66490  0.63199  Biso   1.000  P
  P3       1.0000 0.23730  0.16600  0.92160  Biso   1.000  P
  P4       1.0000 0.16170  0.33510  0.86801  Biso   1.000  P
  P5       1.0000 0.26270  0.16600  0.42160  Biso   1.000  P
  P6       1.0000 0.33830  0.33510  0.36801  Biso   1.000  P
  P7       1.0000 0.76270  0.83400  0.07840  Biso   1.000  P
  P8       1.0000 0.83830  0.66490  0.13199  Biso   1.000  P
  H1       1.0000 0.06130  0.66320  0.61970  Biso   1.000  H
  H2       1.0000 0.90570  0.90000  0.85640  Biso   1.000  H
  H3       1.0000 0.87060  0.41080  0.57040  Biso   1.000  H
  H4       1.0000 0.26930  0.21420  0.66720  Biso   1.000  H
  H5       1.0000 0.84810  0.89080  0.74390  Biso   1.000  H
  H6       1.0000 0.57880  0.27640  0.78490  Biso   1.000  H
  H7       1.0000 0.29520  0.64470  0.66730  Biso   1.000  H
  H8       1.0000 0.59430  0.09280  0.71160  Biso   1.000  H
  H9       1.0000 0.81050  0.28650  0.43040  Biso   1.000  H
  H10      1.0000 0.98750  0.22130  0.56900  Biso   1.000  H
  H11      1.0000 0.69740  0.11820  0.46670  Biso   1.000  H
  H12      1.0000 0.42460  0.38310  0.68600  Biso   1.000  H
  H13      1.0000 0.56130  0.33680  0.88030  Biso   1.000  H
  H14      1.0000 0.40570  0.10000  0.64360  Biso   1.000  H
  H15      1.0000 0.37060  0.58920  0.92960  Biso   1.000  H
  H16      1.0000 0.76930  0.78580  0.83280  Biso   1.000  H
  H17      1.0000 0.34810  0.10920  0.75610  Biso   1.000  H
  H18      1.0000 0.07880  0.72360  0.71510  Biso   1.000  H
  H19      1.0000 0.79520  0.35530  0.83270  Biso   1.000  H
  H20      1.0000 0.09430  0.90720  0.78840  Biso   1.000  H
  H21      1.0000 0.31050  0.71350  0.06960  Biso   1.000  H
  H22      1.0000 0.48750  0.77870  0.93100  Biso   1.000  H
  H23      1.0000 0.19740  0.88180  0.03330  Biso   1.000  H
  H24      1.0000 0.92460  0.61690  0.81400  Biso   1.000  H
  H25      1.0000 0.93870  0.33680  0.38030  Biso   1.000  H
  H26      1.0000 0.09430  0.10000  0.14360  Biso   1.000  H
  H27      1.0000 0.12940  0.58920  0.42960  Biso   1.000  H
  H28      1.0000 0.73070  0.78580  0.33280  Biso   1.000  H
  H29      1.0000 0.15190  0.10920  0.25610  Biso   1.000  H
  H30      1.0000 0.42120  0.72360  0.21510  Biso   1.000  H
  H31      1.0000 0.70480  0.35530  0.33270  Biso   1.000  H
  H32      1.0000 0.40570  0.90720  0.28840  Biso   1.000  H
  H33      1.0000 0.18950  0.71350  0.56960  Biso   1.000  H
  H34      1.0000 0.01250  0.77870  0.43100  Biso   1.000  H
  H35      1.0000 0.30260  0.88180  0.53330  Biso   1.000  H
  H36      1.0000 0.57540  0.61690  0.31400  Biso   1.000  H
  H37      1.0000 0.43870  0.66320  0.11970  Biso   1.000  H
  H38      1.0000 0.59430  0.90000  0.35640  Biso   1.000  H
  H39      1.0000 0.62940  0.41080  0.07040  Biso   1.000  H
  H40      1.0000 0.23070  0.21420  0.16720  Biso   1.000  H
  H41      1.0000 0.65190  0.89080  0.24390  Biso   1.000  H
  H42      1.0000 0.92120  0.27640  0.28490  Biso   1.000  H
  H43      1.0000 0.20480  0.64470  0.16730  Biso   1.000  H
  H44      1.0000 0.90570  0.09280  0.21160  Biso   1.000  H
  H45      1.0000 0.68950  0.28650  0.93040  Biso   1.000  H
  H46      1.0000 0.51250  0.22130  0.06900  Biso   1.000  H
  H47      1.0000 0.80260  0.11820  0.96670  Biso   1.000  H
  H48      1.0000 0.07540  0.38310  0.18600  Biso   1.000  H
  W1       1.0000 0.86075  0.89803  0.49960  Biso   1.000  W
  W2       1.0000 0.66606  0.58122  0.72264  Biso   1.000  W
  W3       1.0000 0.84403  0.00597  0.59024  Biso   1.000  W
  W4       1.0000 0.48509  0.55616  0.65974  Biso   1.000  W
  W5       1.0000 0.94147  0.74706  0.55248  Biso   1.000  W
  W6       1.0000 0.68226  0.47296  0.63113  Biso   1.000  W
  W7       1.0000 0.92768  0.85336  0.64219  Biso   1.000  W
  W8       1.0000 0.53478  0.91615  0.61055  Biso   1.000  W
  W9       1.0000 0.74411  0.71679  0.48601  Biso   1.000  W
  W10      1.0000 0.86755  0.58924  0.60376  Biso   1.000  W
  W11      1.0000 0.66250  0.97966  0.52777  Biso   1.000  W
  W12      1.0000 0.71132  0.94094  0.67259  Biso   1.000  W
  W13      1.0000 0.46574  0.75757  0.66219  Biso   1.000  W
  W14      1.0000 0.85531  0.69410  0.69394  Biso   1.000  W
  W15      1.0000 0.54995  0.79870  0.51366  Biso   1.000  W
  W16      1.0000 0.64172  0.78187  0.72460  Biso   1.000  W
  W17      1.0000 0.48128  0.64011  0.56433  Biso   1.000  W
  W18      1.0000 0.67395  0.55802  0.53716  Biso   1.000  W
  W19      1.0000 0.36075  0.10197  0.00040  Biso   1.000  W
  W20      1.0000 0.16606  0.41878  0.77736  Biso   1.000  W
  W21      1.0000 0.34403  0.99403  0.90976  Biso   1.000  W
  W22      1.0000 0.98509  0.44384  0.84026  Biso   1.000  W
  W23      1.0000 0.44147  0.25294  0.94752  Biso   1.000  W
  W24      1.0000 0.18226  0.52704  0.86887  Biso   1.000  W
  W25      1.0000 0.42768  0.14664  0.85781  Biso   1.000  W
  W26      1.0000 0.03478  0.08385  0.88945  Biso   1.000  W
  W27      1.0000 0.24411  0.28321  0.01399  Biso   1.000  W
  W28      1.0000 0.36755  0.41076  0.89624  Biso   1.000  W
  W29      1.0000 0.16250  0.02034  0.97223  Biso   1.000  W
  W30      1.0000 0.21132  0.05906  0.82741  Biso   1.000  W
  W31      1.0000 0.96574  0.24243  0.83781  Biso   1.000  W
  W32      1.0000 0.35531  0.30590  0.80606  Biso   1.000  W
  W33      1.0000 0.04995  0.20130  0.98634  Biso   1.000  W
  W34      1.0000 0.14172  0.21813  0.77540  Biso   1.000  W
  W35      1.0000 0.98128  0.35989  0.93567  Biso   1.000  W
  W36      1.0000 0.17395  0.44198  0.96284  Biso   1.000  W
  W37      1.0000 0.13925  0.10197  0.50040  Biso   1.000  W
  W38      1.0000 0.33394  0.41878  0.27736  Biso   1.000  W
  W39      1.0000 0.15597  0.99403  0.40976  Biso   1.000  W
  W40      1.0000 0.51491  0.44384  0.34026  Biso   1.000  W
  W41      1.0000 0.05853  0.25294  0.44752  Biso   1.000  W
  W42      1.0000 0.31774  0.52704  0.36887  Biso   1.000  W
  W43      1.0000 0.07232  0.14664  0.35781  Biso   1.000  W
  W44      1.0000 0.46522  0.08385  0.38945  Biso   1.000  W
  W45      1.0000 0.25589  0.28321  0.51399  Biso   1.000  W
  W46      1.0000 0.13245  0.41076  0.39624  Biso   1.000  W
  W47      1.0000 0.33750  0.02034  0.47223  Biso   1.000  W
  W48      1.0000 0.28868  0.05906  0.32741  Biso   1.000  W
  W49      1.0000 0.53426  0.24243  0.33781  Biso   1.000  W
  W50      1.0000 0.14469  0.30590  0.30606  Biso   1.000  W
  W51      1.0000 0.45005  0.20130  0.48634  Biso   1.000  W
  W52      1.0000 0.35828  0.21813  0.27540  Biso   1.000  W
  W53      1.0000 0.51872  0.35989  0.43567  Biso   1.000  W
  W54      1.0000 0.32605  0.44198  0.46284  Biso   1.000  W
  W55      1.0000 0.63925  0.89803  0.99960  Biso   1.000  W
  W56      1.0000 0.83394  0.58122  0.22264  Biso   1.000  W
  W57      1.0000 0.65597  0.00597  0.09024  Biso   1.000  W
  W58      1.0000 0.01491  0.55616  0.15974  Biso   1.000  W
  W59      1.0000 0.55853  0.74706  0.05248  Biso   1.000  W
  W60      1.0000 0.81774  0.47296  0.13113  Biso   1.000  W
  W61      1.0000 0.57232  0.85336  0.14219  Biso   1.000  W
  W62      1.0000 0.96522  0.91615  0.11055  Biso   1.000  W
  W63      1.0000 0.75589  0.71679  0.98601  Biso   1.000  W
  W64      1.0000 0.63245  0.58924  0.10376  Biso   1.000  W
  W65      1.0000 0.83750  0.97966  0.02777  Biso   1.000  W
  W66      1.0000 0.78868  0.94094  0.17259  Biso   1.000  W
  W67      1.0000 0.03426  0.75757  0.16219  Biso   1.000  W
  W68      1.0000 0.64469  0.69410  0.19394  Biso   1.000  W
  W69      1.0000 0.95005  0.79870  0.01366  Biso   1.000  W
  W70      1.0000 0.85828  0.78187  0.22460  Biso   1.000  W
  W71      1.0000 0.01872  0.64011  0.06433  Biso   1.000  W
  W72      1.0000 0.82605  0.55802  0.03716  Biso   1.000  W
  C1       1.0000 0.11130  0.64340  0.63080  Biso   1.000  C
  C2       1.0000 0.88300  0.91040  0.83190  Biso   1.000  C
  C3       1.0000 0.91090  0.37440  0.57520  Biso   1.000  C
  C4       1.0000 0.29310  0.26080  0.66720  Biso   1.000  C
  C5       1.0000 0.85010  0.90610  0.77170  Biso   1.000  C
  C6       1.0000 0.59720  0.23020  0.77290  Biso   1.000  C
  C7       1.0000 0.23840  0.63400  0.65660  Biso   1.000  C
  C8       1.0000 0.60460  0.13010  0.73290  Biso   1.000  C
  C9       1.0000 0.78210  0.24180  0.43100  Biso   1.000  C
  C10      1.0000 0.97390  0.27090  0.57410  Biso   1.000  C
  C11      1.0000 0.72110  0.15100  0.45060  Biso   1.000  C
  C12      1.0000 0.37650  0.35280  0.67750  Biso   1.000  C
  C13      1.0000 0.61130  0.35660  0.86920  Biso   1.000  C
  C14      1.0000 0.38300  0.08960  0.66810  Biso   1.000  C
  C15      1.0000 0.41090  0.62560  0.92480  Biso   1.000  C
  C16      1.0000 0.79310  0.73920  0.83280  Biso   1.000  C
  C17      1.0000 0.35010  0.09390  0.72830  Biso   1.000  C
  C18      1.0000 0.09720  0.76980  0.72710  Biso   1.000  C
  C19      1.0000 0.73840  0.36600  0.84340  Biso   1.000  C
  C20      1.0000 0.10460  0.86990  0.76710  Biso   1.000  C
  C21      1.0000 0.28210  0.75820  0.06900  Biso   1.000  C
  C22      1.0000 0.47390  0.72910  0.92590  Biso   1.000  C
  C23      1.0000 0.22110  0.84900  0.04940  Biso   1.000  C
  C24      1.0000 0.87650  0.64720  0.82250  Biso   1.000  C
  C25      1.0000 0.88870  0.35660  0.36920  Biso   1.000  C
  C26      1.0000 0.11700  0.08960  0.16810  Biso   1.000  C
  C27      1.0000 0.08910  0.62560  0.42480  Biso   1.000  C
  C28      1.0000 0.70690  0.73920  0.33280  Biso   1.000  C
  C29      1.0000 0.14990  0.09390  0.22830  Biso   1.000  C
  C30      1.0000 0.40280  0.76980  0.22710  Biso   1.000  C
  C31      1.0000 0.76160  0.36600  0.34340  Biso   1.000  C
  C32      1.0000 0.39540  0.86990  0.26710  Biso   1.000  C
  C33      1.0000 0.21790  0.75820  0.56900  Biso   1.000  C
  C34      1.0000 0.02610  0.72910  0.42590  Biso   1.000  C
  C35      1.0000 0.27890  0.84900  0.54940  Biso   1.000  C
  C36      1.0000 0.62350  0.64720  0.32250  Biso   1.000  C
  C37      1.0000 0.38870  0.64340  0.13080  Biso   1.000  C
  C38      1.0000 0.61700  0.91040  0.33190  Biso   1.000  C
  C39      1.0000 0.58910  0.37440  0.07520  Biso   1.000  C
  C40      1.0000 0.20690  0.26080  0.16720  Biso   1.000  C
  C41      1.0000 0.64990  0.90610  0.27170  Biso   1.000  C
  C42      1.0000 0.90280  0.23020  0.27290  Biso   1.000  C
  C43      1.0000 0.26160  0.63400  0.15660  Biso   1.000  C
  C44      1.0000 0.89540  0.13010  0.23290  Biso   1.000  C
  C45      1.0000 0.71790  0.24180  0.93100  Biso   1.000  C
  C46      1.0000 0.52610  0.27090  0.07410  Biso   1.000  C
  C47      1.0000 0.77890  0.15100  0.95060  Biso   1.000  C
  C48      1.0000 0.12350  0.35280  0.17750  Biso   1.000  C
  N1       1.0000 0.83630  0.97010  0.82780  Biso   1.000  N
  N2       1.0000 0.12270  0.57440  0.63140  Biso   1.000  N
  N3       1.0000 0.66460  0.12670  0.76210  Biso   1.000  N
  N4       1.0000 0.89310  0.86860  0.79810  Biso   1.000  N
  N5       1.0000 0.66060  0.19280  0.78770  Biso   1.000  N
  N6       1.0000 0.20830  0.56780  0.64820  Biso   1.000  N
  N7       1.0000 0.37410  0.28340  0.68140  Biso   1.000  N
  N8       1.0000 0.25270  0.31610  0.65310  Biso   1.000  N
  N9       1.0000 0.02660  0.32050  0.59460  Biso   1.000  N
  N10      1.0000 0.75880  0.21580  0.46590  Biso   1.000  N
  N11      1.0000 0.72140  0.13930  0.41180  Biso   1.000  N
  N12      1.0000 0.76110  0.19850  0.39950  Biso   1.000  N
  N13      1.0000 0.89830  0.30060  0.56140  Biso   1.000  N
  N14      1.0000 0.30400  0.37610  0.66020  Biso   1.000  N
  N15      1.0000 0.18160  0.68470  0.64860  Biso   1.000  N
  N16      1.0000 0.98400  0.38710  0.59500  Biso   1.000  N
  N17      1.0000 0.56050  0.19420  0.73790  Biso   1.000  N
  N18      1.0000 0.81190  0.96580  0.78920  Biso   1.000  N
  N19      1.0000 0.33630  0.02990  0.67220  Biso   1.000  N
  N20      1.0000 0.62270  0.42560  0.86860  Biso   1.000  N
  N21      1.0000 0.16460  0.87330  0.73790  Biso   1.000  N
  N22      1.0000 0.39310  0.13140  0.70190  Biso   1.000  N
  N23      1.0000 0.16060  0.80720  0.71230  Biso   1.000  N
  N24      1.0000 0.70830  0.43220  0.85180  Biso   1.000  N
  N25      1.0000 0.87410  0.71660  0.81860  Biso   1.000  N
  N26      1.0000 0.75270  0.68390  0.84690  Biso   1.000  N
  N27      1.0000 0.52660  0.67950  0.90540  Biso   1.000  N
  N28      1.0000 0.25880  0.78420  0.03410  Biso   1.000  N
  N29      1.0000 0.22140  0.86070  0.08820  Biso   1.000  N
  N30      1.0000 0.26110  0.80150  0.10050  Biso   1.000  N
  N31      1.0000 0.39830  0.69940  0.93860  Biso   1.000  N
  N32      1.0000 0.80400  0.62390  0.83980  Biso   1.000  N
  N33      1.0000 0.68160  0.31530  0.85140  Biso   1.000  N
  N34      1.0000 0.48400  0.61290  0.90500  Biso   1.000  N
  N35      1.0000 0.06050  0.80580  0.76210  Biso   1.000  N
  N36      1.0000 0.31190  0.03420  0.71080  Biso   1.000  N
  N37      1.0000 0.16370  0.02990  0.17220  Biso   1.000  N
  N38      1.0000 0.87730  0.42560  0.36860  Biso   1.000  N
  N39      1.0000 0.33540  0.87330  0.23790  Biso   1.000  N
  N40      1.0000 0.10690  0.13140  0.20190  Biso   1.000  N
  N41      1.0000 0.33940  0.80720  0.21230  Biso   1.000  N
  N42      1.0000 0.79170  0.43220  0.35180  Biso   1.000  N
  N43      1.0000 0.62590  0.71660  0.31860  Biso   1.000  N
  N44      1.0000 0.74730  0.68390  0.34690  Biso   1.000  N
  N45      1.0000 0.97340  0.67950  0.40540  Biso   1.000  N
  N46      1.0000 0.24120  0.78420  0.53410  Biso   1.000  N
  N47      1.0000 0.27860  0.86070  0.58820  Biso   1.000  N
  N48      1.0000 0.23890  0.80150  0.60050  Biso   1.000  N
  N49      1.0000 0.10170  0.69940  0.43860  Biso   1.000  N
  N50      1.0000 0.69600  0.62390  0.33980  Biso   1.000  N
  N51      1.0000 0.81840  0.31530  0.35140  Biso   1.000  N
  N52      1.0000 0.01600  0.61290  0.40500  Biso   1.000  N
  N53      1.0000 0.43950  0.80580  0.26210  Biso   1.000  N
  N54      1.0000 0.18810  0.03420  0.21080  Biso   1.000  N
  N55      1.0000 0.66370  0.97010  0.32780  Biso   1.000  N
  N56      1.0000 0.37730  0.57440  0.13140  Biso   1.000  N
  N57      1.0000 0.83540  0.12670  0.26210  Biso   1.000  N
  N58      1.0000 0.60690  0.86860  0.29810  Biso   1.000  N
  N59      1.0000 0.83940  0.19280  0.28770  Biso   1.000  N
  N60      1.0000 0.29170  0.56780  0.14820  Biso   1.000  N
  N61      1.0000 0.12590  0.28340  0.18140  Biso   1.000  N
  N62      1.0000 0.24730  0.31610  0.15310  Biso   1.000  N
  N63      1.0000 0.47340  0.32050  0.09460  Biso   1.000  N
  N64      1.0000 0.74120  0.21580  0.96590  Biso   1.000  N
  N65      1.0000 0.77860  0.13930  0.91180  Biso   1.000  N
  N66      1.0000 0.73890  0.19850  0.89950  Biso   1.000  N
  N67      1.0000 0.60170  0.30060  0.06140  Biso   1.000  N
  N68      1.0000 0.19600  0.37610  0.16020  Biso   1.000  N
  N69      1.0000 0.31840  0.68470  0.14860  Biso   1.000  N
  N70      1.0000 0.51600  0.38710  0.09500  Biso   1.000  N
  N71      1.0000 0.93950  0.19420  0.23790  Biso   1.000  N
  N72      1.0000 0.68810  0.96580  0.28920  Biso   1.000  N
  O1       1.0000 0.77780  0.67470  0.43890  Biso   1.000  O
  O2       1.0000 0.73720  0.09630  0.83190  Biso   1.000  O
  O3       1.0000 0.92550  0.90950  0.45830  Biso   1.000  O
  O4       1.0000 0.13990  0.42600  0.64140  Biso   1.000  O
  O5       1.0000 0.01040  0.89030  0.67430  Biso   1.000  O
  O6       1.0000 0.85690  0.15540  0.52490  Biso   1.000  O
  O7       1.0000 0.91670  0.93630  0.61170  Biso   1.000  O
  O8       1.0000 0.69730  0.24150  0.56300  Biso   1.000  O
  O9       1.0000 0.67840  0.55690  0.76980  Biso   1.000  O
  O10      1.0000 0.76310  0.35480  0.51270  Biso   1.000  O
  O11      1.0000 0.37330  0.62660  0.54570  Biso   1.000  O
  O12      1.0000 0.46120  0.65690  0.67530  Biso   1.000  O
  O13      1.0000 0.14690  0.20690  0.60690  Biso   1.000  O
  O14      1.0000 0.77970  0.61780  0.71180  Biso   1.000  O
  O15      1.0000 0.69530  0.49180  0.69090  Biso   1.000  O
  O16      1.0000 0.61610  0.73240  0.65630  Biso   1.000  O
  O17      1.0000 0.22900  0.01690  0.59560  Biso   1.000  O
  O18      1.0000 0.45770  0.80710  0.48340  Biso   1.000  O
  O19      1.0000 0.76610  0.66960  0.63510  Biso   1.000  O
  O20      1.0000 0.45970  0.71490  0.60780  Biso   1.000  O
  O21      1.0000 0.76530  0.90180  0.55840  Biso   1.000  O
  O22      1.0000 0.05500  0.71070  0.81770  Biso   1.000  O
  O23      1.0000 0.43210  0.96230  0.61020  Biso   1.000  O
  O24      1.0000 0.54140  0.55570  0.71230  Biso   1.000  O
  O25      1.0000 0.92910  0.70070  0.73360  Biso   1.000  O
  O26      1.0000 0.70870  0.38090  0.62120  Biso   1.000  O
  O27      1.0000 0.73070  0.00410  0.71590  Biso   1.000  O
  O28      1.0000 0.49880  0.84730  0.64570  Biso   1.000  O
  O29      1.0000 0.67520  0.86310  0.61330  Biso   1.000  O
  O30      1.0000 0.59610  0.97490  0.57550  Biso   1.000  O
  O31      1.0000 0.60210  0.04310  0.50250  Biso   1.000  O
  O32      1.0000 0.69600  0.63610  0.50630  Biso   1.000  O
  O33      1.0000 0.65990  0.86940  0.70000  Biso   1.000  O
  O34      1.0000 0.91370  0.62090  0.65860  Biso   1.000  O
  O35      1.0000 0.90810  0.76690  0.66480  Biso   1.000  O
  O36      1.0000 0.79560  0.51710  0.62700  Biso   1.000  O
  O37      1.0000 0.93110  0.83360  0.52890  Biso   1.000  O
  O38      1.0000 0.64750  0.82350  0.77520  Biso   1.000  O
  O39      1.0000 0.59540  0.97160  0.65690  Biso   1.000  O
  O40      1.0000 0.85190  0.70790  0.51740  Biso   1.000  O
  O41      1.0000 0.52020  0.70820  0.53120  Biso   1.000  O
  O42      1.0000 0.76570  0.76000  0.71290  Biso   1.000  O
  O43      1.0000 0.79160  0.57580  0.55970  Biso   1.000  O
  O44      1.0000 0.54630  0.56640  0.53160  Biso   1.000  O
  O45      1.0000 0.99480  0.80380  0.59920  Biso   1.000  O
  O46      1.0000 0.82400  0.80200  0.59440  Biso   1.000  O
  O47      1.0000 0.62800  0.68170  0.73370  Biso   1.000  O
  O48      1.0000 0.76060  0.95970  0.48930  Biso   1.000  O
  O49      1.0000 0.91780  0.67240  0.58530  Biso   1.000  O
  O50      1.0000 0.74880  0.04350  0.55980  Biso   1.000  O
  O51      1.0000 0.51610  0.78920  0.71530  Biso   1.000  O
  O52      1.0000 0.65500  0.49630  0.57950  Biso   1.000  O
  O53      1.0000 0.03710  0.71120  0.52790  Biso   1.000  O
  O54      1.0000 0.55420  0.47070  0.64160  Biso   1.000  O
  O55      1.0000 0.62900  0.65170  0.58830  Biso   1.000  O
  O56      1.0000 0.82270  0.89060  0.66910  Biso   1.000  O
  O57      1.0000 0.90200  0.97820  0.53840  Biso   1.000  O
  O58      1.0000 0.90090  0.08780  0.60640  Biso   1.000  O
  O59      1.0000 0.68900  0.77950  0.54630  Biso   1.000  O
  O60      1.0000 0.62730  0.74930  0.47330  Biso   1.000  O
  O61      1.0000 0.76380  0.99720  0.63270  Biso   1.000  O
  O62      1.0000 0.51630  0.84640  0.56560  Biso   1.000  O
  O63      1.0000 0.95900  0.53090  0.58720  Biso   1.000  O
  O64      1.0000 0.37980  0.51710  0.66830  Biso   1.000  O
  O65      1.0000 0.70050  0.48910  0.49860  Biso   1.000  O
  O66      1.0000 0.47270  0.57460  0.60530  Biso   1.000  O
  O67      1.0000 0.60920  0.89110  0.50680  Biso   1.000  O
  O68      1.0000 0.35450  0.77740  0.67340  Biso   1.000  O
  O69      1.0000 0.63350  0.59580  0.65300  Biso   1.000  O
  O70      1.0000 0.79340  0.81420  0.48110  Biso   1.000  O
  O71      1.0000 0.27780  0.32530  0.06110  Biso   1.000  O
  O72      1.0000 0.23720  0.90370  0.66810  Biso   1.000  O
  O73      1.0000 0.42550  0.09050  0.04170  Biso   1.000  O
  O74      1.0000 0.63990  0.57400  0.85860  Biso   1.000  O
  O75      1.0000 0.51040  0.10970  0.82570  Biso   1.000  O
  O76      1.0000 0.35690  0.84460  0.97510  Biso   1.000  O
  O77      1.0000 0.41670  0.06370  0.88830  Biso   1.000  O
  O78      1.0000 0.19730  0.75850  0.93700  Biso   1.000  O
  O79      1.0000 0.17840  0.44310  0.73020  Biso   1.000  O
  O80      1.0000 0.26310  0.64520  0.98730  Biso   1.000  O
  O81      1.0000 0.87330  0.37340  0.95430  Biso   1.000  O
  O82      1.0000 0.96120  0.34310  0.82470  Biso   1.000  O
  O83      1.0000 0.64690  0.79310  0.89310  Biso   1.000  O
  O84      1.0000 0.27970  0.38220  0.78820  Biso   1.000  O
  O85      1.0000 0.19530  0.50820  0.80910  Biso   1.000  O
  O86      1.0000 0.11610  0.26760  0.84370  Biso   1.000  O
  O87      1.0000 0.72900  0.98310  0.90440  Biso   1.000  O
  O88      1.0000 0.95770  0.19290  0.01660  Biso   1.000  O
  O89      1.0000 0.26610  0.33040  0.86490  Biso   1.000  O
  O90      1.0000 0.95970  0.28510  0.89220  Biso   1.000  O
  O91      1.0000 0.26530  0.09820  0.94160  Biso   1.000  O
  O92      1.0000 0.55500  0.28930  0.68230  Biso   1.000  O
  O93      1.0000 0.93210  0.03770  0.88980  Biso   1.000  O
  O94      1.0000 0.04140  0.44430  0.78770  Biso   1.000  O
  O95      1.0000 0.42910  0.29930  0.76640  Biso   1.000  O
  O96      1.0000 0.20870  0.61910  0.87880  Biso   1.000  O
  O97      1.0000 0.23070  0.99590  0.78410  Biso   1.000  O
  O98      1.0000 0.99880  0.15270  0.85430  Biso   1.000  O
  O99      1.0000 0.17520  0.13690  0.88670  Biso   1.000  O
  O100     1.0000 0.09610  0.02510  0.92450  Biso   1.000  O
  O101     1.0000 0.10210  0.95690  0.99750  Biso   1.000  O
  O102     1.0000 0.19600  0.36390  0.99370  Biso   1.000  O
  O103     1.0000 0.15990  0.13060  0.80000  Biso   1.000  O
  O104     1.0000 0.41370  0.37910  0.84140  Biso   1.000  O
  O105     1.0000 0.40810  0.23310  0.83520  Biso   1.000  O
  O106     1.0000 0.29560  0.48290  0.87300  Biso   1.000  O
  O107     1.0000 0.43110  0.16640  0.97110  Biso   1.000  O
  O108     1.0000 0.14750  0.17650  0.72480  Biso   1.000  O
  O109     1.0000 0.09540  0.02840  0.84310  Biso   1.000  O
  O110     1.0000 0.35190  0.29210  0.98260  Biso   1.000  O
  O111     1.0000 0.02020  0.29180  0.96880  Biso   1.000  O
  O112     1.0000 0.26570  0.24000  0.78710  Biso   1.000  O
  O113     1.0000 0.29160  0.42420  0.94030  Biso   1.000  O
  O114     1.0000 0.04630  0.43360  0.96840  Biso   1.000  O
  O115     1.0000 0.49480  0.19620  0.90080  Biso   1.000  O
  O116     1.0000 0.32400  0.19800  0.90560  Biso   1.000  O
  O117     1.0000 0.12800  0.31830  0.76630  Biso   1.000  O
  O118     1.0000 0.26060  0.04030  0.01070  Biso   1.000  O
  O119     1.0000 0.41780  0.32760  0.91470  Biso   1.000  O
  O120     1.0000 0.24880  0.95650  0.94020  Biso   1.000  O
  O121     1.0000 0.01610  0.21080  0.78470  Biso   1.000  O
  O122     1.0000 0.15500  0.50370  0.92050  Biso   1.000  O
  O123     1.0000 0.53710  0.28880  0.97210  Biso   1.000  O
  O124     1.0000 0.05420  0.52930  0.85840  Biso   1.000  O
  O125     1.0000 0.12900  0.34830  0.91170  Biso   1.000  O
  O126     1.0000 0.32270  0.10940  0.83090  Biso   1.000  O
  O127     1.0000 0.40200  0.02180  0.96160  Biso   1.000  O
  O128     1.0000 0.40090  0.91220  0.89360  Biso   1.000  O
  O129     1.0000 0.18900  0.22050  0.95370  Biso   1.000  O
  O130     1.0000 0.12730  0.25070  0.02670  Biso   1.000  O
  O131     1.0000 0.26380  0.00280  0.86730  Biso   1.000  O
  O132     1.0000 0.01630  0.15360  0.93440  Biso   1.000  O
  O133     1.0000 0.45900  0.46910  0.91280  Biso   1.000  O
  O134     1.0000 0.87980  0.48290  0.83170  Biso   1.000  O
  O135     1.0000 0.20050  0.51090  0.00140  Biso   1.000  O
  O136     1.0000 0.97270  0.42540  0.89470  Biso   1.000  O
  O137     1.0000 0.10920  0.10890  0.99320  Biso   1.000  O
  O138     1.0000 0.85450  0.22260  0.82660  Biso   1.000  O
  O139     1.0000 0.13350  0.40420  0.84700  Biso   1.000  O
  O140     1.0000 0.29340  0.18580  0.01890  Biso   1.000  O
  O141     1.0000 0.22220  0.32530  0.56110  Biso   1.000  O
  O142     1.0000 0.26280  0.90370  0.16810  Biso   1.000  O
  O143     1.0000 0.07450  0.09050  0.54170  Biso   1.000  O
  O144     1.0000 0.86010  0.57400  0.35860  Biso   1.000  O
  O145     1.0000 0.98960  0.10970  0.32570  Biso   1.000  O
  O146     1.0000 0.14310  0.84460  0.47510  Biso   1.000  O
  O147     1.0000 0.08330  0.06370  0.38830  Biso   1.000  O
  O148     1.0000 0.30270  0.75850  0.43700  Biso   1.000  O
  O149     1.0000 0.32160  0.44310  0.23020  Biso   1.000  O
  O150     1.0000 0.23690  0.64520  0.48730  Biso   1.000  O
  O151     1.0000 0.62670  0.37340  0.45430  Biso   1.000  O
  O152     1.0000 0.53880  0.34310  0.32470  Biso   1.000  O
  O153     1.0000 0.85310  0.79310  0.39310  Biso   1.000  O
  O154     1.0000 0.22030  0.38220  0.28820  Biso   1.000  O
  O155     1.0000 0.30470  0.50820  0.30910  Biso   1.000  O
  O156     1.0000 0.38390  0.26760  0.34370  Biso   1.000  O
  O157     1.0000 0.77100  0.98310  0.40440  Biso   1.000  O
  O158     1.0000 0.54230  0.19290  0.51660  Biso   1.000  O
  O159     1.0000 0.23390  0.33040  0.36490  Biso   1.000  O
  O160     1.0000 0.54030  0.28510  0.39220  Biso   1.000  O
  O161     1.0000 0.23470  0.09820  0.44160  Biso   1.000  O
  O162     1.0000 0.94500  0.28930  0.18230  Biso   1.000  O
  O163     1.0000 0.56790  0.03770  0.38980  Biso   1.000  O
  O164     1.0000 0.45860  0.44430  0.28770  Biso   1.000  O
  O165     1.0000 0.07090  0.29930  0.26640  Biso   1.000  O
  O166     1.0000 0.29130  0.61910  0.37880  Biso   1.000  O
  O167     1.0000 0.26930  0.99590  0.28410  Biso   1.000  O
  O168     1.0000 0.50120  0.15270  0.35430  Biso   1.000  O
  O169     1.0000 0.32480  0.13690  0.38670  Biso   1.000  O
  O170     1.0000 0.40390  0.02510  0.42450  Biso   1.000  O
  O171     1.0000 0.39790  0.95690  0.49750  Biso   1.000  O
  O172     1.0000 0.30400  0.36390  0.49370  Biso   1.000  O
  O173     1.0000 0.34010  0.13060  0.30000  Biso   1.000  O
  O174     1.0000 0.08630  0.37910  0.34140  Biso   1.000  O
  O175     1.0000 0.09190  0.23310  0.33520  Biso   1.000  O
  O176     1.0000 0.20440  0.48290  0.37300  Biso   1.000  O
  O177     1.0000 0.06890  0.16640  0.47110  Biso   1.000  O
  O178     1.0000 0.35250  0.17650  0.22480  Biso   1.000  O
  O179     1.0000 0.40460  0.02840  0.34310  Biso   1.000  O
  O180     1.0000 0.14810  0.29210  0.48260  Biso   1.000  O
  O181     1.0000 0.47980  0.29180  0.46880  Biso   1.000  O
  O182     1.0000 0.23430  0.24000  0.28710  Biso   1.000  O
  O183     1.0000 0.20840  0.42420  0.44030  Biso   1.000  O
  O184     1.0000 0.45370  0.43360  0.46840  Biso   1.000  O
  O185     1.0000 0.00520  0.19620  0.40080  Biso   1.000  O
  O186     1.0000 0.17600  0.19800  0.40560  Biso   1.000  O
  O187     1.0000 0.37200  0.31830  0.26630  Biso   1.000  O
  O188     1.0000 0.23940  0.04030  0.51070  Biso   1.000  O
  O189     1.0000 0.08220  0.32760  0.41470  Biso   1.000  O
  O190     1.0000 0.25120  0.95650  0.44020  Biso   1.000  O
  O191     1.0000 0.48390  0.21080  0.28470  Biso   1.000  O
  O192     1.0000 0.34500  0.50370  0.42050  Biso   1.000  O
  O193     1.0000 0.96290  0.28880  0.47210  Biso   1.000  O
  O194     1.0000 0.44580  0.52930  0.35840  Biso   1.000  O
  O195     1.0000 0.37100  0.34830  0.41170  Biso   1.000  O
  O196     1.0000 0.17730  0.10940  0.33090  Biso   1.000  O
  O197     1.0000 0.09800  0.02180  0.46160  Biso   1.000  O
  O198     1.0000 0.09910  0.91220  0.39360  Biso   1.000  O
  O199     1.0000 0.31100  0.22050  0.45370  Biso   1.000  O
  O200     1.0000 0.37270  0.25070  0.52670  Biso   1.000  O
  O201     1.0000 0.23620  0.00280  0.36730  Biso   1.000  O
  O202     1.0000 0.48370  0.15360  0.43440  Biso   1.000  O
  O203     1.0000 0.04100  0.46910  0.41280  Biso   1.000  O
  O204     1.0000 0.62020  0.48290  0.33170  Biso   1.000  O
  O205     1.0000 0.29950  0.51090  0.50140  Biso   1.000  O
  O206     1.0000 0.52730  0.42540  0.39470  Biso   1.000  O
  O207     1.0000 0.39080  0.10890  0.49320  Biso   1.000  O
  O208     1.0000 0.64550  0.22260  0.32660  Biso   1.000  O
  O209     1.0000 0.36650  0.40420  0.34700  Biso   1.000  O
  O210     1.0000 0.20660  0.18580  0.51890  Biso   1.000  O
  O211     1.0000 0.72220  0.67470  0.93890  Biso   1.000  O
  O212     1.0000 0.76280  0.09630  0.33190  Biso   1.000  O
  O213     1.0000 0.57450  0.90950  0.95830  Biso   1.000  O
  O214     1.0000 0.36010  0.42600  0.14140  Biso   1.000  O
  O215     1.0000 0.48960  0.89030  0.17430  Biso   1.000  O
  O216     1.0000 0.64310  0.15540  0.02490  Biso   1.000  O
  O217     1.0000 0.58330  0.93630  0.11170  Biso   1.000  O
  O218     1.0000 0.80270  0.24150  0.06300  Biso   1.000  O
  O219     1.0000 0.82160  0.55690  0.26980  Biso   1.000  O
  O220     1.0000 0.73690  0.35480  0.01270  Biso   1.000  O
  O221     1.0000 0.12670  0.62660  0.04570  Biso   1.000  O
  O222     1.0000 0.03880  0.65690  0.17530  Biso   1.000  O
  O223     1.0000 0.35310  0.20690  0.10690  Biso   1.000  O
  O224     1.0000 0.72030  0.61780  0.21180  Biso   1.000  O
  O225     1.0000 0.80470  0.49180  0.19090  Biso   1.000  O
  O226     1.0000 0.88390  0.73240  0.15630  Biso   1.000  O
  O227     1.0000 0.27100  0.01690  0.09560  Biso   1.000  O
  O228     1.0000 0.04230  0.80710  0.98340  Biso   1.000  O
  O229     1.0000 0.73390  0.66960  0.13510  Biso   1.000  O
  O230     1.0000 0.04030  0.71490  0.10780  Biso   1.000  O
  O231     1.0000 0.73470  0.90180  0.05840  Biso   1.000  O
  O232     1.0000 0.44500  0.71070  0.31770  Biso   1.000  O
  O233     1.0000 0.06790  0.96230  0.11020  Biso   1.000  O
  O234     1.0000 0.95860  0.55570  0.21230  Biso   1.000  O
  O235     1.0000 0.57090  0.70070  0.23360  Biso   1.000  O
  O236     1.0000 0.79130  0.38090  0.12120  Biso   1.000  O
  O237     1.0000 0.76930  0.00410  0.21590  Biso   1.000  O
  O238     1.0000 0.00120  0.84730  0.14570  Biso   1.000  O
  O239     1.0000 0.82480  0.86310  0.11330  Biso   1.000  O
  O240     1.0000 0.90390  0.97490  0.07550  Biso   1.000  O
  O241     1.0000 0.89790  0.04310  0.00250  Biso   1.000  O
  O242     1.0000 0.80400  0.63610  0.00630  Biso   1.000  O
  O243     1.0000 0.84010  0.86940  0.20000  Biso   1.000  O
  O244     1.0000 0.58630  0.62090  0.15860  Biso   1.000  O
  O245     1.0000 0.59190  0.76690  0.16480  Biso   1.000  O
  O246     1.0000 0.70440  0.51710  0.12700  Biso   1.000  O
  O247     1.0000 0.56890  0.83360  0.02890  Biso   1.000  O
  O248     1.0000 0.85250  0.82350  0.27520  Biso   1.000  O
  O249     1.0000 0.90460  0.97160  0.15690  Biso   1.000  O
  O250     1.0000 0.64810  0.70790  0.01740  Biso   1.000  O
  O251     1.0000 0.97980  0.70820  0.03120  Biso   1.000  O
  O252     1.0000 0.73430  0.76000  0.21290  Biso   1.000  O
  O253     1.0000 0.70840  0.57580  0.05970  Biso   1.000  O
  O254     1.0000 0.95370  0.56640  0.03160  Biso   1.000  O
  O255     1.0000 0.50520  0.80380  0.09920  Biso   1.000  O
  O256     1.0000 0.67600  0.80200  0.09440  Biso   1.000  O
  O257     1.0000 0.87200  0.68170  0.23370  Biso   1.000  O
  O258     1.0000 0.73940  0.95970  0.98930  Biso   1.000  O
  O259     1.0000 0.58220  0.67240  0.08530  Biso   1.000  O
  O260     1.0000 0.75120  0.04350  0.05980  Biso   1.000  O
  O261     1.0000 0.98390  0.78920  0.21530  Biso   1.000  O
  O262     1.0000 0.84500  0.49630  0.07950  Biso   1.000  O
  O263     1.0000 0.46290  0.71120  0.02790  Biso   1.000  O
  O264     1.0000 0.94580  0.47070  0.14160  Biso   1.000  O
  O265     1.0000 0.87100  0.65170  0.08830  Biso   1.000  O
  O266     1.0000 0.67730  0.89060  0.16910  Biso   1.000  O
  O267     1.0000 0.59800  0.97820  0.03840  Biso   1.000  O
  O268     1.0000 0.59910  0.08780  0.10640  Biso   1.000  O
  O269     1.0000 0.81100  0.77950  0.04630  Biso   1.000  O
  O270     1.0000 0.87270  0.74930  0.97330  Biso   1.000  O
  O271     1.0000 0.73620  0.99720  0.13270  Biso   1.000  O
  O272     1.0000 0.98370  0.84640  0.06560  Biso   1.000  O
  O273     1.0000 0.54100  0.53090  0.08720  Biso   1.000  O
  O274     1.0000 0.12020  0.51710  0.16830  Biso   1.000  O
  O275     1.0000 0.79950  0.48910  0.99860  Biso   1.000  O
  O276     1.0000 0.02730  0.57460  0.10530  Biso   1.000  O
  O277     1.0000 0.89080  0.89110  0.00680  Biso   1.000  O
  O278     1.0000 0.14550  0.77740  0.17340  Biso   1.000  O
  O279     1.0000 0.86650  0.59580  0.15300  Biso   1.000  O
  O280     1.0000 0.70660  0.81420  0.98110  Biso   1.000  O
