data_image0
_cell_length_a       8.136
_cell_length_b       21.3945
_cell_length_c       22.8798
_cell_angle_alpha    82.374
_cell_angle_beta     82.746
_cell_angle_gamma    79.437

_symmetry_space_group_name_H-M    P 1
_symmetry_int_tables_number       1

loop_
  _symmetry_equiv_pos_as_xyz
  'x, y, z'

loop_
  _atom_site_label
  _atom_site_occupancy
  _atom_site_fract_x
  _atom_site_fract_y
  _atom_site_fract_z
  _atom_site_thermal_displace_type
  _atom_site_B_iso_or_equiv
  _atom_site_type_symbol
  Tb1      1.0000 0.73836  0.09431  0.53520  Biso   1.000  Tb
  Tb2      1.0000 0.96626  0.24779  0.59615  Biso   1.000  Tb
  Tb3      1.0000 0.70057  0.57590  0.21622  Biso   1.000  Tb
  Tb4      1.0000 0.11363  0.52830  0.06760  Biso   1.000  Tb
  Tb5      1.0000 0.26164  0.90569  0.46480  Biso   1.000  Tb
  Tb6      1.0000 0.03374  0.75221  0.40385  Biso   1.000  Tb
  Tb7      1.0000 0.29943  0.42410  0.78378  Biso   1.000  Tb
  Tb8      1.0000 0.88637  0.47170  0.93240  Biso   1.000  Tb
  H1       1.0000 0.41590  0.04240  0.55200  Biso   1.000  H
  H2       1.0000 0.46400  0.05610  0.60250  Biso   1.000  H
  H3       1.0000 0.86970  0.96770  0.56390  Biso   1.000  H
  H4       1.0000 0.70770  0.96190  0.58380  Biso   1.000  H
  H5       1.0000 0.28870  0.25600  0.54820  Biso   1.000  H
  H6       1.0000 0.30670  0.26290  0.60560  Biso   1.000  H
  H7       1.0000 0.02640  0.37270  0.60140  Biso   1.000  H
  H8       1.0000 0.09350  0.35900  0.54470  Biso   1.000  H
  H9       1.0000 0.62530  0.31290  0.60180  Biso   1.000  H
  H10      1.0000 0.67350  0.35010  0.55450  Biso   1.000  H
  H11      1.0000 0.33480  0.59210  0.23970  Biso   1.000  H
  H12      1.0000 0.38300  0.57940  0.18230  Biso   1.000  H
  H13      1.0000 0.98360  0.57740  0.28020  Biso   1.000  H
  H14      1.0000 0.98320  0.51480  0.27190  Biso   1.000  H
  H15      1.0000 0.49860  0.52540  0.31510  Biso   1.000  H
  H16      1.0000 0.65880  0.49080  0.32090  Biso   1.000  H
  H17      1.0000 0.41670  0.57250  0.09380  Biso   1.000  H
  H18      1.0000 0.48490  0.53360  0.05750  Biso   1.000  H
  H19      1.0000 0.09400  0.22990  0.37490  Biso   1.000  H
  H20      1.0000 0.73060  0.25360  0.26740  Biso   1.000  H
  H21      1.0000 0.53120  0.25520  0.34860  Biso   1.000  H
  H22      1.0000 0.94140  0.35460  0.24670  Biso   1.000  H
  H23      1.0000 0.97450  0.28620  0.06260  Biso   1.000  H
  H24      1.0000 0.05300  0.21360  0.14110  Biso   1.000  H
  H25      1.0000 0.84210  0.91020  0.28370  Biso   1.000  H
  H26      1.0000 0.58790  0.08700  0.24630  Biso   1.000  H
  H27      1.0000 0.65290  0.11440  0.33380  Biso   1.000  H
  H28      1.0000 0.46460  0.92580  0.28650  Biso   1.000  H
  H29      1.0000 0.72260  0.75480  0.18670  Biso   1.000  H
  H30      1.0000 0.77510  0.85690  0.15130  Biso   1.000  H
  H31      1.0000 0.84320  0.28230  0.92980  Biso   1.000  H
  H32      1.0000 0.74330  0.13810  0.85150  Biso   1.000  H
  H33      1.0000 0.83600  0.18590  0.76220  Biso   1.000  H
  H34      1.0000 0.48530  0.27100  0.91660  Biso   1.000  H
  H35      1.0000 0.48340  0.30960  0.10970  Biso   1.000  H
  H36      1.0000 0.64420  0.21790  0.07730  Biso   1.000  H
  H37      1.0000 0.58410  0.95760  0.44800  Biso   1.000  H
  H38      1.0000 0.53600  0.94390  0.39750  Biso   1.000  H
  H39      1.0000 0.13030  0.03230  0.43610  Biso   1.000  H
  H40      1.0000 0.29230  0.03810  0.41620  Biso   1.000  H
  H41      1.0000 0.71130  0.74400  0.45180  Biso   1.000  H
  H42      1.0000 0.69330  0.73710  0.39440  Biso   1.000  H
  H43      1.0000 0.97360  0.62730  0.39860  Biso   1.000  H
  H44      1.0000 0.90650  0.64100  0.45530  Biso   1.000  H
  H45      1.0000 0.37470  0.68710  0.39820  Biso   1.000  H
  H46      1.0000 0.32650  0.64990  0.44550  Biso   1.000  H
  H47      1.0000 0.66520  0.40790  0.76030  Biso   1.000  H
  H48      1.0000 0.61700  0.42060  0.81770  Biso   1.000  H
  H49      1.0000 0.01640  0.42260  0.71980  Biso   1.000  H
  H50      1.0000 0.01680  0.48520  0.72810  Biso   1.000  H
  H51      1.0000 0.50140  0.47460  0.68490  Biso   1.000  H
  H52      1.0000 0.34120  0.50920  0.67910  Biso   1.000  H
  H53      1.0000 0.58330  0.42750  0.90620  Biso   1.000  H
  H54      1.0000 0.51510  0.46640  0.94250  Biso   1.000  H
  H55      1.0000 0.90600  0.77010  0.62510  Biso   1.000  H
  H56      1.0000 0.26940  0.74640  0.73260  Biso   1.000  H
  H57      1.0000 0.46880  0.74480  0.65140  Biso   1.000  H
  H58      1.0000 0.05860  0.64540  0.75330  Biso   1.000  H
  H59      1.0000 0.02550  0.71380  0.93740  Biso   1.000  H
  H60      1.0000 0.94700  0.78640  0.85890  Biso   1.000  H
  H61      1.0000 0.15790  0.08980  0.71630  Biso   1.000  H
  H62      1.0000 0.41210  0.91300  0.75370  Biso   1.000  H
  H63      1.0000 0.34710  0.88560  0.66620  Biso   1.000  H
  H64      1.0000 0.53540  0.07420  0.71350  Biso   1.000  H
  H65      1.0000 0.27740  0.24520  0.81330  Biso   1.000  H
  H66      1.0000 0.22490  0.14310  0.84870  Biso   1.000  H
  H67      1.0000 0.15680  0.71770  0.07020  Biso   1.000  H
  H68      1.0000 0.25670  0.86190  0.14850  Biso   1.000  H
  H69      1.0000 0.16400  0.81410  0.23780  Biso   1.000  H
  H70      1.0000 0.51470  0.72900  0.08340  Biso   1.000  H
  H71      1.0000 0.51660  0.69040  0.89030  Biso   1.000  H
  H72      1.0000 0.35580  0.78210  0.92270  Biso   1.000  H
  C1       1.0000 0.55910  0.22950  0.46240  Biso   1.000  C
  C2       1.0000 0.69230  0.23780  0.41150  Biso   1.000  C
  C3       1.0000 0.86120  0.23290  0.41830  Biso   1.000  C
  C4       1.0000 0.98110  0.23370  0.36940  Biso   1.000  C
  C5       1.0000 0.93320  0.24000  0.31240  Biso   1.000  C
  C6       1.0000 0.76440  0.24810  0.30530  Biso   1.000  C
  C7       1.0000 0.64460  0.24820  0.35410  Biso   1.000  C
  C8       1.0000 0.91740  0.22730  0.47950  Biso   1.000  C
  C9       1.0000 0.06530  0.23170  0.25710  Biso   1.000  C
  C10      1.0000 0.00590  0.27600  0.20260  Biso   1.000  C
  C11      1.0000 0.94960  0.34110  0.20930  Biso   1.000  C
  C12      1.0000 0.90590  0.38550  0.16180  Biso   1.000  C
  C13      1.0000 0.91520  0.36500  0.10480  Biso   1.000  C
  C14      1.0000 0.96930  0.30040  0.09960  Biso   1.000  C
  C15      1.0000 0.01550  0.25640  0.14670  Biso   1.000  C
  C16      1.0000 0.84420  0.45350  0.17390  Biso   1.000  C
  C17      1.0000 0.88240  0.40780  0.05050  Biso   1.000  C
  C18      1.0000 0.24080  0.24440  0.26560  Biso   1.000  C
  C19      1.0000 0.07900  0.15980  0.24580  Biso   1.000  C
  C20      1.0000 0.78220  0.04620  0.42450  Biso   1.000  C
  C21      1.0000 0.77890  0.02820  0.36390  Biso   1.000  C
  C22      1.0000 0.84090  0.96730  0.34740  Biso   1.000  C
  C23      1.0000 0.80260  0.95130  0.29410  Biso   1.000  C
  C24      1.0000 0.70800  0.99470  0.25650  Biso   1.000  C
  C25      1.0000 0.65070  0.05680  0.27150  Biso   1.000  C
  C26      1.0000 0.68860  0.07270  0.32430  Biso   1.000  C
  C27      1.0000 0.92990  0.91570  0.38910  Biso   1.000  C
  C28      1.0000 0.66540  0.97130  0.20040  Biso   1.000  C
  C29      1.0000 0.62710  0.90240  0.21660  Biso   1.000  C
  C30      1.0000 0.51840  0.89120  0.26660  Biso   1.000  C
  C31      1.0000 0.48630  0.83110  0.28840  Biso   1.000  C
  C32      1.0000 0.57030  0.77840  0.25950  Biso   1.000  C
  C33      1.0000 0.67310  0.78910  0.20760  Biso   1.000  C
  C34      1.0000 0.70390  0.85050  0.18590  Biso   1.000  C
  C35      1.0000 0.35570  0.82610  0.34040  Biso   1.000  C
  C36      1.0000 0.57140  0.70980  0.28820  Biso   1.000  C
  C37      1.0000 0.81850  0.97640  0.15330  Biso   1.000  C
  C38      1.0000 0.50830  0.01230  0.17480  Biso   1.000  C
  C39      1.0000 0.92740  0.30100  0.72880  Biso   1.000  C
  C40      1.0000 0.89290  0.26430  0.78950  Biso   1.000  C
  C41      1.0000 0.89480  0.29320  0.84190  Biso   1.000  C
  C42      1.0000 0.83950  0.26360  0.89570  Biso   1.000  C
  C43      1.0000 0.77760  0.20610  0.90100  Biso   1.000  C
  C44      1.0000 0.78010  0.17720  0.84920  Biso   1.000  C
  C45      1.0000 0.83580  0.20590  0.79590  Biso   1.000  C
  C46      1.0000 0.96480  0.35380  0.84030  Biso   1.000  C
  C47      1.0000 0.70390  0.18010  0.96400  Biso   1.000  C
  C48      1.0000 0.59050  0.23640  0.99170  Biso   1.000  C
  C49      1.0000 0.48830  0.27940  0.95530  Biso   1.000  C
  C50      1.0000 0.39090  0.33410  0.97440  Biso   1.000  C
  C51      1.0000 0.39630  0.34750  0.03200  Biso   1.000  C
  C52      1.0000 0.48730  0.30250  0.07030  Biso   1.000  C
  C53      1.0000 0.58390  0.24750  0.05100  Biso   1.000  C
  C54      1.0000 0.28320  0.37850  0.93080  Biso   1.000  C
  C55      1.0000 0.32010  0.41240  0.04990  Biso   1.000  C
  C56      1.0000 0.85730  0.15210  0.99830  Biso   1.000  C
  C57      1.0000 0.60040  0.12770  0.96280  Biso   1.000  C
  C58      1.0000 0.44090  0.77050  0.53760  Biso   1.000  C
  C59      1.0000 0.30770  0.76220  0.58850  Biso   1.000  C
  C60      1.0000 0.13880  0.76710  0.58170  Biso   1.000  C
  C61      1.0000 0.01890  0.76630  0.63060  Biso   1.000  C
  C62      1.0000 0.06680  0.76000  0.68760  Biso   1.000  C
  C63      1.0000 0.23560  0.75190  0.69470  Biso   1.000  C
  C64      1.0000 0.35540  0.75180  0.64590  Biso   1.000  C
  C65      1.0000 0.08260  0.77270  0.52050  Biso   1.000  C
  C66      1.0000 0.93470  0.76830  0.74290  Biso   1.000  C
  C67      1.0000 0.99410  0.72400  0.79740  Biso   1.000  C
  C68      1.0000 0.05040  0.65890  0.79070  Biso   1.000  C
  C69      1.0000 0.09410  0.61450  0.83820  Biso   1.000  C
  C70      1.0000 0.08480  0.63500  0.89520  Biso   1.000  C
  C71      1.0000 0.03070  0.69960  0.90040  Biso   1.000  C
  C72      1.0000 0.98450  0.74360  0.85330  Biso   1.000  C
  C73      1.0000 0.15580  0.54650  0.82610  Biso   1.000  C
  C74      1.0000 0.11760  0.59220  0.94950  Biso   1.000  C
  C75      1.0000 0.75920  0.75560  0.73440  Biso   1.000  C
  C76      1.0000 0.92100  0.84020  0.75420  Biso   1.000  C
  C77      1.0000 0.21780  0.95380  0.57550  Biso   1.000  C
  C78      1.0000 0.22110  0.97180  0.63610  Biso   1.000  C
  C79      1.0000 0.15910  0.03270  0.65260  Biso   1.000  C
  C80      1.0000 0.19740  0.04870  0.70590  Biso   1.000  C
  C81      1.0000 0.29200  0.00530  0.74350  Biso   1.000  C
  C82      1.0000 0.34930  0.94320  0.72850  Biso   1.000  C
  C83      1.0000 0.31140  0.92730  0.67570  Biso   1.000  C
  C84      1.0000 0.07010  0.08430  0.61090  Biso   1.000  C
  C85      1.0000 0.33460  0.02870  0.79960  Biso   1.000  C
  C86      1.0000 0.37290  0.09760  0.78340  Biso   1.000  C
  C87      1.0000 0.48160  0.10880  0.73340  Biso   1.000  C
  C88      1.0000 0.51370  0.16890  0.71160  Biso   1.000  C
  C89      1.0000 0.42970  0.22160  0.74050  Biso   1.000  C
  C90      1.0000 0.32690  0.21090  0.79240  Biso   1.000  C
  C91      1.0000 0.29610  0.14950  0.81410  Biso   1.000  C
  C92      1.0000 0.64430  0.17390  0.65960  Biso   1.000  C
  C93      1.0000 0.42860  0.29020  0.71180  Biso   1.000  C
  C94      1.0000 0.18150  0.02360  0.84670  Biso   1.000  C
  C95      1.0000 0.49170  0.98770  0.82520  Biso   1.000  C
  C96      1.0000 0.07260  0.69900  0.27120  Biso   1.000  C
  C97      1.0000 0.10710  0.73570  0.21050  Biso   1.000  C
  C98      1.0000 0.10520  0.70680  0.15810  Biso   1.000  C
  C99      1.0000 0.16050  0.73640  0.10430  Biso   1.000  C
  C100     1.0000 0.22240  0.79390  0.09900  Biso   1.000  C
  C101     1.0000 0.21990  0.82280  0.15080  Biso   1.000  C
  C102     1.0000 0.16420  0.79410  0.20410  Biso   1.000  C
  C103     1.0000 0.03520  0.64620  0.15970  Biso   1.000  C
  C104     1.0000 0.29610  0.81990  0.03600  Biso   1.000  C
  C105     1.0000 0.40950  0.76360  0.00830  Biso   1.000  C
  C106     1.0000 0.51170  0.72060  0.04470  Biso   1.000  C
  C107     1.0000 0.60910  0.66590  0.02560  Biso   1.000  C
  C108     1.0000 0.60370  0.65250  0.96800  Biso   1.000  C
  C109     1.0000 0.51270  0.69750  0.92970  Biso   1.000  C
  C110     1.0000 0.41610  0.75250  0.94900  Biso   1.000  C
  C111     1.0000 0.71680  0.62150  0.06920  Biso   1.000  C
  C112     1.0000 0.67990  0.58760  0.95010  Biso   1.000  C
  C113     1.0000 0.14270  0.84790  0.00170  Biso   1.000  C
  C114     1.0000 0.39960  0.87230  0.03720  Biso   1.000  C
  O1       1.0000 0.55230  0.17240  0.48560  Biso   1.000  O
  O2       1.0000 0.46430  0.06850  0.56570  Biso   1.000  O
  O3       1.0000 0.45570  0.27600  0.47660  Biso   1.000  O
  O4       1.0000 0.77970  0.98650  0.58160  Biso   1.000  O
  O5       1.0000 0.85240  0.19420  0.52130  Biso   1.000  O
  O6       1.0000 0.26150  0.24270  0.58420  Biso   1.000  O
  O7       1.0000 0.02250  0.26060  0.48790  Biso   1.000  O
  O8       1.0000 0.00880  0.35780  0.57050  Biso   1.000  O
  O9       1.0000 0.70530  0.46560  0.20430  Biso   1.000  O
  O10      1.0000 0.71210  0.31830  0.57820  Biso   1.000  O
  O11      1.0000 0.93120  0.49770  0.15760  Biso   1.000  O
  O12      1.0000 0.40810  0.56960  0.21770  Biso   1.000  O
  O13      1.0000 0.93520  0.46110  0.04160  Biso   1.000  O
  O14      1.0000 0.92130  0.54940  0.28110  Biso   1.000  O
  O15      1.0000 0.80820  0.39190  0.01110  Biso   1.000  O
  O16      1.0000 0.60190  0.52800  0.31420  Biso   1.000  O
  O17      1.0000 0.88510  0.07950  0.43600  Biso   1.000  O
  O18      1.0000 0.40210  0.53700  0.08420  Biso   1.000  O
  O19      1.0000 0.66650  0.03100  0.46300  Biso   1.000  O
  O20      1.0000 0.99440  0.93360  0.43070  Biso   1.000  O
  O21      1.0000 0.93380  0.85980  0.38080  Biso   1.000  O
  O22      1.0000 0.34570  0.86610  0.37700  Biso   1.000  O
  O23      1.0000 0.26260  0.78600  0.34330  Biso   1.000  O
  O24      1.0000 0.57860  0.69890  0.34320  Biso   1.000  O
  O25      1.0000 0.57080  0.66790  0.25460  Biso   1.000  O
  O26      1.0000 0.00080  0.26870  0.68780  Biso   1.000  O
  O27      1.0000 0.87320  0.35960  0.72200  Biso   1.000  O
  O28      1.0000 0.10820  0.35550  0.81420  Biso   1.000  O
  O29      1.0000 0.87690  0.39720  0.86800  Biso   1.000  O
  O30      1.0000 0.35910  0.39190  0.87960  Biso   1.000  O
  O31      1.0000 0.13260  0.39610  0.94690  Biso   1.000  O
  O32      1.0000 0.32830  0.45920  0.01070  Biso   1.000  O
  O33      1.0000 0.25370  0.41890  0.10200  Biso   1.000  O
  O34      1.0000 0.44770  0.82760  0.51440  Biso   1.000  O
  O35      1.0000 0.53570  0.93150  0.43430  Biso   1.000  O
  O36      1.0000 0.54430  0.72400  0.52340  Biso   1.000  O
  O37      1.0000 0.22030  0.01350  0.41840  Biso   1.000  O
  O38      1.0000 0.14760  0.80580  0.47870  Biso   1.000  O
  O39      1.0000 0.73850  0.75730  0.41580  Biso   1.000  O
  O40      1.0000 0.97750  0.73940  0.51210  Biso   1.000  O
  O41      1.0000 0.99120  0.64220  0.42950  Biso   1.000  O
  O42      1.0000 0.29470  0.53440  0.79570  Biso   1.000  O
  O43      1.0000 0.28790  0.68170  0.42180  Biso   1.000  O
  O44      1.0000 0.06880  0.50230  0.84240  Biso   1.000  O
  O45      1.0000 0.59190  0.43040  0.78230  Biso   1.000  O
  O46      1.0000 0.06480  0.53890  0.95840  Biso   1.000  O
  O47      1.0000 0.07870  0.45060  0.71890  Biso   1.000  O
  O48      1.0000 0.19180  0.60810  0.98890  Biso   1.000  O
  O49      1.0000 0.39810  0.47200  0.68580  Biso   1.000  O
  O50      1.0000 0.11490  0.92050  0.56400  Biso   1.000  O
  O51      1.0000 0.59790  0.46300  0.91580  Biso   1.000  O
  O52      1.0000 0.33350  0.96900  0.53700  Biso   1.000  O
  O53      1.0000 0.00560  0.06640  0.56930  Biso   1.000  O
  O54      1.0000 0.06620  0.14020  0.61920  Biso   1.000  O
  O55      1.0000 0.65430  0.13390  0.62300  Biso   1.000  O
  O56      1.0000 0.73740  0.21400  0.65670  Biso   1.000  O
  O57      1.0000 0.42140  0.30110  0.65680  Biso   1.000  O
  O58      1.0000 0.42920  0.33210  0.74540  Biso   1.000  O
  O59      1.0000 0.99920  0.73130  0.31220  Biso   1.000  O
  O60      1.0000 0.12680  0.64040  0.27800  Biso   1.000  O
  O61      1.0000 0.89180  0.64450  0.18580  Biso   1.000  O
  O62      1.0000 0.12310  0.60280  0.13200  Biso   1.000  O
  O63      1.0000 0.64090  0.60810  0.12040  Biso   1.000  O
  O64      1.0000 0.86740  0.60390  0.05310  Biso   1.000  O
  O65      1.0000 0.67170  0.54080  0.98930  Biso   1.000  O
  O66      1.0000 0.74630  0.58110  0.89800  Biso   1.000  O
  F1       1.0000 0.32040  0.19800  0.30300  Biso   1.000  F
  F2       1.0000 0.33620  0.24770  0.21520  Biso   1.000  F
  F3       1.0000 0.22860  0.29860  0.28870  Biso   1.000  F
  F4       1.0000 0.10610  0.12120  0.29660  Biso   1.000  F
  F5       1.0000 0.20900  0.14270  0.20620  Biso   1.000  F
  F6       1.0000 0.94090  0.14800  0.22800  Biso   1.000  F
  F7       1.0000 0.95370  0.93470  0.16970  Biso   1.000  F
  F8       1.0000 0.86170  0.03400  0.14860  Biso   1.000  F
  F9       1.0000 0.79360  0.96560  0.09980  Biso   1.000  F
  F10      1.0000 0.45900  0.98420  0.13260  Biso   1.000  F
  F11      1.0000 0.53190  0.07080  0.15100  Biso   1.000  F
  F12      1.0000 0.38040  0.01920  0.21660  Biso   1.000  F
  F13      1.0000 0.97060  0.11160  0.96760  Biso   1.000  F
  F14      1.0000 0.81700  0.12110  0.05020  Biso   1.000  F
  F15      1.0000 0.93840  0.19700  0.00960  Biso   1.000  F
  F16      1.0000 0.52100  0.11290  0.01630  Biso   1.000  F
  F17      1.0000 0.69350  0.07280  0.94610  Biso   1.000  F
  F18      1.0000 0.48020  0.14600  0.92650  Biso   1.000  F
  F19      1.0000 0.67960  0.80200  0.69700  Biso   1.000  F
  F20      1.0000 0.66380  0.75230  0.78480  Biso   1.000  F
  F21      1.0000 0.77140  0.70140  0.71130  Biso   1.000  F
  F22      1.0000 0.89390  0.87880  0.70340  Biso   1.000  F
  F23      1.0000 0.79100  0.85730  0.79380  Biso   1.000  F
  F24      1.0000 0.05910  0.85200  0.77200  Biso   1.000  F
  F25      1.0000 0.04630  0.06530  0.83030  Biso   1.000  F
  F26      1.0000 0.13830  0.96600  0.85140  Biso   1.000  F
  F27      1.0000 0.20640  0.03440  0.90020  Biso   1.000  F
  F28      1.0000 0.54100  0.01580  0.86740  Biso   1.000  F
  F29      1.0000 0.46810  0.92920  0.84900  Biso   1.000  F
  F30      1.0000 0.61960  0.98080  0.78340  Biso   1.000  F
  F31      1.0000 0.02940  0.88840  0.03240  Biso   1.000  F
  F32      1.0000 0.18300  0.87890  0.94980  Biso   1.000  F
  F33      1.0000 0.06160  0.80300  0.99040  Biso   1.000  F
  F34      1.0000 0.47900  0.88710  0.98370  Biso   1.000  F
  F35      1.0000 0.30650  0.92720  0.05390  Biso   1.000  F
  F36      1.0000 0.51980  0.85400  0.07350  Biso   1.000  F
