data_image0
_cell_length_a       6.0783
_cell_length_b       8.6457
_cell_length_c       16.1954
_cell_angle_alpha    77.801
_cell_angle_beta     88.351
_cell_angle_gamma    83.637

_symmetry_space_group_name_H-M    P 1
_symmetry_int_tables_number       1

loop_
  _symmetry_equiv_pos_as_xyz
  'x, y, z'

loop_
  _atom_site_label
  _atom_site_occupancy
  _atom_site_fract_x
  _atom_site_fract_y
  _atom_site_fract_z
  _atom_site_thermal_displace_type
  _atom_site_B_iso_or_equiv
  _atom_site_type_symbol
  Tb1      1.0000 0.88010  0.10263  0.21809  Biso   1.000  Tb
  Tb2      1.0000 0.11990  0.89737  0.78191  Biso   1.000  Tb
  H1       1.0000 0.43160  0.48960  0.14250  Biso   1.000  H
  H2       1.0000 0.27670  0.46650  0.01690  Biso   1.000  H
  H3       1.0000 0.12740  0.75790  0.08410  Biso   1.000  H
  H4       1.0000 0.81220  0.91150  0.00510  Biso   1.000  H
  H5       1.0000 0.85670  0.01930  0.46190  Biso   1.000  H
  H6       1.0000 0.54500  0.14500  0.51990  Biso   1.000  H
  H7       1.0000 0.25540  0.90820  0.31490  Biso   1.000  H
  H8       1.0000 0.15190  0.04770  0.35540  Biso   1.000  H
  H9       1.0000 0.56840  0.51040  0.85750  Biso   1.000  H
  H10      1.0000 0.72330  0.53350  0.98310  Biso   1.000  H
  H11      1.0000 0.87260  0.24210  0.91590  Biso   1.000  H
  H12      1.0000 0.18780  0.08850  0.99490  Biso   1.000  H
  H13      1.0000 0.14330  0.98070  0.53810  Biso   1.000  H
  H14      1.0000 0.45500  0.85500  0.48010  Biso   1.000  H
  H15      1.0000 0.74460  0.09180  0.68510  Biso   1.000  H
  H16      1.0000 0.84810  0.95230  0.64460  Biso   1.000  H
  C1       1.0000 0.36870  0.25340  0.16550  Biso   1.000  C
  C2       1.0000 0.48510  0.39640  0.11920  Biso   1.000  C
  C3       1.0000 0.43540  0.43340  0.02480  Biso   1.000  C
  C4       1.0000 0.85730  0.77030  0.16440  Biso   1.000  C
  C5       1.0000 0.03400  0.84110  0.10530  Biso   1.000  C
  C6       1.0000 0.91850  0.96180  0.03240  Biso   1.000  C
  C7       1.0000 0.80020  0.24330  0.38770  Biso   1.000  C
  C8       1.0000 0.73690  0.07660  0.42460  Biso   1.000  C
  C9       1.0000 0.52490  0.08260  0.47730  Biso   1.000  C
  C10      1.0000 0.63130  0.74660  0.83450  Biso   1.000  C
  C11      1.0000 0.51490  0.60360  0.88080  Biso   1.000  C
  C12      1.0000 0.56460  0.56660  0.97520  Biso   1.000  C
  C13      1.0000 0.14270  0.22970  0.83560  Biso   1.000  C
  C14      1.0000 0.96600  0.15890  0.89470  Biso   1.000  C
  C15      1.0000 0.08150  0.03820  0.96760  Biso   1.000  C
  C16      1.0000 0.19980  0.75670  0.61230  Biso   1.000  C
  C17      1.0000 0.26310  0.92340  0.57540  Biso   1.000  C
  C18      1.0000 0.47510  0.91740  0.52270  Biso   1.000  C
  O1       1.0000 0.48970  0.13520  0.20480  Biso   1.000  O
  O2       1.0000 0.16130  0.26630  0.16200  Biso   1.000  O
  O3       1.0000 0.17710  0.99040  0.31710  Biso   1.000  O
  O4       1.0000 0.71680  0.36060  0.13400  Biso   1.000  O
  O5       1.0000 0.49040  0.29170  0.99270  Biso   1.000  O
  O6       1.0000 0.81010  0.83010  0.22800  Biso   1.000  O
  O7       1.0000 0.76420  0.66050  0.14540  Biso   1.000  O
  O8       1.0000 0.16460  0.92950  0.14640  Biso   1.000  O
  O9       1.0000 0.80510  0.08140  0.07240  Biso   1.000  O
  O10      1.0000 0.84780  0.27670  0.30960  Biso   1.000  O
  O11      1.0000 0.80630  0.33400  0.43670  Biso   1.000  O
  O12      1.0000 0.71720  0.99210  0.35840  Biso   1.000  O
  O13      1.0000 0.34300  0.15830  0.42640  Biso   1.000  O
  O14      1.0000 0.51030  0.86480  0.79520  Biso   1.000  O
  O15      1.0000 0.83870  0.73370  0.83800  Biso   1.000  O
  O16      1.0000 0.82290  0.00960  0.68290  Biso   1.000  O
  O17      1.0000 0.28320  0.63940  0.86600  Biso   1.000  O
  O18      1.0000 0.50960  0.70830  0.00730  Biso   1.000  O
  O19      1.0000 0.18990  0.16990  0.77200  Biso   1.000  O
  O20      1.0000 0.23580  0.33950  0.85460  Biso   1.000  O
  O21      1.0000 0.83540  0.07050  0.85360  Biso   1.000  O
  O22      1.0000 0.19490  0.91860  0.92760  Biso   1.000  O
  O23      1.0000 0.15220  0.72330  0.69040  Biso   1.000  O
  O24      1.0000 0.19370  0.66600  0.56330  Biso   1.000  O
  O25      1.0000 0.28280  0.00790  0.64160  Biso   1.000  O
  O26      1.0000 0.65700  0.84170  0.57360  Biso   1.000  O
