data_image0
_cell_length_a       8.721
_cell_length_b       11.026
_cell_length_c       13.54
_cell_angle_alpha    90
_cell_angle_beta     90
_cell_angle_gamma    90

_symmetry_space_group_name_H-M    P 1
_symmetry_int_tables_number       1

loop_
  _symmetry_equiv_pos_as_xyz
  'x, y, z'

loop_
  _atom_site_label
  _atom_site_occupancy
  _atom_site_fract_x
  _atom_site_fract_y
  _atom_site_fract_z
  _atom_site_thermal_displace_type
  _atom_site_B_iso_or_equiv
  _atom_site_type_symbol
  Cd1      1.0000 0.00000  0.76768  0.00000  Biso   1.000  Cd
  Cd2      1.0000 0.50000  0.23232  0.50000  Biso   1.000  Cd
  Cd3      1.0000 0.50000  0.06947  0.10251  Biso   1.000  Cd
  Cd4      1.0000 0.50000  0.48663  0.86465  Biso   1.000  Cd
  Cd5      1.0000 0.00000  0.93053  0.60251  Biso   1.000  Cd
  Cd6      1.0000 0.00000  0.51337  0.36465  Biso   1.000  Cd
  C1       1.0000 0.70850  0.95880  0.06560  Biso   1.000  C
  C2       1.0000 0.70860  0.58180  0.91270  Biso   1.000  C
  C3       1.0000 0.79150  0.04120  0.56560  Biso   1.000  C
  C4       1.0000 0.79140  0.41820  0.41270  Biso   1.000  C
  C5       1.0000 0.20850  0.04120  0.56560  Biso   1.000  C
  C6       1.0000 0.20860  0.41820  0.41270  Biso   1.000  C
  C7       1.0000 0.29150  0.95880  0.06560  Biso   1.000  C
  C8       1.0000 0.29140  0.58180  0.91270  Biso   1.000  C
  C9       1.0000 0.00000  0.88110  0.75940  Biso   1.000  C
  C10      1.0000 0.00000  0.61610  0.22300  Biso   1.000  C
  C11      1.0000 0.50000  0.11890  0.25940  Biso   1.000  C
  C12      1.0000 0.50000  0.38390  0.72300  Biso   1.000  C
  C13      1.0000 0.50000  0.24400  0.01790  Biso   1.000  C
  C14      1.0000 0.50000  0.32590  0.96820  Biso   1.000  C
  C15      1.0000 0.00000  0.75600  0.51790  Biso   1.000  C
  C16      1.0000 0.00000  0.67410  0.46820  Biso   1.000  C
  N1       1.0000 0.80930  0.89980  0.04600  Biso   1.000  N
  N2       1.0000 0.80870  0.63470  0.94170  Biso   1.000  N
  N3       1.0000 0.69070  0.10020  0.54600  Biso   1.000  N
  N4       1.0000 0.69130  0.36530  0.44170  Biso   1.000  N
  N5       1.0000 0.30930  0.10020  0.54600  Biso   1.000  N
  N6       1.0000 0.30870  0.36530  0.44170  Biso   1.000  N
  N7       1.0000 0.19070  0.89980  0.04600  Biso   1.000  N
  N8       1.0000 0.19130  0.63470  0.94170  Biso   1.000  N
  N9       1.0000 0.00000  0.85070  0.83850  Biso   1.000  N
  N10      1.0000 0.00000  0.66630  0.14920  Biso   1.000  N
  N11      1.0000 0.50000  0.14930  0.33850  Biso   1.000  N
  N12      1.0000 0.50000  0.33370  0.64920  Biso   1.000  N
