data_image0
_cell_length_a       11.2962
_cell_length_b       11.2962
_cell_length_c       25.8544
_cell_angle_alpha    90.1749
_cell_angle_beta     90.1749
_cell_angle_gamma    95.4263

_symmetry_space_group_name_H-M    P 1
_symmetry_int_tables_number       1

loop_
  _symmetry_equiv_pos_as_xyz
  'x, y, z'

loop_
  _atom_site_label
  _atom_site_occupancy
  _atom_site_fract_x
  _atom_site_fract_y
  _atom_site_fract_z
  _atom_site_thermal_displace_type
  _atom_site_B_iso_or_equiv
  _atom_site_type_symbol
  Mn1      1.0000 0.65336  0.29608  0.99899  Biso   1.000  Mn
  Mn2      1.0000 0.70392  0.34664  0.50101  Biso   1.000  Mn
  Mn3      1.0000 0.34664  0.70392  0.00101  Biso   1.000  Mn
  Mn4      1.0000 0.29608  0.65336  0.49899  Biso   1.000  Mn
  Mn5      1.0000 0.00000  0.50000  0.50000  Biso   1.000  Mn
  Mn6      1.0000 0.50000  0.00000  0.00000  Biso   1.000  Mn
  H1       1.0000 0.28940  0.11000  0.12360  Biso   1.000  H
  H2       1.0000 0.15280  0.16300  0.18460  Biso   1.000  H
  H3       1.0000 0.26520  0.50560  0.16470  Biso   1.000  H
  H4       1.0000 0.40550  0.45330  0.10540  Biso   1.000  H
  H5       1.0000 0.31320  0.38240  0.26280  Biso   1.000  H
  H6       1.0000 0.35240  0.45320  0.34570  Biso   1.000  H
  H7       1.0000 0.01330  0.52270  0.36080  Biso   1.000  H
  H8       1.0000 0.97410  0.45390  0.27730  Biso   1.000  H
  H9       1.0000 0.76440  0.19240  0.36710  Biso   1.000  H
  H10      1.0000 0.78230  0.09010  0.29050  Biso   1.000  H
  H11      1.0000 0.13740  0.12480  0.30750  Biso   1.000  H
  H12      1.0000 0.11720  0.22500  0.38500  Biso   1.000  H
  H13      1.0000 0.61740  0.55900  0.04670  Biso   1.000  H
  H14      1.0000 0.69850  0.75430  0.04190  Biso   1.000  H
  H15      1.0000 0.86580  0.80000  0.99250  Biso   1.000  H
  H16      1.0000 0.02860  0.72720  0.93530  Biso   1.000  H
  H17      1.0000 0.10030  0.57870  0.89090  Biso   1.000  H
  H18      1.0000 0.08320  0.35960  0.86650  Biso   1.000  H
  H19      1.0000 0.98720  0.17320  0.87590  Biso   1.000  H
  H20      1.0000 0.82120  0.14540  0.92870  Biso   1.000  H
  H21      1.0000 0.89000  0.71060  0.37640  Biso   1.000  H
  H22      1.0000 0.83700  0.84720  0.31540  Biso   1.000  H
  H23      1.0000 0.49440  0.73480  0.33530  Biso   1.000  H
  H24      1.0000 0.54670  0.59450  0.39460  Biso   1.000  H
  H25      1.0000 0.61760  0.68680  0.23720  Biso   1.000  H
  H26      1.0000 0.54680  0.64760  0.15430  Biso   1.000  H
  H27      1.0000 0.47730  0.98670  0.13920  Biso   1.000  H
  H28      1.0000 0.54610  0.02590  0.22270  Biso   1.000  H
  H29      1.0000 0.80760  0.23560  0.13290  Biso   1.000  H
  H30      1.0000 0.90990  0.21770  0.20950  Biso   1.000  H
  H31      1.0000 0.87520  0.86260  0.19250  Biso   1.000  H
  H32      1.0000 0.77500  0.88280  0.11500  Biso   1.000  H
  H33      1.0000 0.44100  0.38260  0.45330  Biso   1.000  H
  H34      1.0000 0.24570  0.30150  0.45810  Biso   1.000  H
  H35      1.0000 0.20000  0.13420  0.50750  Biso   1.000  H
  H36      1.0000 0.27280  0.97140  0.56470  Biso   1.000  H
  H37      1.0000 0.42130  0.89970  0.60910  Biso   1.000  H
  H38      1.0000 0.64040  0.91680  0.63350  Biso   1.000  H
  H39      1.0000 0.82680  0.01280  0.62410  Biso   1.000  H
  H40      1.0000 0.85460  0.17880  0.57130  Biso   1.000  H
  H41      1.0000 0.71060  0.89000  0.87640  Biso   1.000  H
  H42      1.0000 0.84720  0.83700  0.81540  Biso   1.000  H
  H43      1.0000 0.73480  0.49440  0.83530  Biso   1.000  H
  H44      1.0000 0.59450  0.54670  0.89460  Biso   1.000  H
  H45      1.0000 0.68680  0.61760  0.73720  Biso   1.000  H
  H46      1.0000 0.64760  0.54680  0.65430  Biso   1.000  H
  H47      1.0000 0.98670  0.47730  0.63920  Biso   1.000  H
  H48      1.0000 0.02590  0.54610  0.72270  Biso   1.000  H
  H49      1.0000 0.23560  0.80760  0.63290  Biso   1.000  H
  H50      1.0000 0.21770  0.90990  0.70950  Biso   1.000  H
  H51      1.0000 0.86260  0.87520  0.69250  Biso   1.000  H
  H52      1.0000 0.88280  0.77500  0.61500  Biso   1.000  H
  H53      1.0000 0.38260  0.44100  0.95330  Biso   1.000  H
  H54      1.0000 0.30150  0.24570  0.95810  Biso   1.000  H
  H55      1.0000 0.13420  0.20000  0.00750  Biso   1.000  H
  H56      1.0000 0.97140  0.27280  0.06470  Biso   1.000  H
  H57      1.0000 0.89970  0.42130  0.10910  Biso   1.000  H
  H58      1.0000 0.91680  0.64040  0.13350  Biso   1.000  H
  H59      1.0000 0.01280  0.82680  0.12410  Biso   1.000  H
  H60      1.0000 0.17880  0.85460  0.07130  Biso   1.000  H
  H61      1.0000 0.11000  0.28940  0.62360  Biso   1.000  H
  H62      1.0000 0.16300  0.15280  0.68460  Biso   1.000  H
  H63      1.0000 0.50560  0.26520  0.66470  Biso   1.000  H
  H64      1.0000 0.45330  0.40550  0.60540  Biso   1.000  H
  H65      1.0000 0.38240  0.31320  0.76280  Biso   1.000  H
  H66      1.0000 0.45320  0.35240  0.84570  Biso   1.000  H
  H67      1.0000 0.52270  0.01330  0.86080  Biso   1.000  H
  H68      1.0000 0.45390  0.97410  0.77730  Biso   1.000  H
  H69      1.0000 0.19240  0.76440  0.86710  Biso   1.000  H
  H70      1.0000 0.09010  0.78230  0.79050  Biso   1.000  H
  H71      1.0000 0.12480  0.13740  0.80750  Biso   1.000  H
  H72      1.0000 0.22500  0.11720  0.88500  Biso   1.000  H
  H73      1.0000 0.55900  0.61740  0.54670  Biso   1.000  H
  H74      1.0000 0.75430  0.69850  0.54190  Biso   1.000  H
  H75      1.0000 0.80000  0.86580  0.49250  Biso   1.000  H
  H76      1.0000 0.72720  0.02860  0.43530  Biso   1.000  H
  H77      1.0000 0.57870  0.10030  0.39090  Biso   1.000  H
  H78      1.0000 0.35960  0.08320  0.36650  Biso   1.000  H
  H79      1.0000 0.17320  0.98720  0.37590  Biso   1.000  H
  H80      1.0000 0.14540  0.82120  0.42870  Biso   1.000  H
  C1       1.0000 0.44936  0.24208  0.06855  Biso   1.000  C
  C2       1.0000 0.36159  0.27569  0.10843  Biso   1.000  C
  C3       1.0000 0.28559  0.18965  0.13200  Biso   1.000  C
  C4       1.0000 0.20307  0.22119  0.16839  Biso   1.000  C
  C5       1.0000 0.19700  0.33864  0.17988  Biso   1.000  C
  C6       1.0000 0.27090  0.42616  0.15667  Biso   1.000  C
  C7       1.0000 0.35440  0.39470  0.12094  Biso   1.000  C
  C8       1.0000 0.14014  0.41234  0.26226  Biso   1.000  C
  C9       1.0000 0.25320  0.41118  0.28234  Biso   1.000  C
  C10      1.0000 0.27629  0.45337  0.33202  Biso   1.000  C
  C11      1.0000 0.18716  0.49590  0.36158  Biso   1.000  C
  C12      1.0000 0.07388  0.49522  0.34105  Biso   1.000  C
  C13      1.0000 0.05023  0.45375  0.29117  Biso   1.000  C
  C14      1.0000 0.21684  0.54264  0.41441  Biso   1.000  C
  C15      1.0000 0.92135  0.27975  0.43505  Biso   1.000  C
  C16      1.0000 0.93908  0.21640  0.38453  Biso   1.000  C
  C17      1.0000 0.83939  0.17717  0.35551  Biso   1.000  C
  C18      1.0000 0.84956  0.11602  0.30976  Biso   1.000  C
  C19      1.0000 0.96113  0.09403  0.29307  Biso   1.000  C
  C20      1.0000 0.06236  0.13662  0.32007  Biso   1.000  C
  C21      1.0000 0.04982  0.19714  0.36619  Biso   1.000  C
  C22      1.0000 0.68527  0.57673  0.02692  Biso   1.000  C
  C23      1.0000 0.73341  0.69493  0.02420  Biso   1.000  C
  C24      1.0000 0.83286  0.72166  0.99493  Biso   1.000  C
  C25      1.0000 0.88556  0.63146  0.96850  Biso   1.000  C
  C26      1.0000 0.82961  0.51487  0.97322  Biso   1.000  C
  C27      1.0000 0.87600  0.42034  0.94548  Biso   1.000  C
  C28      1.0000 0.97756  0.44324  0.91370  Biso   1.000  C
  C29      1.0000 0.98981  0.65101  0.93740  Biso   1.000  C
  C30      1.0000 0.03300  0.56260  0.91119  Biso   1.000  C
  C31      1.0000 0.01690  0.34810  0.88786  Biso   1.000  C
  C32      1.0000 0.96000  0.23760  0.89322  Biso   1.000  C
  C33      1.0000 0.85993  0.22127  0.92514  Biso   1.000  C
  C34      1.0000 0.75792  0.55064  0.43145  Biso   1.000  C
  C35      1.0000 0.72431  0.63841  0.39157  Biso   1.000  C
  C36      1.0000 0.81035  0.71441  0.36800  Biso   1.000  C
  C37      1.0000 0.77881  0.79693  0.33161  Biso   1.000  C
  C38      1.0000 0.66136  0.80300  0.32012  Biso   1.000  C
  C39      1.0000 0.57384  0.72910  0.34333  Biso   1.000  C
  C40      1.0000 0.60530  0.64560  0.37906  Biso   1.000  C
  C41      1.0000 0.58766  0.85986  0.23774  Biso   1.000  C
  C42      1.0000 0.58882  0.74680  0.21766  Biso   1.000  C
  C43      1.0000 0.54663  0.72371  0.16798  Biso   1.000  C
  C44      1.0000 0.50410  0.81284  0.13842  Biso   1.000  C
  C45      1.0000 0.50478  0.92612  0.15895  Biso   1.000  C
  C46      1.0000 0.54625  0.94977  0.20883  Biso   1.000  C
  C47      1.0000 0.45736  0.78316  0.08559  Biso   1.000  C
  C48      1.0000 0.72025  0.07865  0.06495  Biso   1.000  C
  C49      1.0000 0.78360  0.06092  0.11547  Biso   1.000  C
  C50      1.0000 0.82283  0.16061  0.14449  Biso   1.000  C
  C51      1.0000 0.88398  0.15044  0.19024  Biso   1.000  C
  C52      1.0000 0.90597  0.03887  0.20693  Biso   1.000  C
  C53      1.0000 0.86338  0.93764  0.17993  Biso   1.000  C
  C54      1.0000 0.80286  0.95018  0.13381  Biso   1.000  C
  C55      1.0000 0.42327  0.31473  0.47308  Biso   1.000  C
  C56      1.0000 0.30507  0.26659  0.47580  Biso   1.000  C
  C57      1.0000 0.27834  0.16714  0.50507  Biso   1.000  C
  C58      1.0000 0.36854  0.11444  0.53150  Biso   1.000  C
  C59      1.0000 0.48513  0.17039  0.52678  Biso   1.000  C
  C60      1.0000 0.57966  0.12400  0.55452  Biso   1.000  C
  C61      1.0000 0.55676  0.02244  0.58630  Biso   1.000  C
  C62      1.0000 0.34899  0.01019  0.56260  Biso   1.000  C
  C63      1.0000 0.43740  0.96700  0.58881  Biso   1.000  C
  C64      1.0000 0.65190  0.98310  0.61214  Biso   1.000  C
  C65      1.0000 0.76240  0.04000  0.60678  Biso   1.000  C
  C66      1.0000 0.77873  0.14007  0.57486  Biso   1.000  C
  C67      1.0000 0.55064  0.75792  0.93145  Biso   1.000  C
  C68      1.0000 0.63841  0.72431  0.89157  Biso   1.000  C
  C69      1.0000 0.71441  0.81035  0.86800  Biso   1.000  C
  C70      1.0000 0.79693  0.77881  0.83161  Biso   1.000  C
  C71      1.0000 0.80300  0.66136  0.82012  Biso   1.000  C
  C72      1.0000 0.72910  0.57384  0.84333  Biso   1.000  C
  C73      1.0000 0.64560  0.60530  0.87906  Biso   1.000  C
  C74      1.0000 0.85986  0.58766  0.73774  Biso   1.000  C
  C75      1.0000 0.74680  0.58882  0.71766  Biso   1.000  C
  C76      1.0000 0.72371  0.54663  0.66798  Biso   1.000  C
  C77      1.0000 0.81284  0.50410  0.63842  Biso   1.000  C
  C78      1.0000 0.92612  0.50478  0.65895  Biso   1.000  C
  C79      1.0000 0.94977  0.54625  0.70883  Biso   1.000  C
  C80      1.0000 0.78316  0.45736  0.58559  Biso   1.000  C
  C81      1.0000 0.07865  0.72025  0.56495  Biso   1.000  C
  C82      1.0000 0.06092  0.78360  0.61547  Biso   1.000  C
  C83      1.0000 0.16061  0.82283  0.64449  Biso   1.000  C
  C84      1.0000 0.15044  0.88398  0.69024  Biso   1.000  C
  C85      1.0000 0.03887  0.90597  0.70693  Biso   1.000  C
  C86      1.0000 0.93764  0.86338  0.67993  Biso   1.000  C
  C87      1.0000 0.95018  0.80286  0.63381  Biso   1.000  C
  C88      1.0000 0.31473  0.42327  0.97308  Biso   1.000  C
  C89      1.0000 0.26659  0.30507  0.97580  Biso   1.000  C
  C90      1.0000 0.16714  0.27834  0.00507  Biso   1.000  C
  C91      1.0000 0.11444  0.36854  0.03150  Biso   1.000  C
  C92      1.0000 0.17039  0.48513  0.02678  Biso   1.000  C
  C93      1.0000 0.12400  0.57966  0.05452  Biso   1.000  C
  C94      1.0000 0.02244  0.55676  0.08630  Biso   1.000  C
  C95      1.0000 0.01019  0.34899  0.06260  Biso   1.000  C
  C96      1.0000 0.96700  0.43740  0.08881  Biso   1.000  C
  C97      1.0000 0.98310  0.65190  0.11214  Biso   1.000  C
  C98      1.0000 0.04000  0.76240  0.10678  Biso   1.000  C
  C99      1.0000 0.14007  0.77873  0.07486  Biso   1.000  C
  C100     1.0000 0.24208  0.44936  0.56855  Biso   1.000  C
  C101     1.0000 0.27569  0.36159  0.60843  Biso   1.000  C
  C102     1.0000 0.18965  0.28559  0.63200  Biso   1.000  C
  C103     1.0000 0.22119  0.20307  0.66839  Biso   1.000  C
  C104     1.0000 0.33864  0.19700  0.67988  Biso   1.000  C
  C105     1.0000 0.42616  0.27090  0.65667  Biso   1.000  C
  C106     1.0000 0.39470  0.35440  0.62094  Biso   1.000  C
  C107     1.0000 0.41234  0.14014  0.76226  Biso   1.000  C
  C108     1.0000 0.41118  0.25320  0.78234  Biso   1.000  C
  C109     1.0000 0.45337  0.27629  0.83202  Biso   1.000  C
  C110     1.0000 0.49590  0.18716  0.86158  Biso   1.000  C
  C111     1.0000 0.49522  0.07388  0.84105  Biso   1.000  C
  C112     1.0000 0.45375  0.05023  0.79117  Biso   1.000  C
  C113     1.0000 0.54264  0.21684  0.91441  Biso   1.000  C
  C114     1.0000 0.27975  0.92135  0.93505  Biso   1.000  C
  C115     1.0000 0.21640  0.93908  0.88453  Biso   1.000  C
  C116     1.0000 0.17717  0.83939  0.85551  Biso   1.000  C
  C117     1.0000 0.11602  0.84956  0.80976  Biso   1.000  C
  C118     1.0000 0.09403  0.96113  0.79307  Biso   1.000  C
  C119     1.0000 0.13662  0.06236  0.82007  Biso   1.000  C
  C120     1.0000 0.19714  0.04982  0.86619  Biso   1.000  C
  C121     1.0000 0.57673  0.68527  0.52692  Biso   1.000  C
  C122     1.0000 0.69493  0.73341  0.52420  Biso   1.000  C
  C123     1.0000 0.72166  0.83286  0.49493  Biso   1.000  C
  C124     1.0000 0.63146  0.88556  0.46850  Biso   1.000  C
  C125     1.0000 0.51487  0.82961  0.47322  Biso   1.000  C
  C126     1.0000 0.42034  0.87600  0.44548  Biso   1.000  C
  C127     1.0000 0.44324  0.97756  0.41370  Biso   1.000  C
  C128     1.0000 0.65101  0.98981  0.43740  Biso   1.000  C
  C129     1.0000 0.56260  0.03300  0.41119  Biso   1.000  C
  C130     1.0000 0.34810  0.01690  0.38786  Biso   1.000  C
  C131     1.0000 0.23760  0.96000  0.39322  Biso   1.000  C
  C132     1.0000 0.22127  0.85993  0.42514  Biso   1.000  C
  N1       1.0000 0.73135  0.48867  0.00270  Biso   1.000  N
  N2       1.0000 0.81927  0.31031  0.95016  Biso   1.000  N
  N3       1.0000 0.51133  0.26865  0.49730  Biso   1.000  N
  N4       1.0000 0.68969  0.18073  0.54984  Biso   1.000  N
  N5       1.0000 0.26865  0.51133  0.99730  Biso   1.000  N
  N6       1.0000 0.18073  0.68969  0.04984  Biso   1.000  N
  N7       1.0000 0.48867  0.73135  0.50270  Biso   1.000  N
  N8       1.0000 0.31031  0.81927  0.45016  Biso   1.000  N
  O1       1.0000 0.52385  0.32473  0.05391  Biso   1.000  O
  O2       1.0000 0.13645  0.57825  0.44361  Biso   1.000  O
  O3       1.0000 0.32341  0.55081  0.42893  Biso   1.000  O
  O4       1.0000 0.81838  0.26538  0.45296  Biso   1.000  O
  O5       1.0000 0.44326  0.13730  0.05293  Biso   1.000  O
  O6       1.0000 0.00772  0.33900  0.45519  Biso   1.000  O
  O7       1.0000 0.10778  0.36932  0.21348  Biso   1.000  O
  O8       1.0000 0.67527  0.47615  0.44609  Biso   1.000  O
  O9       1.0000 0.42175  0.86355  0.05639  Biso   1.000  O
  O10      1.0000 0.44919  0.67659  0.07107  Biso   1.000  O
  O11      1.0000 0.73462  0.18162  0.04704  Biso   1.000  O
  O12      1.0000 0.86270  0.55674  0.44707  Biso   1.000  O
  O13      1.0000 0.66100  0.99228  0.04481  Biso   1.000  O
  O14      1.0000 0.63068  0.89222  0.28652  Biso   1.000  O
  O15      1.0000 0.47615  0.67527  0.94609  Biso   1.000  O
  O16      1.0000 0.86355  0.42175  0.55639  Biso   1.000  O
  O17      1.0000 0.67659  0.44919  0.57107  Biso   1.000  O
  O18      1.0000 0.18162  0.73462  0.54704  Biso   1.000  O
  O19      1.0000 0.55674  0.86270  0.94707  Biso   1.000  O
  O20      1.0000 0.99228  0.66100  0.54481  Biso   1.000  O
  O21      1.0000 0.89222  0.63068  0.78652  Biso   1.000  O
  O22      1.0000 0.32473  0.52385  0.55391  Biso   1.000  O
  O23      1.0000 0.57825  0.13645  0.94361  Biso   1.000  O
  O24      1.0000 0.55081  0.32341  0.92893  Biso   1.000  O
  O25      1.0000 0.26538  0.81838  0.95296  Biso   1.000  O
  O26      1.0000 0.13730  0.44326  0.55293  Biso   1.000  O
  O27      1.0000 0.33900  0.00772  0.95519  Biso   1.000  O
  O28      1.0000 0.36932  0.10778  0.71348  Biso   1.000  O
  O29      1.0000 0.97645  0.02355  0.25000  Biso   1.000  O
  O30      1.0000 0.02355  0.97645  0.75000  Biso   1.000  O
