data_image0
_cell_length_a       18.007
_cell_length_b       18.007
_cell_length_c       19.288
_cell_angle_alpha    90
_cell_angle_beta     90
_cell_angle_gamma    120

_symmetry_space_group_name_H-M    P 1
_symmetry_int_tables_number       1

loop_
  _symmetry_equiv_pos_as_xyz
  'x, y, z'

loop_
  _atom_site_label
  _atom_site_occupancy
  _atom_site_fract_x
  _atom_site_fract_y
  _atom_site_fract_z
  _atom_site_thermal_displace_type
  _atom_site_B_iso_or_equiv
  _atom_site_type_symbol
  K1       1.0000 0.66667  0.33334  0.25000  Biso   1.000  K
  K2       1.0000 0.33333  0.66666  0.75000  Biso   1.000  K
  Cd1      1.0000 0.79277  0.58554  0.25000  Biso   1.000  Cd
  Cd2      1.0000 0.79277  0.20724  0.25000  Biso   1.000  Cd
  Cd3      1.0000 0.41447  0.20724  0.25000  Biso   1.000  Cd
  Cd4      1.0000 0.20723  0.41446  0.75000  Biso   1.000  Cd
  Cd5      1.0000 0.20723  0.79276  0.75000  Biso   1.000  Cd
  Cd6      1.0000 0.58553  0.79276  0.75000  Biso   1.000  Cd
  H1       1.0000 0.92890  0.59160  0.46230  Biso   1.000  H
  H2       1.0000 0.87390  0.40440  0.59880  Biso   1.000  H
  H3       1.0000 0.77740  0.30620  0.52160  Biso   1.000  H
  H4       1.0000 0.75970  0.34940  0.41350  Biso   1.000  H
  H5       1.0000 0.05980  0.59630  0.73780  Biso   1.000  H
  H6       1.0000 0.96070  0.49520  0.66740  Biso   1.000  H
  H7       1.0000 0.02410  0.67490  0.52630  Biso   1.000  H
  H8       1.0000 0.12410  0.77030  0.60010  Biso   1.000  H
  H9       1.0000 0.66270  0.07110  0.46230  Biso   1.000  H
  H10      1.0000 0.53050  0.12610  0.59880  Biso   1.000  H
  H11      1.0000 0.52880  0.22260  0.52160  Biso   1.000  H
  H12      1.0000 0.58970  0.24030  0.41350  Biso   1.000  H
  H13      1.0000 0.53650  0.94020  0.73780  Biso   1.000  H
  H14      1.0000 0.53450  0.03930  0.66740  Biso   1.000  H
  H15      1.0000 0.65080  0.97590  0.52630  Biso   1.000  H
  H16      1.0000 0.64620  0.87590  0.60010  Biso   1.000  H
  H17      1.0000 0.40840  0.33730  0.46230  Biso   1.000  H
  H18      1.0000 0.59560  0.46950  0.59880  Biso   1.000  H
  H19      1.0000 0.69380  0.47120  0.52160  Biso   1.000  H
  H20      1.0000 0.65060  0.41030  0.41350  Biso   1.000  H
  H21      1.0000 0.40370  0.46350  0.73780  Biso   1.000  H
  H22      1.0000 0.50480  0.46550  0.66740  Biso   1.000  H
  H23      1.0000 0.32510  0.34920  0.52630  Biso   1.000  H
  H24      1.0000 0.22970  0.35380  0.60010  Biso   1.000  H
  H25      1.0000 0.66270  0.59160  0.03770  Biso   1.000  H
  H26      1.0000 0.53050  0.40440  0.90120  Biso   1.000  H
  H27      1.0000 0.52880  0.30620  0.97840  Biso   1.000  H
  H28      1.0000 0.58970  0.34940  0.08650  Biso   1.000  H
  H29      1.0000 0.53650  0.59630  0.76220  Biso   1.000  H
  H30      1.0000 0.53450  0.49520  0.83260  Biso   1.000  H
  H31      1.0000 0.65080  0.67490  0.97370  Biso   1.000  H
  H32      1.0000 0.64620  0.77030  0.89990  Biso   1.000  H
  H33      1.0000 0.40840  0.07110  0.03770  Biso   1.000  H
  H34      1.0000 0.59560  0.12610  0.90120  Biso   1.000  H
  H35      1.0000 0.69380  0.22260  0.97840  Biso   1.000  H
  H36      1.0000 0.65060  0.24030  0.08650  Biso   1.000  H
  H37      1.0000 0.40370  0.94020  0.76220  Biso   1.000  H
  H38      1.0000 0.50480  0.03930  0.83260  Biso   1.000  H
  H39      1.0000 0.32510  0.97590  0.97370  Biso   1.000  H
  H40      1.0000 0.22970  0.87590  0.89990  Biso   1.000  H
  H41      1.0000 0.92890  0.33730  0.03770  Biso   1.000  H
  H42      1.0000 0.87390  0.46950  0.90120  Biso   1.000  H
  H43      1.0000 0.77740  0.47120  0.97840  Biso   1.000  H
  H44      1.0000 0.75970  0.41030  0.08650  Biso   1.000  H
  H45      1.0000 0.05980  0.46350  0.76220  Biso   1.000  H
  H46      1.0000 0.96070  0.46550  0.83260  Biso   1.000  H
  H47      1.0000 0.02410  0.34920  0.97370  Biso   1.000  H
  H48      1.0000 0.12410  0.35380  0.89990  Biso   1.000  H
  H49      1.0000 0.07110  0.40840  0.53770  Biso   1.000  H
  H50      1.0000 0.12610  0.59560  0.40120  Biso   1.000  H
  H51      1.0000 0.22260  0.69380  0.47840  Biso   1.000  H
  H52      1.0000 0.24030  0.65060  0.58650  Biso   1.000  H
  H53      1.0000 0.94020  0.40370  0.26220  Biso   1.000  H
  H54      1.0000 0.03930  0.50480  0.33260  Biso   1.000  H
  H55      1.0000 0.97590  0.32510  0.47370  Biso   1.000  H
  H56      1.0000 0.87590  0.22970  0.39990  Biso   1.000  H
  H57      1.0000 0.33730  0.92890  0.53770  Biso   1.000  H
  H58      1.0000 0.46950  0.87390  0.40120  Biso   1.000  H
  H59      1.0000 0.47120  0.77740  0.47840  Biso   1.000  H
  H60      1.0000 0.41030  0.75970  0.58650  Biso   1.000  H
  H61      1.0000 0.46350  0.05980  0.26220  Biso   1.000  H
  H62      1.0000 0.46550  0.96070  0.33260  Biso   1.000  H
  H63      1.0000 0.34920  0.02410  0.47370  Biso   1.000  H
  H64      1.0000 0.35380  0.12410  0.39990  Biso   1.000  H
  H65      1.0000 0.59160  0.66270  0.53770  Biso   1.000  H
  H66      1.0000 0.40440  0.53050  0.40120  Biso   1.000  H
  H67      1.0000 0.30620  0.52880  0.47840  Biso   1.000  H
  H68      1.0000 0.34940  0.58970  0.58650  Biso   1.000  H
  H69      1.0000 0.59630  0.53650  0.26220  Biso   1.000  H
  H70      1.0000 0.49520  0.53450  0.33260  Biso   1.000  H
  H71      1.0000 0.67490  0.65080  0.47370  Biso   1.000  H
  H72      1.0000 0.77030  0.64620  0.39990  Biso   1.000  H
  H73      1.0000 0.33730  0.40840  0.96230  Biso   1.000  H
  H74      1.0000 0.46950  0.59560  0.09880  Biso   1.000  H
  H75      1.0000 0.47120  0.69380  0.02160  Biso   1.000  H
  H76      1.0000 0.41030  0.65060  0.91350  Biso   1.000  H
  H77      1.0000 0.46350  0.40370  0.23780  Biso   1.000  H
  H78      1.0000 0.46550  0.50480  0.16740  Biso   1.000  H
  H79      1.0000 0.34920  0.32510  0.02630  Biso   1.000  H
  H80      1.0000 0.35380  0.22970  0.10010  Biso   1.000  H
  H81      1.0000 0.59160  0.92890  0.96230  Biso   1.000  H
  H82      1.0000 0.40440  0.87390  0.09880  Biso   1.000  H
  H83      1.0000 0.30620  0.77740  0.02160  Biso   1.000  H
  H84      1.0000 0.34940  0.75970  0.91350  Biso   1.000  H
  H85      1.0000 0.59630  0.05980  0.23780  Biso   1.000  H
  H86      1.0000 0.49520  0.96070  0.16740  Biso   1.000  H
  H87      1.0000 0.67490  0.02410  0.02630  Biso   1.000  H
  H88      1.0000 0.77030  0.12410  0.10010  Biso   1.000  H
  H89      1.0000 0.07110  0.66270  0.96230  Biso   1.000  H
  H90      1.0000 0.12610  0.53050  0.09880  Biso   1.000  H
  H91      1.0000 0.22260  0.52880  0.02160  Biso   1.000  H
  H92      1.0000 0.24030  0.58970  0.91350  Biso   1.000  H
  H93      1.0000 0.94020  0.53650  0.23780  Biso   1.000  H
  H94      1.0000 0.03930  0.53450  0.16740  Biso   1.000  H
  H95      1.0000 0.97590  0.65080  0.02630  Biso   1.000  H
  H96      1.0000 0.87590  0.64620  0.10010  Biso   1.000  H
  C1       1.0000 0.84060  0.47480  0.42800  Biso   1.000  C
  C2       1.0000 0.89860  0.53390  0.47460  Biso   1.000  C
  C3       1.0000 0.91240  0.50890  0.53920  Biso   1.000  C
  C4       1.0000 0.86610  0.42280  0.55580  Biso   1.000  C
  C5       1.0000 0.80860  0.36390  0.50940  Biso   1.000  C
  C6       1.0000 0.79710  0.38970  0.44520  Biso   1.000  C
  C7       1.0000 0.82560  0.50540  0.35920  Biso   1.000  C
  C8       1.0000 0.05270  0.61330  0.69390  Biso   1.000  C
  C9       1.0000 0.99190  0.55170  0.65200  Biso   1.000  C
  C10      1.0000 0.97680  0.57290  0.58750  Biso   1.000  C
  C11      1.0000 0.02930  0.65630  0.57010  Biso   1.000  C
  C12      1.0000 0.08980  0.71410  0.61490  Biso   1.000  C
  C13      1.0000 0.63420  0.15940  0.42800  Biso   1.000  C
  C14      1.0000 0.63530  0.10140  0.47460  Biso   1.000  C
  C15      1.0000 0.59650  0.08760  0.53920  Biso   1.000  C
  C16      1.0000 0.55670  0.13390  0.55580  Biso   1.000  C
  C17      1.0000 0.55530  0.19140  0.50940  Biso   1.000  C
  C18      1.0000 0.59260  0.20290  0.44520  Biso   1.000  C
  C19      1.0000 0.67980  0.17440  0.35920  Biso   1.000  C
  C20      1.0000 0.56060  0.94730  0.69390  Biso   1.000  C
  C21      1.0000 0.55980  0.00810  0.65200  Biso   1.000  C
  C22      1.0000 0.59610  0.02320  0.58750  Biso   1.000  C
  C23      1.0000 0.62700  0.97070  0.57010  Biso   1.000  C
  C24      1.0000 0.62430  0.91020  0.61490  Biso   1.000  C
  C25      1.0000 0.52520  0.36580  0.42800  Biso   1.000  C
  C26      1.0000 0.46610  0.36470  0.47460  Biso   1.000  C
  C27      1.0000 0.49110  0.40350  0.53920  Biso   1.000  C
  C28      1.0000 0.57720  0.44330  0.55580  Biso   1.000  C
  C29      1.0000 0.63610  0.44470  0.50940  Biso   1.000  C
  C30      1.0000 0.61030  0.40740  0.44520  Biso   1.000  C
  C31      1.0000 0.49460  0.32020  0.35920  Biso   1.000  C
  C32      1.0000 0.38670  0.43940  0.69390  Biso   1.000  C
  C33      1.0000 0.44830  0.44020  0.65200  Biso   1.000  C
  C34      1.0000 0.42710  0.40390  0.58750  Biso   1.000  C
  C35      1.0000 0.34370  0.37300  0.57010  Biso   1.000  C
  C36      1.0000 0.28590  0.37570  0.61490  Biso   1.000  C
  C37      1.0000 0.63420  0.47480  0.07200  Biso   1.000  C
  C38      1.0000 0.63530  0.53390  0.02540  Biso   1.000  C
  C39      1.0000 0.59650  0.50890  0.96080  Biso   1.000  C
  C40      1.0000 0.55670  0.42280  0.94420  Biso   1.000  C
  C41      1.0000 0.55530  0.36390  0.99060  Biso   1.000  C
  C42      1.0000 0.59260  0.38970  0.05480  Biso   1.000  C
  C43      1.0000 0.67980  0.50540  0.14080  Biso   1.000  C
  C44      1.0000 0.56060  0.61330  0.80610  Biso   1.000  C
  C45      1.0000 0.55980  0.55170  0.84800  Biso   1.000  C
  C46      1.0000 0.59610  0.57290  0.91250  Biso   1.000  C
  C47      1.0000 0.62700  0.65630  0.92990  Biso   1.000  C
  C48      1.0000 0.62430  0.71410  0.88510  Biso   1.000  C
  C49      1.0000 0.52520  0.15940  0.07200  Biso   1.000  C
  C50      1.0000 0.46610  0.10140  0.02540  Biso   1.000  C
  C51      1.0000 0.49110  0.08760  0.96080  Biso   1.000  C
  C52      1.0000 0.57720  0.13390  0.94420  Biso   1.000  C
  C53      1.0000 0.63610  0.19140  0.99060  Biso   1.000  C
  C54      1.0000 0.61030  0.20290  0.05480  Biso   1.000  C
  C55      1.0000 0.49460  0.17440  0.14080  Biso   1.000  C
  C56      1.0000 0.38670  0.94730  0.80610  Biso   1.000  C
  C57      1.0000 0.44830  0.00810  0.84800  Biso   1.000  C
  C58      1.0000 0.42710  0.02320  0.91250  Biso   1.000  C
  C59      1.0000 0.34370  0.97070  0.92990  Biso   1.000  C
  C60      1.0000 0.28590  0.91020  0.88510  Biso   1.000  C
  C61      1.0000 0.84060  0.36580  0.07200  Biso   1.000  C
  C62      1.0000 0.89860  0.36470  0.02540  Biso   1.000  C
  C63      1.0000 0.91240  0.40350  0.96080  Biso   1.000  C
  C64      1.0000 0.86610  0.44330  0.94420  Biso   1.000  C
  C65      1.0000 0.80860  0.44470  0.99060  Biso   1.000  C
  C66      1.0000 0.79710  0.40740  0.05480  Biso   1.000  C
  C67      1.0000 0.82560  0.32020  0.14080  Biso   1.000  C
  C68      1.0000 0.05270  0.43940  0.80610  Biso   1.000  C
  C69      1.0000 0.99190  0.44020  0.84800  Biso   1.000  C
  C70      1.0000 0.97680  0.40390  0.91250  Biso   1.000  C
  C71      1.0000 0.02930  0.37300  0.92990  Biso   1.000  C
  C72      1.0000 0.08980  0.37570  0.88510  Biso   1.000  C
  C73      1.0000 0.15940  0.52520  0.57200  Biso   1.000  C
  C74      1.0000 0.10140  0.46610  0.52540  Biso   1.000  C
  C75      1.0000 0.08760  0.49110  0.46080  Biso   1.000  C
  C76      1.0000 0.13390  0.57720  0.44420  Biso   1.000  C
  C77      1.0000 0.19140  0.63610  0.49060  Biso   1.000  C
  C78      1.0000 0.20290  0.61030  0.55480  Biso   1.000  C
  C79      1.0000 0.17440  0.49460  0.64080  Biso   1.000  C
  C80      1.0000 0.94730  0.38670  0.30610  Biso   1.000  C
  C81      1.0000 0.00810  0.44830  0.34800  Biso   1.000  C
  C82      1.0000 0.02320  0.42710  0.41250  Biso   1.000  C
  C83      1.0000 0.97070  0.34370  0.42990  Biso   1.000  C
  C84      1.0000 0.91020  0.28590  0.38510  Biso   1.000  C
  C85      1.0000 0.36580  0.84060  0.57200  Biso   1.000  C
  C86      1.0000 0.36470  0.89860  0.52540  Biso   1.000  C
  C87      1.0000 0.40350  0.91240  0.46080  Biso   1.000  C
  C88      1.0000 0.44330  0.86610  0.44420  Biso   1.000  C
  C89      1.0000 0.44470  0.80860  0.49060  Biso   1.000  C
  C90      1.0000 0.40740  0.79710  0.55480  Biso   1.000  C
  C91      1.0000 0.32020  0.82560  0.64080  Biso   1.000  C
  C92      1.0000 0.43940  0.05270  0.30610  Biso   1.000  C
  C93      1.0000 0.44020  0.99190  0.34800  Biso   1.000  C
  C94      1.0000 0.40390  0.97680  0.41250  Biso   1.000  C
  C95      1.0000 0.37300  0.02930  0.42990  Biso   1.000  C
  C96      1.0000 0.37570  0.08980  0.38510  Biso   1.000  C
  C97      1.0000 0.47480  0.63420  0.57200  Biso   1.000  C
  C98      1.0000 0.53390  0.63530  0.52540  Biso   1.000  C
  C99      1.0000 0.50890  0.59650  0.46080  Biso   1.000  C
  C100     1.0000 0.42280  0.55670  0.44420  Biso   1.000  C
  C101     1.0000 0.36390  0.55530  0.49060  Biso   1.000  C
  C102     1.0000 0.38970  0.59260  0.55480  Biso   1.000  C
  C103     1.0000 0.50540  0.67980  0.64080  Biso   1.000  C
  C104     1.0000 0.61330  0.56060  0.30610  Biso   1.000  C
  C105     1.0000 0.55170  0.55980  0.34800  Biso   1.000  C
  C106     1.0000 0.57290  0.59610  0.41250  Biso   1.000  C
  C107     1.0000 0.65630  0.62700  0.42990  Biso   1.000  C
  C108     1.0000 0.71410  0.62430  0.38510  Biso   1.000  C
  C109     1.0000 0.36580  0.52520  0.92800  Biso   1.000  C
  C110     1.0000 0.36470  0.46610  0.97460  Biso   1.000  C
  C111     1.0000 0.40350  0.49110  0.03920  Biso   1.000  C
  C112     1.0000 0.44330  0.57720  0.05580  Biso   1.000  C
  C113     1.0000 0.44470  0.63610  0.00940  Biso   1.000  C
  C114     1.0000 0.40740  0.61030  0.94520  Biso   1.000  C
  C115     1.0000 0.32020  0.49460  0.85920  Biso   1.000  C
  C116     1.0000 0.43940  0.38670  0.19390  Biso   1.000  C
  C117     1.0000 0.44020  0.44830  0.15200  Biso   1.000  C
  C118     1.0000 0.40390  0.42710  0.08750  Biso   1.000  C
  C119     1.0000 0.37300  0.34370  0.07010  Biso   1.000  C
  C120     1.0000 0.37570  0.28590  0.11490  Biso   1.000  C
  C121     1.0000 0.47480  0.84060  0.92800  Biso   1.000  C
  C122     1.0000 0.53390  0.89860  0.97460  Biso   1.000  C
  C123     1.0000 0.50890  0.91240  0.03920  Biso   1.000  C
  C124     1.0000 0.42280  0.86610  0.05580  Biso   1.000  C
  C125     1.0000 0.36390  0.80860  0.00940  Biso   1.000  C
  C126     1.0000 0.38970  0.79710  0.94520  Biso   1.000  C
  C127     1.0000 0.50540  0.82560  0.85920  Biso   1.000  C
  C128     1.0000 0.61330  0.05270  0.19390  Biso   1.000  C
  C129     1.0000 0.55170  0.99190  0.15200  Biso   1.000  C
  C130     1.0000 0.57290  0.97680  0.08750  Biso   1.000  C
  C131     1.0000 0.65630  0.02930  0.07010  Biso   1.000  C
  C132     1.0000 0.71410  0.08980  0.11490  Biso   1.000  C
  C133     1.0000 0.15940  0.63420  0.92800  Biso   1.000  C
  C134     1.0000 0.10140  0.63530  0.97460  Biso   1.000  C
  C135     1.0000 0.08760  0.59650  0.03920  Biso   1.000  C
  C136     1.0000 0.13390  0.55670  0.05580  Biso   1.000  C
  C137     1.0000 0.19140  0.55530  0.00940  Biso   1.000  C
  C138     1.0000 0.20290  0.59260  0.94520  Biso   1.000  C
  C139     1.0000 0.17440  0.67980  0.85920  Biso   1.000  C
  C140     1.0000 0.94730  0.56060  0.19390  Biso   1.000  C
  C141     1.0000 0.00810  0.55980  0.15200  Biso   1.000  C
  C142     1.0000 0.02320  0.59610  0.08750  Biso   1.000  C
  C143     1.0000 0.97070  0.62700  0.07010  Biso   1.000  C
  C144     1.0000 0.91020  0.62430  0.11490  Biso   1.000  C
  N1       1.0000 0.10160  0.69370  0.67780  Biso   1.000  N
  N2       1.0000 0.59210  0.89840  0.67780  Biso   1.000  N
  N3       1.0000 0.30630  0.40790  0.67780  Biso   1.000  N
  N4       1.0000 0.59210  0.69370  0.82220  Biso   1.000  N
  N5       1.0000 0.30630  0.89840  0.82220  Biso   1.000  N
  N6       1.0000 0.10160  0.40790  0.82220  Biso   1.000  N
  N7       1.0000 0.89840  0.30630  0.32220  Biso   1.000  N
  N8       1.0000 0.40790  0.10160  0.32220  Biso   1.000  N
  N9       1.0000 0.69370  0.59210  0.32220  Biso   1.000  N
  N10      1.0000 0.40790  0.30630  0.17780  Biso   1.000  N
  N11      1.0000 0.69370  0.10160  0.17780  Biso   1.000  N
  N12      1.0000 0.89840  0.59210  0.17780  Biso   1.000  N
  O1       1.0000 0.86680  0.58400  0.34717  Biso   1.000  O
  O2       1.0000 0.77290  0.45270  0.31781  Biso   1.000  O
  O3       1.0000 0.71720  0.13320  0.34717  Biso   1.000  O
  O4       1.0000 0.67980  0.22710  0.31781  Biso   1.000  O
  O5       1.0000 0.41600  0.28280  0.34717  Biso   1.000  O
  O6       1.0000 0.54730  0.32020  0.31781  Biso   1.000  O
  O7       1.0000 0.71720  0.58400  0.15283  Biso   1.000  O
  O8       1.0000 0.67980  0.45270  0.18219  Biso   1.000  O
  O9       1.0000 0.41600  0.13320  0.15283  Biso   1.000  O
  O10      1.0000 0.54730  0.22710  0.18219  Biso   1.000  O
  O11      1.0000 0.86680  0.28280  0.15283  Biso   1.000  O
  O12      1.0000 0.77290  0.32020  0.18219  Biso   1.000  O
  O13      1.0000 0.13320  0.41600  0.65283  Biso   1.000  O
  O14      1.0000 0.22710  0.54730  0.68219  Biso   1.000  O
  O15      1.0000 0.28280  0.86680  0.65283  Biso   1.000  O
  O16      1.0000 0.32020  0.77290  0.68219  Biso   1.000  O
  O17      1.0000 0.58400  0.71720  0.65283  Biso   1.000  O
  O18      1.0000 0.45270  0.67980  0.68219  Biso   1.000  O
  O19      1.0000 0.28280  0.41600  0.84717  Biso   1.000  O
  O20      1.0000 0.32020  0.54730  0.81781  Biso   1.000  O
  O21      1.0000 0.58400  0.86680  0.84717  Biso   1.000  O
  O22      1.0000 0.45270  0.77290  0.81781  Biso   1.000  O
  O23      1.0000 0.13320  0.71720  0.84717  Biso   1.000  O
  O24      1.0000 0.22710  0.67980  0.81781  Biso   1.000  O
