data_image0
_cell_length_a       10.0903
_cell_length_b       10.0903
_cell_length_c       21.2568
_cell_angle_alpha    90
_cell_angle_beta     90
_cell_angle_gamma    120

_symmetry_space_group_name_H-M    P 1
_symmetry_int_tables_number       1

loop_
  _symmetry_equiv_pos_as_xyz
  'x, y, z'

loop_
  _atom_site_label
  _atom_site_occupancy
  _atom_site_fract_x
  _atom_site_fract_y
  _atom_site_fract_z
  _atom_site_thermal_displace_type
  _atom_site_B_iso_or_equiv
  _atom_site_type_symbol
  Cd1      1.0000 0.91181  0.08818  0.75000  Biso   1.000  Cd
  Cd2      1.0000 0.17637  0.08818  0.41667  Biso   1.000  Cd
  Cd3      1.0000 0.91181  0.82362  0.08333  Biso   1.000  Cd
  Cd4      1.0000 0.08818  0.91181  0.25000  Biso   1.000  Cd
  Cd5      1.0000 0.82363  0.91182  0.91667  Biso   1.000  Cd
  Cd6      1.0000 0.08818  0.17637  0.58333  Biso   1.000  Cd
  H1       1.0000 0.21032  0.39891  0.80602  Biso   1.000  H
  H2       1.0000 0.44173  0.51080  0.64326  Biso   1.000  H
  H3       1.0000 0.18859  0.78968  0.47269  Biso   1.000  H
  H4       1.0000 0.06907  0.55827  0.30993  Biso   1.000  H
  H5       1.0000 0.60109  0.81141  0.13935  Biso   1.000  H
  H6       1.0000 0.48920  0.93093  0.97659  Biso   1.000  H
  H7       1.0000 0.78968  0.60109  0.30602  Biso   1.000  H
  H8       1.0000 0.55827  0.48920  0.14326  Biso   1.000  H
  H9       1.0000 0.81141  0.21032  0.97269  Biso   1.000  H
  H10      1.0000 0.93093  0.44173  0.80993  Biso   1.000  H
  H11      1.0000 0.39891  0.18859  0.63935  Biso   1.000  H
  H12      1.0000 0.51080  0.06907  0.47659  Biso   1.000  H
  H13      1.0000 0.81141  0.60109  0.86065  Biso   1.000  H
  H14      1.0000 0.93093  0.48920  0.02341  Biso   1.000  H
  H15      1.0000 0.39891  0.21032  0.19398  Biso   1.000  H
  H16      1.0000 0.51080  0.44173  0.35674  Biso   1.000  H
  H17      1.0000 0.78968  0.18859  0.52731  Biso   1.000  H
  H18      1.0000 0.55827  0.06907  0.69007  Biso   1.000  H
  H19      1.0000 0.18859  0.39891  0.36065  Biso   1.000  H
  H20      1.0000 0.06907  0.51080  0.52341  Biso   1.000  H
  H21      1.0000 0.60109  0.78968  0.69398  Biso   1.000  H
  H22      1.0000 0.48920  0.55827  0.85674  Biso   1.000  H
  H23      1.0000 0.21032  0.81141  0.02731  Biso   1.000  H
  H24      1.0000 0.44173  0.93093  0.19007  Biso   1.000  H
  C1       1.0000 0.36993  0.50100  0.73506  Biso   1.000  C
  C2       1.0000 0.23701  0.39735  0.76328  Biso   1.000  C
  C3       1.0000 0.36408  0.45879  0.67391  Biso   1.000  C
  C4       1.0000 0.13107  0.63007  0.40173  Biso   1.000  C
  C5       1.0000 0.16034  0.76299  0.42995  Biso   1.000  C
  C6       1.0000 0.09471  0.63592  0.34058  Biso   1.000  C
  C7       1.0000 0.49900  0.86893  0.06839  Biso   1.000  C
  C8       1.0000 0.60265  0.83966  0.09661  Biso   1.000  C
  C9       1.0000 0.54121  0.90529  0.00724  Biso   1.000  C
  C10      1.0000 0.63007  0.49900  0.23506  Biso   1.000  C
  C11      1.0000 0.76299  0.60265  0.26328  Biso   1.000  C
  C12      1.0000 0.63592  0.54121  0.17391  Biso   1.000  C
  C13      1.0000 0.86893  0.36993  0.90173  Biso   1.000  C
  C14      1.0000 0.83966  0.23701  0.92995  Biso   1.000  C
  C15      1.0000 0.90529  0.36408  0.84058  Biso   1.000  C
  C16      1.0000 0.50100  0.13107  0.56839  Biso   1.000  C
  C17      1.0000 0.39735  0.16034  0.59661  Biso   1.000  C
  C18      1.0000 0.45879  0.09471  0.50724  Biso   1.000  C
  C19      1.0000 0.86893  0.49900  0.93161  Biso   1.000  C
  C20      1.0000 0.83966  0.60265  0.90339  Biso   1.000  C
  C21      1.0000 0.90529  0.54121  0.99276  Biso   1.000  C
  C22      1.0000 0.50100  0.36993  0.26494  Biso   1.000  C
  C23      1.0000 0.39735  0.23701  0.23672  Biso   1.000  C
  C24      1.0000 0.45879  0.36408  0.32609  Biso   1.000  C
  C25      1.0000 0.63007  0.13107  0.59827  Biso   1.000  C
  C26      1.0000 0.76299  0.16034  0.57005  Biso   1.000  C
  C27      1.0000 0.63592  0.09471  0.65942  Biso   1.000  C
  C28      1.0000 0.13107  0.50100  0.43161  Biso   1.000  C
  C29      1.0000 0.16034  0.39735  0.40339  Biso   1.000  C
  C30      1.0000 0.09471  0.45879  0.49276  Biso   1.000  C
  C31      1.0000 0.49900  0.63007  0.76494  Biso   1.000  C
  C32      1.0000 0.60265  0.76299  0.73672  Biso   1.000  C
  C33      1.0000 0.54121  0.63592  0.82609  Biso   1.000  C
  C34      1.0000 0.36993  0.86893  0.09827  Biso   1.000  C
  C35      1.0000 0.23701  0.83966  0.07005  Biso   1.000  C
  C36      1.0000 0.36408  0.90529  0.15942  Biso   1.000  C
  N1       1.0000 0.14901  0.29110  0.71956  Biso   1.000  N
  N2       1.0000 0.22754  0.32907  0.66433  Biso   1.000  N
  N3       1.0000 0.14209  0.85099  0.38623  Biso   1.000  N
  N4       1.0000 0.10153  0.77246  0.33100  Biso   1.000  N
  N5       1.0000 0.70890  0.85791  0.05289  Biso   1.000  N
  N6       1.0000 0.67093  0.89847  0.99766  Biso   1.000  N
  N7       1.0000 0.85099  0.70890  0.21956  Biso   1.000  N
  N8       1.0000 0.77246  0.67093  0.16433  Biso   1.000  N
  N9       1.0000 0.85791  0.14901  0.88623  Biso   1.000  N
  N10      1.0000 0.89847  0.22754  0.83100  Biso   1.000  N
  N11      1.0000 0.29110  0.14209  0.55289  Biso   1.000  N
  N12      1.0000 0.32907  0.10153  0.49766  Biso   1.000  N
  N13      1.0000 0.85791  0.70890  0.94711  Biso   1.000  N
  N14      1.0000 0.89847  0.67093  0.00234  Biso   1.000  N
  N15      1.0000 0.29110  0.14901  0.28044  Biso   1.000  N
  N16      1.0000 0.32907  0.22754  0.33567  Biso   1.000  N
  N17      1.0000 0.85099  0.14209  0.61377  Biso   1.000  N
  N18      1.0000 0.77246  0.10153  0.66900  Biso   1.000  N
  N19      1.0000 0.14209  0.29110  0.44711  Biso   1.000  N
  N20      1.0000 0.10153  0.32907  0.50234  Biso   1.000  N
  N21      1.0000 0.70890  0.85099  0.78044  Biso   1.000  N
  N22      1.0000 0.67093  0.77246  0.83567  Biso   1.000  N
  N23      1.0000 0.14901  0.85791  0.11377  Biso   1.000  N
  N24      1.0000 0.22754  0.89847  0.16900  Biso   1.000  N
