data_image0
_cell_length_a       14.9414
_cell_length_b       15.9918
_cell_length_c       16.0381
_cell_angle_alpha    90
_cell_angle_beta     90
_cell_angle_gamma    90

_symmetry_space_group_name_H-M    P 1
_symmetry_int_tables_number       1

loop_
  _symmetry_equiv_pos_as_xyz
  'x, y, z'

loop_
  _atom_site_label
  _atom_site_occupancy
  _atom_site_fract_x
  _atom_site_fract_y
  _atom_site_fract_z
  _atom_site_thermal_displace_type
  _atom_site_B_iso_or_equiv
  _atom_site_type_symbol
  Na1      1.0000 0.56207  0.05301  0.96230  Biso   1.000  Na
  Na2      1.0000 0.93793  0.94699  0.46230  Biso   1.000  Na
  Na3      1.0000 0.43793  0.55301  0.53770  Biso   1.000  Na
  Na4      1.0000 0.06207  0.44699  0.03770  Biso   1.000  Na
  Co1      1.0000 0.14421  0.13324  0.64511  Biso   1.000  Co
  Co2      1.0000 0.35579  0.86676  0.14511  Biso   1.000  Co
  Co3      1.0000 0.85579  0.63324  0.85489  Biso   1.000  Co
  Co4      1.0000 0.64421  0.36676  0.35489  Biso   1.000  Co
  H1       1.0000 0.59110  0.68670  0.96010  Biso   1.000  H
  H2       1.0000 0.64480  0.90640  0.05100  Biso   1.000  H
  H3       1.0000 0.57980  0.77590  0.06370  Biso   1.000  H
  H4       1.0000 0.81260  0.88550  0.01470  Biso   1.000  H
  H5       1.0000 0.83770  0.86770  0.92150  Biso   1.000  H
  H6       1.0000 0.68700  0.87090  0.88230  Biso   1.000  H
  H7       1.0000 0.46320  0.11760  0.11480  Biso   1.000  H
  H8       1.0000 0.40700  0.19740  0.24140  Biso   1.000  H
  H9       1.0000 0.46170  0.19350  0.32490  Biso   1.000  H
  H10      1.0000 0.63760  0.18610  0.13490  Biso   1.000  H
  H11      1.0000 0.39050  0.96060  0.89750  Biso   1.000  H
  H12      1.0000 0.47480  0.06690  0.25200  Biso   1.000  H
  H13      1.0000 0.39830  0.96810  0.73790  Biso   1.000  H
  H14      1.0000 0.39610  0.05620  0.69500  Biso   1.000  H
  H15      1.0000 0.38490  0.12290  0.82470  Biso   1.000  H
  H16      1.0000 0.25460  0.91550  0.81150  Biso   1.000  H
  H17      1.0000 0.16960  0.97310  0.80990  Biso   1.000  H
  H18      1.0000 0.57180  0.31810  0.12690  Biso   1.000  H
  H19      1.0000 0.47650  0.27850  0.11550  Biso   1.000  H
  H20      1.0000 0.62230  0.06790  0.26410  Biso   1.000  H
  H21      1.0000 0.23950  0.12090  0.93570  Biso   1.000  H
  H22      1.0000 0.73120  0.77270  0.09950  Biso   1.000  H
  H23      1.0000 0.70800  0.68750  0.05570  Biso   1.000  H
  H24      1.0000 0.24160  0.98200  0.94100  Biso   1.000  H
  H25      1.0000 0.61070  0.21780  0.00630  Biso   1.000  H
  H26      1.0000 0.37190  0.03820  0.00420  Biso   1.000  H
  H27      1.0000 0.72160  0.99690  0.88320  Biso   1.000  H
  H28      1.0000 0.23500  0.12000  0.78100  Biso   1.000  H
  H29      1.0000 0.62550  0.21860  0.27810  Biso   1.000  H
  H30      1.0000 0.71100  0.72400  0.89200  Biso   1.000  H
  H31      1.0000 0.51900  0.08600  0.79500  Biso   1.000  H
  H32      1.0000 0.54150  0.99850  0.13130  Biso   1.000  H
  H33      1.0000 0.50030  0.88770  0.98680  Biso   1.000  H
  H34      1.0000 0.90890  0.31330  0.46010  Biso   1.000  H
  H35      1.0000 0.85520  0.09360  0.55100  Biso   1.000  H
  H36      1.0000 0.92020  0.22410  0.56370  Biso   1.000  H
  H37      1.0000 0.68740  0.11450  0.51470  Biso   1.000  H
  H38      1.0000 0.66230  0.13230  0.42150  Biso   1.000  H
  H39      1.0000 0.81300  0.12910  0.38230  Biso   1.000  H
  H40      1.0000 0.03680  0.88240  0.61480  Biso   1.000  H
  H41      1.0000 0.09300  0.80260  0.74140  Biso   1.000  H
  H42      1.0000 0.03830  0.80650  0.82490  Biso   1.000  H
  H43      1.0000 0.86240  0.81390  0.63490  Biso   1.000  H
  H44      1.0000 0.10950  0.03940  0.39750  Biso   1.000  H
  H45      1.0000 0.02520  0.93310  0.75200  Biso   1.000  H
  H46      1.0000 0.10170  0.03190  0.23790  Biso   1.000  H
  H47      1.0000 0.10390  0.94380  0.19500  Biso   1.000  H
  H48      1.0000 0.11510  0.87710  0.32470  Biso   1.000  H
  H49      1.0000 0.24540  0.08450  0.31150  Biso   1.000  H
  H50      1.0000 0.33040  0.02690  0.30990  Biso   1.000  H
  H51      1.0000 0.92820  0.68190  0.62690  Biso   1.000  H
  H52      1.0000 0.02350  0.72150  0.61550  Biso   1.000  H
  H53      1.0000 0.87770  0.93210  0.76410  Biso   1.000  H
  H54      1.0000 0.26050  0.87910  0.43570  Biso   1.000  H
  H55      1.0000 0.76880  0.22730  0.59950  Biso   1.000  H
  H56      1.0000 0.79200  0.31250  0.55570  Biso   1.000  H
  H57      1.0000 0.25840  0.01800  0.44100  Biso   1.000  H
  H58      1.0000 0.88930  0.78220  0.50630  Biso   1.000  H
  H59      1.0000 0.12810  0.96180  0.50420  Biso   1.000  H
  H60      1.0000 0.77840  0.00310  0.38320  Biso   1.000  H
  H61      1.0000 0.26500  0.88000  0.28100  Biso   1.000  H
  H62      1.0000 0.87450  0.78140  0.77810  Biso   1.000  H
  H63      1.0000 0.78900  0.27600  0.39200  Biso   1.000  H
  H64      1.0000 0.98100  0.91400  0.29500  Biso   1.000  H
  H65      1.0000 0.95850  0.00150  0.63130  Biso   1.000  H
  H66      1.0000 0.99970  0.11230  0.48680  Biso   1.000  H
  H67      1.0000 0.40890  0.18670  0.53990  Biso   1.000  H
  H68      1.0000 0.35520  0.40640  0.44900  Biso   1.000  H
  H69      1.0000 0.42020  0.27590  0.43630  Biso   1.000  H
  H70      1.0000 0.18740  0.38550  0.48530  Biso   1.000  H
  H71      1.0000 0.16230  0.36770  0.57850  Biso   1.000  H
  H72      1.0000 0.31300  0.37090  0.61770  Biso   1.000  H
  H73      1.0000 0.53680  0.61760  0.38520  Biso   1.000  H
  H74      1.0000 0.59300  0.69740  0.25860  Biso   1.000  H
  H75      1.0000 0.53830  0.69350  0.17510  Biso   1.000  H
  H76      1.0000 0.36240  0.68610  0.36510  Biso   1.000  H
  H77      1.0000 0.60950  0.46060  0.60250  Biso   1.000  H
  H78      1.0000 0.52520  0.56690  0.24800  Biso   1.000  H
  H79      1.0000 0.60170  0.46810  0.76210  Biso   1.000  H
  H80      1.0000 0.60390  0.55620  0.80500  Biso   1.000  H
  H81      1.0000 0.61510  0.62290  0.67530  Biso   1.000  H
  H82      1.0000 0.74540  0.41550  0.68850  Biso   1.000  H
  H83      1.0000 0.83040  0.47310  0.69010  Biso   1.000  H
  H84      1.0000 0.42820  0.81810  0.37310  Biso   1.000  H
  H85      1.0000 0.52350  0.77850  0.38450  Biso   1.000  H
  H86      1.0000 0.37770  0.56790  0.23590  Biso   1.000  H
  H87      1.0000 0.76050  0.62090  0.56430  Biso   1.000  H
  H88      1.0000 0.26880  0.27270  0.40050  Biso   1.000  H
  H89      1.0000 0.29200  0.18750  0.44430  Biso   1.000  H
  H90      1.0000 0.75840  0.48200  0.55900  Biso   1.000  H
  H91      1.0000 0.38930  0.71780  0.49370  Biso   1.000  H
  H92      1.0000 0.62810  0.53820  0.49580  Biso   1.000  H
  H93      1.0000 0.27840  0.49690  0.61680  Biso   1.000  H
  H94      1.0000 0.76500  0.62000  0.71900  Biso   1.000  H
  H95      1.0000 0.37450  0.71860  0.22190  Biso   1.000  H
  H96      1.0000 0.28900  0.22400  0.60800  Biso   1.000  H
  H97      1.0000 0.48100  0.58600  0.70500  Biso   1.000  H
  H98      1.0000 0.45850  0.49850  0.36870  Biso   1.000  H
  H99      1.0000 0.49970  0.38770  0.51320  Biso   1.000  H
  H100     1.0000 0.09110  0.81330  0.03990  Biso   1.000  H
  H101     1.0000 0.14480  0.59360  0.94900  Biso   1.000  H
  H102     1.0000 0.07980  0.72410  0.93630  Biso   1.000  H
  H103     1.0000 0.31260  0.61450  0.98530  Biso   1.000  H
  H104     1.0000 0.33770  0.63230  0.07850  Biso   1.000  H
  H105     1.0000 0.18700  0.62910  0.11770  Biso   1.000  H
  H106     1.0000 0.96320  0.38240  0.88520  Biso   1.000  H
  H107     1.0000 0.90700  0.30260  0.75860  Biso   1.000  H
  H108     1.0000 0.96170  0.30650  0.67510  Biso   1.000  H
  H109     1.0000 0.13760  0.31390  0.86510  Biso   1.000  H
  H110     1.0000 0.89050  0.53940  0.10250  Biso   1.000  H
  H111     1.0000 0.97480  0.43310  0.74800  Biso   1.000  H
  H112     1.0000 0.89830  0.53190  0.26210  Biso   1.000  H
  H113     1.0000 0.89610  0.44380  0.30500  Biso   1.000  H
  H114     1.0000 0.88490  0.37710  0.17530  Biso   1.000  H
  H115     1.0000 0.75460  0.58450  0.18850  Biso   1.000  H
  H116     1.0000 0.66960  0.52690  0.19010  Biso   1.000  H
  H117     1.0000 0.07180  0.18190  0.87310  Biso   1.000  H
  H118     1.0000 0.97650  0.22150  0.88450  Biso   1.000  H
  H119     1.0000 0.12230  0.43210  0.73590  Biso   1.000  H
  H120     1.0000 0.73950  0.37910  0.06430  Biso   1.000  H
  H121     1.0000 0.23120  0.72730  0.90050  Biso   1.000  H
  H122     1.0000 0.20800  0.81250  0.94430  Biso   1.000  H
  H123     1.0000 0.74160  0.51800  0.05900  Biso   1.000  H
  H124     1.0000 0.11070  0.28220  0.99370  Biso   1.000  H
  H125     1.0000 0.87190  0.46180  0.99580  Biso   1.000  H
  H126     1.0000 0.22160  0.50310  0.11680  Biso   1.000  H
  H127     1.0000 0.73500  0.38000  0.21900  Biso   1.000  H
  H128     1.0000 0.12550  0.28140  0.72190  Biso   1.000  H
  H129     1.0000 0.21100  0.77600  0.10800  Biso   1.000  H
  H130     1.0000 0.01900  0.41400  0.20500  Biso   1.000  H
  H131     1.0000 0.04150  0.50150  0.86870  Biso   1.000  H
  H132     1.0000 0.00030  0.61230  0.01320  Biso   1.000  H
  C1       1.0000 0.63115  0.87644  0.99925  Biso   1.000  C
  C2       1.0000 0.62347  0.78338  0.01865  Biso   1.000  C
  C3       1.0000 0.79301  0.85774  0.96417  Biso   1.000  C
  C4       1.0000 0.70384  0.89510  0.93620  Biso   1.000  C
  C5       1.0000 0.52258  0.11487  0.14062  Biso   1.000  C
  C6       1.0000 0.46686  0.19427  0.26460  Biso   1.000  C
  C7       1.0000 0.57673  0.19032  0.11246  Biso   1.000  C
  C8       1.0000 0.36690  0.01781  0.89771  Biso   1.000  C
  C9       1.0000 0.51149  0.11487  0.23550  Biso   1.000  C
  C10      1.0000 0.37364  0.02406  0.74180  Biso   1.000  C
  C11      1.0000 0.40475  0.06452  0.82308  Biso   1.000  C
  C12      1.0000 0.23449  0.97313  0.81255  Biso   1.000  C
  C13      1.0000 0.53402  0.27135  0.14261  Biso   1.000  C
  C14      1.0000 0.71366  0.74728  0.04705  Biso   1.000  C
  C15      1.0000 0.26458  0.01408  0.89345  Biso   1.000  C
  C16      1.0000 0.24018  0.97600  0.65634  Biso   1.000  C
  C17      1.0000 0.87593  0.72902  0.00931  Biso   1.000  C
  C18      1.0000 0.78577  0.76468  0.98019  Biso   1.000  C
  C19      1.0000 0.47430  0.35214  0.26583  Biso   1.000  C
  C20      1.0000 0.52068  0.27174  0.23757  Biso   1.000  C
  C21      1.0000 0.27204  0.01940  0.73673  Biso   1.000  C
  C22      1.0000 0.86885  0.12356  0.49925  Biso   1.000  C
  C23      1.0000 0.87653  0.21662  0.51865  Biso   1.000  C
  C24      1.0000 0.70699  0.14226  0.46417  Biso   1.000  C
  C25      1.0000 0.79616  0.10490  0.43620  Biso   1.000  C
  C26      1.0000 0.97742  0.88513  0.64062  Biso   1.000  C
  C27      1.0000 0.03314  0.80573  0.76460  Biso   1.000  C
  C28      1.0000 0.92327  0.80968  0.61246  Biso   1.000  C
  C29      1.0000 0.13310  0.98219  0.39771  Biso   1.000  C
  C30      1.0000 0.98851  0.88513  0.73550  Biso   1.000  C
  C31      1.0000 0.12636  0.97594  0.24180  Biso   1.000  C
  C32      1.0000 0.09525  0.93548  0.32308  Biso   1.000  C
  C33      1.0000 0.26551  0.02687  0.31255  Biso   1.000  C
  C34      1.0000 0.96598  0.72865  0.64261  Biso   1.000  C
  C35      1.0000 0.78634  0.25272  0.54705  Biso   1.000  C
  C36      1.0000 0.23542  0.98592  0.39345  Biso   1.000  C
  C37      1.0000 0.25982  0.02400  0.15634  Biso   1.000  C
  C38      1.0000 0.62407  0.27098  0.50931  Biso   1.000  C
  C39      1.0000 0.71423  0.23532  0.48019  Biso   1.000  C
  C40      1.0000 0.02570  0.64786  0.76583  Biso   1.000  C
  C41      1.0000 0.97932  0.72826  0.73757  Biso   1.000  C
  C42      1.0000 0.22796  0.98060  0.23673  Biso   1.000  C
  C43      1.0000 0.36885  0.37644  0.50075  Biso   1.000  C
  C44      1.0000 0.37653  0.28338  0.48135  Biso   1.000  C
  C45      1.0000 0.20699  0.35774  0.53583  Biso   1.000  C
  C46      1.0000 0.29616  0.39510  0.56380  Biso   1.000  C
  C47      1.0000 0.47742  0.61487  0.35938  Biso   1.000  C
  C48      1.0000 0.53314  0.69427  0.23540  Biso   1.000  C
  C49      1.0000 0.42327  0.69032  0.38754  Biso   1.000  C
  C50      1.0000 0.63310  0.51781  0.60229  Biso   1.000  C
  C51      1.0000 0.48851  0.61487  0.26450  Biso   1.000  C
  C52      1.0000 0.62636  0.52406  0.75820  Biso   1.000  C
  C53      1.0000 0.59525  0.56452  0.67692  Biso   1.000  C
  C54      1.0000 0.76551  0.47313  0.68745  Biso   1.000  C
  C55      1.0000 0.46598  0.77135  0.35739  Biso   1.000  C
  C56      1.0000 0.28634  0.24728  0.45295  Biso   1.000  C
  C57      1.0000 0.73542  0.51408  0.60655  Biso   1.000  C
  C58      1.0000 0.75982  0.47600  0.84366  Biso   1.000  C
  C59      1.0000 0.12407  0.22902  0.49069  Biso   1.000  C
  C60      1.0000 0.21423  0.26468  0.51981  Biso   1.000  C
  C61      1.0000 0.52570  0.85214  0.23417  Biso   1.000  C
  C62      1.0000 0.47932  0.77174  0.26243  Biso   1.000  C
  C63      1.0000 0.72796  0.51940  0.76327  Biso   1.000  C
  C64      1.0000 0.13115  0.62356  0.00075  Biso   1.000  C
  C65      1.0000 0.12347  0.71662  0.98135  Biso   1.000  C
  C66      1.0000 0.29301  0.64226  0.03583  Biso   1.000  C
  C67      1.0000 0.20384  0.60490  0.06380  Biso   1.000  C
  C68      1.0000 0.02258  0.38513  0.85938  Biso   1.000  C
  C69      1.0000 0.96686  0.30573  0.73540  Biso   1.000  C
  C70      1.0000 0.07673  0.30968  0.88754  Biso   1.000  C
  C71      1.0000 0.86690  0.48219  0.10229  Biso   1.000  C
  C72      1.0000 0.01149  0.38513  0.76450  Biso   1.000  C
  C73      1.0000 0.87364  0.47594  0.25820  Biso   1.000  C
  C74      1.0000 0.90475  0.43548  0.17692  Biso   1.000  C
  C75      1.0000 0.73449  0.52687  0.18745  Biso   1.000  C
  C76      1.0000 0.03402  0.22865  0.85739  Biso   1.000  C
  C77      1.0000 0.21366  0.75272  0.95295  Biso   1.000  C
  C78      1.0000 0.76458  0.48592  0.10655  Biso   1.000  C
  C79      1.0000 0.74018  0.52400  0.34366  Biso   1.000  C
  C80      1.0000 0.37593  0.77098  0.99069  Biso   1.000  C
  C81      1.0000 0.28577  0.73532  0.01981  Biso   1.000  C
  C82      1.0000 0.97430  0.14786  0.73417  Biso   1.000  C
  C83      1.0000 0.02068  0.22826  0.76243  Biso   1.000  C
  C84      1.0000 0.77204  0.48060  0.26327  Biso   1.000  C
  O1       1.0000 0.26812  0.90411  0.64449  Biso   1.000  O
  O2       1.0000 0.39588  0.36184  0.24343  Biso   1.000  O
  O3       1.0000 0.91268  0.76007  0.07073  Biso   1.000  O
  O4       1.0000 0.59435  0.73628  0.94767  Biso   1.000  O
  O5       1.0000 0.54974  0.90850  0.96572  Biso   1.000  O
  O6       1.0000 0.39680  0.05906  0.97126  Biso   1.000  O
  O7       1.0000 0.59602  0.11070  0.27785  Biso   1.000  O
  O8       1.0000 0.22499  0.09592  0.89317  Biso   1.000  O
  O9       1.0000 0.58033  0.18812  0.02267  Biso   1.000  O
  O10      1.0000 0.50099  0.06131  0.82973  Biso   1.000  O
  O11      1.0000 0.56636  0.04147  0.11275  Biso   1.000  O
  O12      1.0000 0.70880  0.98417  0.92818  Biso   1.000  O
  O13      1.0000 0.18524  0.01522  0.60941  Biso   1.000  O
  O14      1.0000 0.76356  0.72145  0.90423  Biso   1.000  O
  O15      1.0000 0.51830  0.40339  0.31139  Biso   1.000  O
  O16      1.0000 0.23677  0.10414  0.73412  Biso   1.000  O
  O17      1.0000 0.60784  0.27007  0.27655  Biso   1.000  O
  O18      1.0000 0.90899  0.66922  0.96657  Biso   1.000  O
  O19      1.0000 0.23188  0.09589  0.14449  Biso   1.000  O
  O20      1.0000 0.10412  0.63816  0.74343  Biso   1.000  O
  O21      1.0000 0.58732  0.23993  0.57073  Biso   1.000  O
  O22      1.0000 0.90565  0.26372  0.44767  Biso   1.000  O
  O23      1.0000 0.95026  0.09150  0.46572  Biso   1.000  O
  O24      1.0000 0.10320  0.94094  0.47126  Biso   1.000  O
  O25      1.0000 0.90398  0.88930  0.77785  Biso   1.000  O
  O26      1.0000 0.27501  0.90408  0.39317  Biso   1.000  O
  O27      1.0000 0.91967  0.81188  0.52267  Biso   1.000  O
  O28      1.0000 0.99901  0.93869  0.32973  Biso   1.000  O
  O29      1.0000 0.93364  0.95853  0.61275  Biso   1.000  O
  O30      1.0000 0.79120  0.01583  0.42818  Biso   1.000  O
  O31      1.0000 0.31476  0.98478  0.10941  Biso   1.000  O
  O32      1.0000 0.73644  0.27855  0.40423  Biso   1.000  O
  O33      1.0000 0.98170  0.59661  0.81139  Biso   1.000  O
  O34      1.0000 0.26323  0.89586  0.23412  Biso   1.000  O
  O35      1.0000 0.89216  0.72993  0.77655  Biso   1.000  O
  O36      1.0000 0.59101  0.33078  0.46657  Biso   1.000  O
  O37      1.0000 0.73188  0.40411  0.85551  Biso   1.000  O
  O38      1.0000 0.60412  0.86184  0.25657  Biso   1.000  O
  O39      1.0000 0.08732  0.26007  0.42927  Biso   1.000  O
  O40      1.0000 0.40565  0.23628  0.55233  Biso   1.000  O
  O41      1.0000 0.45026  0.40850  0.53428  Biso   1.000  O
  O42      1.0000 0.60320  0.55906  0.52874  Biso   1.000  O
  O43      1.0000 0.40398  0.61070  0.22215  Biso   1.000  O
  O44      1.0000 0.77501  0.59592  0.60683  Biso   1.000  O
  O45      1.0000 0.41967  0.68812  0.47733  Biso   1.000  O
  O46      1.0000 0.49901  0.56131  0.67027  Biso   1.000  O
  O47      1.0000 0.43364  0.54147  0.38725  Biso   1.000  O
  O48      1.0000 0.29120  0.48417  0.57182  Biso   1.000  O
  O49      1.0000 0.81476  0.51522  0.89059  Biso   1.000  O
  O50      1.0000 0.23644  0.22145  0.59577  Biso   1.000  O
  O51      1.0000 0.48170  0.90339  0.18861  Biso   1.000  O
  O52      1.0000 0.76323  0.60414  0.76588  Biso   1.000  O
  O53      1.0000 0.39216  0.77007  0.22345  Biso   1.000  O
  O54      1.0000 0.09101  0.16922  0.53343  Biso   1.000  O
  O55      1.0000 0.76812  0.59589  0.35551  Biso   1.000  O
  O56      1.0000 0.89588  0.13816  0.75657  Biso   1.000  O
  O57      1.0000 0.41268  0.73993  0.92927  Biso   1.000  O
  O58      1.0000 0.09435  0.76372  0.05233  Biso   1.000  O
  O59      1.0000 0.04974  0.59150  0.03428  Biso   1.000  O
  O60      1.0000 0.89680  0.44094  0.02874  Biso   1.000  O
  O61      1.0000 0.09602  0.38930  0.72215  Biso   1.000  O
  O62      1.0000 0.72499  0.40408  0.10683  Biso   1.000  O
  O63      1.0000 0.08033  0.31188  0.97733  Biso   1.000  O
  O64      1.0000 0.00099  0.43869  0.17027  Biso   1.000  O
  O65      1.0000 0.06636  0.45853  0.88725  Biso   1.000  O
  O66      1.0000 0.20880  0.51583  0.07182  Biso   1.000  O
  O67      1.0000 0.68524  0.48478  0.39059  Biso   1.000  O
  O68      1.0000 0.26356  0.77855  0.09577  Biso   1.000  O
  O69      1.0000 0.01830  0.09661  0.68861  Biso   1.000  O
  O70      1.0000 0.73677  0.39586  0.26588  Biso   1.000  O
  O71      1.0000 0.10784  0.22993  0.72345  Biso   1.000  O
  O72      1.0000 0.40899  0.83078  0.03343  Biso   1.000  O
