data_GAZZIS03_charged
_audit_creation_date              2014-07-02
_audit_creation_method            'Materials Studio'
_symmetry_space_group_name_H-M    'P1'
_symmetry_Int_Tables_number       1
_symmetry_cell_setting            triclinic
loop_
_symmetry_equiv_pos_as_xyz
  x,y,z
_cell_length_a                    17.3391
_cell_length_b                    17.3391
_cell_length_c                    26.5620
_cell_angle_alpha                 93.8464
_cell_angle_beta                  93.8464
_cell_angle_gamma                 110.6790
loop_
_atom_site_label
_atom_site_type_symbol
_atom_site_fract_x
_atom_site_fract_y
_atom_site_fract_z
_atom_site_U_iso_or_equiv
_atom_site_adp_type
_atom_site_occupancy
In1    In    0.37054   0.85778   0.88482   0.01267  Uiso   1.00
In2    In    0.85778   0.37054   0.38482   0.01267  Uiso   1.00
H1     H     0.21220   0.76420   0.02360   0.01267  Uiso   1.00
H2     H     0.09560   0.68480   0.06000   0.01267  Uiso   1.00
H3     H     0.96900   0.62300   0.92180   0.01267  Uiso   1.00
H4     H     0.08460   0.70520   0.88620   0.01267  Uiso   1.00
H5     H     0.80230   0.34450   0.21120   0.01267  Uiso   1.00
H6     H     0.79750   0.37610   0.12830   0.01267  Uiso   1.00
H7     H     0.98670   0.59310   0.16700   0.01267  Uiso   1.00
H8     H     0.99090   0.56210   0.24970   0.01267  Uiso   1.00
H9     H     0.38920   0.13980   0.86940   0.01267  Uiso   1.00
H10    H     0.46090   0.28190   0.88320   0.01267  Uiso   1.00
H11    H     0.60050   0.24510   0.00030   0.01267  Uiso   1.00
H12    H     0.53240   0.10420   0.98510   0.01267  Uiso   1.00
H13    H     0.60030   0.76370   0.90340   0.01267  Uiso   1.00
H14    H     0.66480   0.66780   0.92080   0.01267  Uiso   1.00
H15    H     0.44060   0.49560   0.93560   0.01267  Uiso   1.00
H16    H     0.37870   0.58770   0.91260   0.01267  Uiso   1.00
H17    H     0.76010   0.44790   0.07150   0.01267  Uiso   1.00
H18    H     0.86010   0.58530   0.95880   0.01267  Uiso   1.00
H19    H     0.00610   0.57930   0.08260   0.01267  Uiso   1.00
H20    H     0.71030   0.59670   0.97170   0.01267  Uiso   1.00
H21    H     0.69100   0.36040   0.98630   0.01267  Uiso   1.00
H22    H     0.49750   0.40790   0.92140   0.01267  Uiso   1.00
H23    H     0.76420   0.21220   0.52360   0.01267  Uiso   1.00
H24    H     0.68480   0.09560   0.56000   0.01267  Uiso   1.00
H25    H     0.62300   0.96900   0.42180   0.01267  Uiso   1.00
H26    H     0.70520   0.08460   0.38620   0.01267  Uiso   1.00
H27    H     0.34450   0.80230   0.71120   0.01267  Uiso   1.00
H28    H     0.37610   0.79750   0.62830   0.01267  Uiso   1.00
H29    H     0.59310   0.98670   0.66700   0.01267  Uiso   1.00
H30    H     0.56210   0.99090   0.74970   0.01267  Uiso   1.00
H31    H     0.13980   0.38920   0.36940   0.01267  Uiso   1.00
H32    H     0.28190   0.46090   0.38320   0.01267  Uiso   1.00
H33    H     0.24510   0.60050   0.50030   0.01267  Uiso   1.00
H34    H     0.10420   0.53240   0.48510   0.01267  Uiso   1.00
H35    H     0.76370   0.60030   0.40340   0.01267  Uiso   1.00
H36    H     0.66780   0.66480   0.42080   0.01267  Uiso   1.00
H37    H     0.49560   0.44060   0.43560   0.01267  Uiso   1.00
H38    H     0.58770   0.37870   0.41260   0.01267  Uiso   1.00
H39    H     0.44790   0.76010   0.57150   0.01267  Uiso   1.00
H40    H     0.58530   0.86010   0.45880   0.01267  Uiso   1.00
H41    H     0.57930   0.00610   0.58260   0.01267  Uiso   1.00
H42    H     0.59670   0.71030   0.47170   0.01267  Uiso   1.00
H43    H     0.36040   0.69100   0.48630   0.01267  Uiso   1.00
H44    H     0.40790   0.49750   0.42140   0.01267  Uiso   1.00
C1     C     0.16039   0.74349   0.95197   0.01267  Uiso   1.00
C2     C     0.16211   0.73591   0.00258   0.01267  Uiso   1.00
C3     C     0.09290   0.68802   0.02440   0.01267  Uiso   1.00
C4     C     0.01948   0.64470   0.99420   0.01267  Uiso   1.00
C5     C     0.01854   0.65222   0.94311   0.01267  Uiso   1.00
C6     C     0.08727   0.70089   0.92165   0.01267  Uiso   1.00
C7     C     0.89652   0.45060   0.23920   0.01267  Uiso   1.00
C8     C     0.83967   0.39553   0.20231   0.01267  Uiso   1.00
C9     C     0.83705   0.41445   0.15304   0.01267  Uiso   1.00
C10    C     0.89101   0.48841   0.13844   0.01267  Uiso   1.00
C11    C     0.94854   0.54250   0.17581   0.01267  Uiso   1.00
C12    C     0.95111   0.52403   0.22492   0.01267  Uiso   1.00
C13    C     0.45584   0.10764   0.92448   0.01267  Uiso   1.00
C14    C     0.43375   0.16123   0.89542   0.01267  Uiso   1.00
C15    C     0.47599   0.24595   0.90399   0.01267  Uiso   1.00
C16    C     0.53976   0.27888   0.94238   0.01267  Uiso   1.00
C17    C     0.55850   0.22374   0.97283   0.01267  Uiso   1.00
C18    C     0.51797   0.14019   0.96405   0.01267  Uiso   1.00
C19    C     0.48087   0.68511   0.90849   0.01267  Uiso   1.00
C20    C     0.55684   0.57204   0.93149   0.01267  Uiso   1.00
C21    C     0.56780   0.70900   0.90990   0.01267  Uiso   1.00
C22    C     0.60650   0.65250   0.92070   0.01267  Uiso   1.00
C23    C     0.47400   0.54980   0.92880   0.01267  Uiso   1.00
C24    C     0.43750   0.60590   0.91610   0.01267  Uiso   1.00
C25    C     0.88432   0.51110   0.08593   0.01267  Uiso   1.00
C26    C     0.80707   0.48465   0.05792   0.01267  Uiso   1.00
C27    C     0.79801   0.51115   0.01065   0.01267  Uiso   1.00
C28    C     0.86681   0.56527   0.99058   0.01267  Uiso   1.00
C29    C     0.94521   0.59009   0.01691   0.01267  Uiso   1.00
C30    C     0.95283   0.56261   0.06436   0.01267  Uiso   1.00
C31    C     0.59721   0.51227   0.94522   0.01267  Uiso   1.00
C32    C     0.67824   0.53910   0.96729   0.01267  Uiso   1.00
C33    C     0.71306   0.48284   0.98300   0.01267  Uiso   1.00
C34    C     0.66720   0.39872   0.97529   0.01267  Uiso   1.00
C35    C     0.58701   0.36957   0.95172   0.01267  Uiso   1.00
C36    C     0.55259   0.42699   0.93717   0.01267  Uiso   1.00
C37    C     0.23609   0.79171   0.92867   0.01267  Uiso   1.00
C38    C     0.89689   0.43371   0.29389   0.01267  Uiso   1.00
C39    C     0.41641   0.01641   0.91249   0.01267  Uiso   1.00
C40    C     0.43907   0.74525   0.89827   0.01267  Uiso   1.00
C41    C     0.74349   0.16039   0.45197   0.01267  Uiso   1.00
C42    C     0.73591   0.16211   0.50258   0.01267  Uiso   1.00
C43    C     0.68802   0.09290   0.52440   0.01267  Uiso   1.00
C44    C     0.64470   0.01948   0.49420   0.01267  Uiso   1.00
C45    C     0.65222   0.01854   0.44311   0.01267  Uiso   1.00
C46    C     0.70089   0.08727   0.42165   0.01267  Uiso   1.00
C47    C     0.45060   0.89652   0.73920   0.01267  Uiso   1.00
C48    C     0.39553   0.83967   0.70231   0.01267  Uiso   1.00
C49    C     0.41445   0.83705   0.65304   0.01267  Uiso   1.00
C50    C     0.48841   0.89101   0.63844   0.01267  Uiso   1.00
C51    C     0.54250   0.94854   0.67581   0.01267  Uiso   1.00
C52    C     0.52403   0.95111   0.72492   0.01267  Uiso   1.00
C53    C     0.10764   0.45584   0.42448   0.01267  Uiso   1.00
C54    C     0.16123   0.43375   0.39542   0.01267  Uiso   1.00
C55    C     0.24595   0.47599   0.40399   0.01267  Uiso   1.00
C56    C     0.27888   0.53976   0.44238   0.01267  Uiso   1.00
C57    C     0.22374   0.55850   0.47283   0.01267  Uiso   1.00
C58    C     0.14019   0.51797   0.46405   0.01267  Uiso   1.00
C59    C     0.68511   0.48087   0.40849   0.01267  Uiso   1.00
C60    C     0.57204   0.55684   0.43149   0.01267  Uiso   1.00
C61    C     0.70900   0.56780   0.40990   0.01267  Uiso   1.00
C62    C     0.65250   0.60650   0.42070   0.01267  Uiso   1.00
C63    C     0.54980   0.47400   0.42880   0.01267  Uiso   1.00
C64    C     0.60590   0.43750   0.41610   0.01267  Uiso   1.00
C65    C     0.51110   0.88432   0.58593   0.01267  Uiso   1.00
C66    C     0.48465   0.80707   0.55792   0.01267  Uiso   1.00
C67    C     0.51115   0.79801   0.51065   0.01267  Uiso   1.00
C68    C     0.56527   0.86681   0.49058   0.01267  Uiso   1.00
C69    C     0.59009   0.94521   0.51691   0.01267  Uiso   1.00
C70    C     0.56261   0.95283   0.56436   0.01267  Uiso   1.00
C71    C     0.51227   0.59721   0.44522   0.01267  Uiso   1.00
C72    C     0.53910   0.67824   0.46729   0.01267  Uiso   1.00
C73    C     0.48284   0.71306   0.48300   0.01267  Uiso   1.00
C74    C     0.39872   0.66720   0.47529   0.01267  Uiso   1.00
C75    C     0.36957   0.58701   0.45172   0.01267  Uiso   1.00
C76    C     0.42699   0.55259   0.43717   0.01267  Uiso   1.00
C77    C     0.79171   0.23609   0.42867   0.01267  Uiso   1.00
C78    C     0.43371   0.89689   0.79389   0.01267  Uiso   1.00
C79    C     0.01641   0.41641   0.41249   0.01267  Uiso   1.00
C80    C     0.74525   0.43907   0.39827   0.01267  Uiso   1.00
O1     O     0.23302   0.79766   0.88132   0.01267  Uiso   1.00
O2     O     0.30398   0.82548   0.95559   0.01267  Uiso   1.00
O3     O     0.84419   0.36673   0.30492   0.01267  Uiso   1.00
O4     O     0.94714   0.48536   0.32675   0.01267  Uiso   1.00
O5     O     0.35261   0.98397   0.88208   0.01267  Uiso   1.00
O6     O     0.45188   0.97124   0.93216   0.01267  Uiso   1.00
O7     O     0.48029   0.82183   0.90397   0.01267  Uiso   1.00
O8     O     0.36331   0.72037   0.88494   0.01267  Uiso   1.00
O9     O     0.79766   0.23302   0.38132   0.01267  Uiso   1.00
O10    O     0.82548   0.30398   0.45559   0.01267  Uiso   1.00
O11    O     0.36673   0.84419   0.80492   0.01267  Uiso   1.00
O12    O     0.48536   0.94714   0.82675   0.01267  Uiso   1.00
O13    O     0.98397   0.35261   0.38208   0.01267  Uiso   1.00
O14    O     0.97124   0.45188   0.43216   0.01267  Uiso   1.00
O15    O     0.82183   0.48029   0.40397   0.01267  Uiso   1.00
O16    O     0.72037   0.36331   0.38494   0.01267  Uiso   1.00
In3    In    0.14222   0.62946   0.61518   0.01267  Uiso   1.00
In4    In    0.62946   0.14222   0.11518   0.01267  Uiso   1.00
H45    H     0.23580   0.78780   0.47640   0.01267  Uiso   1.00
H46    H     0.31520   0.90440   0.44000   0.01267  Uiso   1.00
H47    H     0.37700   0.03100   0.57820   0.01267  Uiso   1.00
H48    H     0.29480   0.91540   0.61380   0.01267  Uiso   1.00
H49    H     0.65550   0.19770   0.28880   0.01267  Uiso   1.00
H50    H     0.62390   0.20250   0.37170   0.01267  Uiso   1.00
H51    H     0.40690   0.01330   0.33300   0.01267  Uiso   1.00
H52    H     0.43790   0.00910   0.25030   0.01267  Uiso   1.00
H53    H     0.86020   0.61080   0.63060   0.01267  Uiso   1.00
H54    H     0.71810   0.53910   0.61680   0.01267  Uiso   1.00
H55    H     0.75490   0.39950   0.49970   0.01267  Uiso   1.00
H56    H     0.89580   0.46760   0.51490   0.01267  Uiso   1.00
H57    H     0.23630   0.39970   0.59660   0.01267  Uiso   1.00
H58    H     0.33220   0.33520   0.57920   0.01267  Uiso   1.00
H59    H     0.50440   0.55940   0.56440   0.01267  Uiso   1.00
H60    H     0.41230   0.62130   0.58740   0.01267  Uiso   1.00
H61    H     0.55210   0.23990   0.42850   0.01267  Uiso   1.00
H62    H     0.41470   0.13990   0.54120   0.01267  Uiso   1.00
H63    H     0.42070   0.99390   0.41740   0.01267  Uiso   1.00
H64    H     0.40330   0.28970   0.52830   0.01267  Uiso   1.00
H65    H     0.63960   0.30900   0.51370   0.01267  Uiso   1.00
H66    H     0.59210   0.50250   0.57860   0.01267  Uiso   1.00
H67    H     0.78780   0.23580   0.97640   0.01267  Uiso   1.00
H68    H     0.90440   0.31520   0.94000   0.01267  Uiso   1.00
H69    H     0.03100   0.37700   0.07820   0.01267  Uiso   1.00
H70    H     0.91540   0.29480   0.11380   0.01267  Uiso   1.00
H71    H     0.19770   0.65550   0.78880   0.01267  Uiso   1.00
H72    H     0.20250   0.62390   0.87170   0.01267  Uiso   1.00
H73    H     0.01330   0.40690   0.83300   0.01267  Uiso   1.00
H74    H     0.00910   0.43790   0.75030   0.01267  Uiso   1.00
H75    H     0.61080   0.86020   0.13060   0.01267  Uiso   1.00
H76    H     0.53910   0.71810   0.11680   0.01267  Uiso   1.00
H77    H     0.39950   0.75490   0.99970   0.01267  Uiso   1.00
H78    H     0.46760   0.89580   0.01490   0.01267  Uiso   1.00
H79    H     0.39970   0.23630   0.09660   0.01267  Uiso   1.00
H80    H     0.33520   0.33220   0.07920   0.01267  Uiso   1.00
H81    H     0.55940   0.50440   0.06440   0.01267  Uiso   1.00
H82    H     0.62130   0.41230   0.08740   0.01267  Uiso   1.00
H83    H     0.23990   0.55210   0.92850   0.01267  Uiso   1.00
H84    H     0.13990   0.41470   0.04120   0.01267  Uiso   1.00
H85    H     0.99390   0.42070   0.91740   0.01267  Uiso   1.00
H86    H     0.28970   0.40330   0.02830   0.01267  Uiso   1.00
H87    H     0.30900   0.63960   0.01370   0.01267  Uiso   1.00
H88    H     0.50250   0.59210   0.07860   0.01267  Uiso   1.00
C81    C     0.25651   0.83961   0.54803   0.01267  Uiso   1.00
C82    C     0.26409   0.83789   0.49742   0.01267  Uiso   1.00
C83    C     0.31198   0.90710   0.47560   0.01267  Uiso   1.00
C84    C     0.35530   0.98052   0.50580   0.01267  Uiso   1.00
C85    C     0.34778   0.98146   0.55689   0.01267  Uiso   1.00
C86    C     0.29911   0.91273   0.57835   0.01267  Uiso   1.00
C87    C     0.54940   0.10348   0.26080   0.01267  Uiso   1.00
C88    C     0.60447   0.16033   0.29769   0.01267  Uiso   1.00
C89    C     0.58555   0.16295   0.34696   0.01267  Uiso   1.00
C90    C     0.51159   0.10899   0.36156   0.01267  Uiso   1.00
C91    C     0.45750   0.05146   0.32419   0.01267  Uiso   1.00
C92    C     0.47597   0.04889   0.27508   0.01267  Uiso   1.00
C93    C     0.89236   0.54416   0.57552   0.01267  Uiso   1.00
C94    C     0.83877   0.56625   0.60458   0.01267  Uiso   1.00
C95    C     0.75405   0.52401   0.59601   0.01267  Uiso   1.00
C96    C     0.72112   0.46024   0.55762   0.01267  Uiso   1.00
C97    C     0.77626   0.44150   0.52717   0.01267  Uiso   1.00
C98    C     0.85981   0.48203   0.53595   0.01267  Uiso   1.00
C99    C     0.31489   0.51913   0.59151   0.01267  Uiso   1.00
C100   C     0.42796   0.44316   0.56851   0.01267  Uiso   1.00
C101   C     0.29100   0.43220   0.59010   0.01267  Uiso   1.00
C102   C     0.34750   0.39350   0.57930   0.01267  Uiso   1.00
C103   C     0.45020   0.52600   0.57120   0.01267  Uiso   1.00
C104   C     0.39410   0.56250   0.58390   0.01267  Uiso   1.00
C105   C     0.48890   0.11568   0.41407   0.01267  Uiso   1.00
C106   C     0.51535   0.19293   0.44208   0.01267  Uiso   1.00
C107   C     0.48885   0.20199   0.48935   0.01267  Uiso   1.00
C108   C     0.43473   0.13319   0.50942   0.01267  Uiso   1.00
C109   C     0.40991   0.05479   0.48309   0.01267  Uiso   1.00
C110   C     0.43739   0.04717   0.43564   0.01267  Uiso   1.00
C111   C     0.48773   0.40279   0.55478   0.01267  Uiso   1.00
C112   C     0.46090   0.32176   0.53271   0.01267  Uiso   1.00
C113   C     0.51716   0.28694   0.51700   0.01267  Uiso   1.00
C114   C     0.60128   0.33280   0.52471   0.01267  Uiso   1.00
C115   C     0.63043   0.41299   0.54828   0.01267  Uiso   1.00
C116   C     0.57301   0.44741   0.56283   0.01267  Uiso   1.00
C117   C     0.20829   0.76391   0.57133   0.01267  Uiso   1.00
C118   C     0.56629   0.10311   0.20611   0.01267  Uiso   1.00
C119   C     0.98359   0.58359   0.58751   0.01267  Uiso   1.00
C120   C     0.25475   0.56093   0.60173   0.01267  Uiso   1.00
C121   C     0.83961   0.25651   0.04803   0.01267  Uiso   1.00
C122   C     0.83789   0.26409   0.99742   0.01267  Uiso   1.00
C123   C     0.90710   0.31198   0.97560   0.01267  Uiso   1.00
C124   C     0.98052   0.35530   0.00580   0.01267  Uiso   1.00
C125   C     0.98146   0.34778   0.05689   0.01267  Uiso   1.00
C126   C     0.91273   0.29911   0.07835   0.01267  Uiso   1.00
C127   C     0.10348   0.54940   0.76080   0.01267  Uiso   1.00
C128   C     0.16033   0.60447   0.79769   0.01267  Uiso   1.00
C129   C     0.16295   0.58555   0.84696   0.01267  Uiso   1.00
C130   C     0.10899   0.51159   0.86156   0.01267  Uiso   1.00
C131   C     0.05146   0.45750   0.82419   0.01267  Uiso   1.00
C132   C     0.04889   0.47597   0.77508   0.01267  Uiso   1.00
C133   C     0.54416   0.89236   0.07552   0.01267  Uiso   1.00
C134   C     0.56625   0.83877   0.10458   0.01267  Uiso   1.00
C135   C     0.52401   0.75405   0.09601   0.01267  Uiso   1.00
C136   C     0.46024   0.72112   0.05762   0.01267  Uiso   1.00
C137   C     0.44150   0.77626   0.02717   0.01267  Uiso   1.00
C138   C     0.48203   0.85981   0.03595   0.01267  Uiso   1.00
C139   C     0.51913   0.31489   0.09151   0.01267  Uiso   1.00
C140   C     0.44316   0.42796   0.06851   0.01267  Uiso   1.00
C141   C     0.43220   0.29100   0.09010   0.01267  Uiso   1.00
C142   C     0.39350   0.34750   0.07930   0.01267  Uiso   1.00
C143   C     0.52600   0.45020   0.07120   0.01267  Uiso   1.00
C144   C     0.56250   0.39410   0.08390   0.01267  Uiso   1.00
C145   C     0.11568   0.48890   0.91407   0.01267  Uiso   1.00
C146   C     0.19293   0.51535   0.94208   0.01267  Uiso   1.00
C147   C     0.20199   0.48885   0.98935   0.01267  Uiso   1.00
C148   C     0.13319   0.43473   0.00942   0.01267  Uiso   1.00
C149   C     0.05479   0.40991   0.98309   0.01267  Uiso   1.00
C150   C     0.04717   0.43739   0.93564   0.01267  Uiso   1.00
C151   C     0.40279   0.48773   0.05478   0.01267  Uiso   1.00
C152   C     0.32176   0.46090   0.03271   0.01267  Uiso   1.00
C153   C     0.28694   0.51716   0.01700   0.01267  Uiso   1.00
C154   C     0.33280   0.60128   0.02471   0.01267  Uiso   1.00
C155   C     0.41299   0.63043   0.04828   0.01267  Uiso   1.00
C156   C     0.44741   0.57301   0.06283   0.01267  Uiso   1.00
C157   C     0.76391   0.20829   0.07133   0.01267  Uiso   1.00
C158   C     0.10311   0.56629   0.70611   0.01267  Uiso   1.00
C159   C     0.58359   0.98359   0.08751   0.01267  Uiso   1.00
C160   C     0.56093   0.25475   0.10173   0.01267  Uiso   1.00
O17    O     0.20234   0.76698   0.61868   0.01267  Uiso   1.00
O18    O     0.17452   0.69602   0.54441   0.01267  Uiso   1.00
O19    O     0.63327   0.15581   0.19508   0.01267  Uiso   1.00
O20    O     0.51464   0.05286   0.17325   0.01267  Uiso   1.00
O21    O     0.01603   0.64739   0.61792   0.01267  Uiso   1.00
O22    O     0.02876   0.54812   0.56784   0.01267  Uiso   1.00
O23    O     0.17817   0.51971   0.59603   0.01267  Uiso   1.00
O24    O     0.27963   0.63669   0.61506   0.01267  Uiso   1.00
O25    O     0.76698   0.20234   0.11868   0.01267  Uiso   1.00
O26    O     0.69602   0.17452   0.04441   0.01267  Uiso   1.00
O27    O     0.15581   0.63327   0.69508   0.01267  Uiso   1.00
O28    O     0.05286   0.51464   0.67325   0.01267  Uiso   1.00
O29    O     0.64739   0.01603   0.11792   0.01267  Uiso   1.00
O30    O     0.54812   0.02876   0.06784   0.01267  Uiso   1.00
O31    O     0.51971   0.17817   0.09603   0.01267  Uiso   1.00
O32    O     0.63669   0.27963   0.11506   0.01267  Uiso   1.00
H89    H     0.63510   0.95170   0.88580   0.01267  Uiso   1.00
H90    H     0.56490   0.97210   0.90430   0.01267  Uiso   1.00
H91    H     0.62730   0.92830   0.96840   0.01267  Uiso   1.00
H92    H     0.71220   0.00180   0.96190   0.01267  Uiso   1.00
H93    H     0.63600   0.02260   0.98180   0.01267  Uiso   1.00
H94    H     0.63390   0.07310   0.85560   0.01267  Uiso   1.00
H95    H     0.64480   0.11240   0.91310   0.01267  Uiso   1.00
H96    H     0.71790   0.08890   0.89060   0.01267  Uiso   1.00
C161   C     0.65181   0.98499   0.95901   0.01267  Uiso   1.00
C162   C     0.65770   0.07290   0.89010   0.01267  Uiso   1.00
N1     N     0.62171   0.98835   0.90690   0.01267  Uiso   1.00
H97    H     0.04830   0.36490   0.61420   0.01267  Uiso   1.00
H98    H     0.02790   0.43510   0.59570   0.01267  Uiso   1.00
H99    H     0.07170   0.37270   0.53160   0.01267  Uiso   1.00
H100   H     0.99820   0.28780   0.53810   0.01267  Uiso   1.00
H101   H     0.97740   0.36400   0.51820   0.01267  Uiso   1.00
H102   H     0.92690   0.36610   0.64440   0.01267  Uiso   1.00
H103   H     0.88760   0.35520   0.58690   0.01267  Uiso   1.00
H104   H     0.91110   0.28210   0.60940   0.01267  Uiso   1.00
C163   C     0.01501   0.34819   0.54099   0.01267  Uiso   1.00
C164   C     0.92710   0.34230   0.60990   0.01267  Uiso   1.00
N2     N     0.01165   0.37829   0.59310   0.01267  Uiso   1.00
H105   H     0.36490   0.04830   0.11420   0.01267  Uiso   1.00
H106   H     0.43510   0.02790   0.09570   0.01267  Uiso   1.00
H107   H     0.37270   0.07170   0.03160   0.01267  Uiso   1.00
H108   H     0.28780   0.99820   0.03810   0.01267  Uiso   1.00
H109   H     0.36400   0.97740   0.01820   0.01267  Uiso   1.00
H110   H     0.36610   0.92690   0.14440   0.01267  Uiso   1.00
H111   H     0.35520   0.88760   0.08690   0.01267  Uiso   1.00
H112   H     0.28210   0.91110   0.10940   0.01267  Uiso   1.00
C165   C     0.34819   0.01501   0.04099   0.01267  Uiso   1.00
C166   C     0.34230   0.92710   0.10990   0.01267  Uiso   1.00
N3     N     0.37829   0.01165   0.09310   0.01267  Uiso   1.00
H113   H     0.95170   0.63510   0.38580   0.01267  Uiso   1.00
H114   H     0.97210   0.56490   0.40430   0.01267  Uiso   1.00
H115   H     0.92830   0.62730   0.46840   0.01267  Uiso   1.00
H116   H     0.00180   0.71220   0.46190   0.01267  Uiso   1.00
H117   H     0.02260   0.63600   0.48180   0.01267  Uiso   1.00
H118   H     0.07310   0.63390   0.35560   0.01267  Uiso   1.00
H119   H     0.11240   0.64480   0.41310   0.01267  Uiso   1.00
H120   H     0.08890   0.71790   0.39060   0.01267  Uiso   1.00
C167   C     0.98499   0.65181   0.45901   0.01267  Uiso   1.00
C168   C     0.07290   0.65770   0.39010   0.01267  Uiso   1.00
N4     N     0.98835   0.62171   0.40690   0.01267  Uiso   1.00
