data_GAZZIS05_charged
_audit_creation_date              2014-07-02
_audit_creation_method            'Materials Studio'
_symmetry_space_group_name_H-M    'P1'
_symmetry_Int_Tables_number       1
_symmetry_cell_setting            triclinic
loop_
_symmetry_equiv_pos_as_xyz
  x,y,z
_cell_length_a                    17.4017
_cell_length_b                    17.4017
_cell_length_c                    27.0150
_cell_angle_alpha                 92.7626
_cell_angle_beta                  92.7626
_cell_angle_gamma                 111.7570
loop_
_atom_site_label
_atom_site_type_symbol
_atom_site_fract_x
_atom_site_fract_y
_atom_site_fract_z
_atom_site_U_iso_or_equiv
_atom_site_adp_type
_atom_site_occupancy
In1    In    0.37237   0.85491   0.88364   0.01267  Uiso   1.00
In2    In    0.85491   0.37237   0.38364   0.01267  Uiso   1.00
H1     H     0.20690   0.77050   0.02380   0.01267  Uiso   1.00
H2     H     0.08690   0.69570   0.06090   0.01267  Uiso   1.00
H3     H     0.96880   0.60980   0.92450   0.01267  Uiso   1.00
H4     H     0.08660   0.68920   0.88850   0.01267  Uiso   1.00
H5     H     0.79490   0.33830   0.21050   0.01267  Uiso   1.00
H6     H     0.78940   0.37320   0.13080   0.01267  Uiso   1.00
H7     H     0.97690   0.58990   0.16730   0.01267  Uiso   1.00
H8     H     0.97670   0.55910   0.24890   0.01267  Uiso   1.00
H9     H     0.39420   0.14080   0.86830   0.01267  Uiso   1.00
H10    H     0.46100   0.28180   0.88480   0.01267  Uiso   1.00
H11    H     0.59190   0.24030   0.99910   0.01267  Uiso   1.00
H12    H     0.53020   0.10140   0.98150   0.01267  Uiso   1.00
H13    H     0.57470   0.76210   0.95610   0.01267  Uiso   1.00
H14    H     0.62880   0.66600   0.97920   0.01267  Uiso   1.00
H15    H     0.46080   0.49380   0.89040   0.01267  Uiso   1.00
H16    H     0.39930   0.58670   0.86860   0.01267  Uiso   1.00
H17    H     0.75360   0.44660   0.07320   0.01267  Uiso   1.00
H18    H     0.85990   0.58130   0.96120   0.01267  Uiso   1.00
H19    H     0.99830   0.57710   0.08330   0.01267  Uiso   1.00
H20    H     0.70650   0.59310   0.97320   0.01267  Uiso   1.00
H21    H     0.68720   0.36000   0.98660   0.01267  Uiso   1.00
H22    H     0.49690   0.40590   0.92460   0.01267  Uiso   1.00
H23    H     0.77050   0.20690   0.52380   0.01267  Uiso   1.00
H24    H     0.69570   0.08690   0.56090   0.01267  Uiso   1.00
H25    H     0.60980   0.96880   0.42450   0.01267  Uiso   1.00
H26    H     0.68920   0.08660   0.38850   0.01267  Uiso   1.00
H27    H     0.33830   0.79490   0.71050   0.01267  Uiso   1.00
H28    H     0.37320   0.78940   0.63080   0.01267  Uiso   1.00
H29    H     0.58990   0.97690   0.66730   0.01267  Uiso   1.00
H30    H     0.55910   0.97670   0.74890   0.01267  Uiso   1.00
H31    H     0.14080   0.39420   0.36830   0.01267  Uiso   1.00
H32    H     0.28180   0.46100   0.38480   0.01267  Uiso   1.00
H33    H     0.24030   0.59190   0.49910   0.01267  Uiso   1.00
H34    H     0.10140   0.53020   0.48150   0.01267  Uiso   1.00
H35    H     0.76210   0.57470   0.45610   0.01267  Uiso   1.00
H36    H     0.66600   0.62880   0.47920   0.01267  Uiso   1.00
H37    H     0.49380   0.46080   0.39040   0.01267  Uiso   1.00
H38    H     0.58670   0.39930   0.36860   0.01267  Uiso   1.00
H39    H     0.44660   0.75360   0.57320   0.01267  Uiso   1.00
H40    H     0.58130   0.85990   0.46120   0.01267  Uiso   1.00
H41    H     0.57710   0.99830   0.58330   0.01267  Uiso   1.00
H42    H     0.59310   0.70650   0.47320   0.01267  Uiso   1.00
H43    H     0.36000   0.68720   0.48660   0.01267  Uiso   1.00
H44    H     0.40590   0.49690   0.42460   0.01267  Uiso   1.00
C1     C     0.16022   0.73878   0.95255   0.01267  Uiso   1.00
C2     C     0.15910   0.73890   0.00410   0.01267  Uiso   1.00
C3     C     0.08830   0.69290   0.02650   0.01267  Uiso   1.00
C4     C     0.01670   0.64150   0.94410   0.01267  Uiso   1.00
C5     C     0.08670   0.68910   0.92290   0.01267  Uiso   1.00
C6     C     0.01820   0.64140   0.99606   0.01267  Uiso   1.00
C7     C     0.88490   0.44370   0.23870   0.01267  Uiso   1.00
C8     C     0.83060   0.39000   0.20213   0.01267  Uiso   1.00
C9     C     0.82790   0.41030   0.15426   0.01267  Uiso   1.00
C10    C     0.88230   0.48670   0.13986   0.01267  Uiso   1.00
C11    C     0.93870   0.53990   0.17630   0.01267  Uiso   1.00
C12    C     0.93990   0.52110   0.22510   0.01267  Uiso   1.00
C13    C     0.45449   0.10651   0.92390   0.01267  Uiso   1.00
C14    C     0.43470   0.16130   0.89450   0.01267  Uiso   1.00
C15    C     0.47490   0.24550   0.90410   0.01267  Uiso   1.00
C16    C     0.53658   0.27602   0.94280   0.01267  Uiso   1.00
C17    C     0.55328   0.22012   0.97195   0.01267  Uiso   1.00
C18    C     0.51541   0.13739   0.96236   0.01267  Uiso   1.00
C19    C     0.48131   0.68389   0.90950   0.01267  Uiso   1.00
C20    C     0.55603   0.57037   0.93317   0.01267  Uiso   1.00
C21    C     0.55090   0.70770   0.94250   0.01267  Uiso   1.00
C22    C     0.58490   0.65030   0.95510   0.01267  Uiso   1.00
C23    C     0.48550   0.54870   0.90320   0.01267  Uiso   1.00
C24    C     0.44700   0.60420   0.89000   0.01267  Uiso   1.00
C25    C     0.87600   0.51000   0.08748   0.01267  Uiso   1.00
C26    C     0.80050   0.48290   0.05990   0.01267  Uiso   1.00
C27    C     0.79344   0.50956   0.01203   0.01267  Uiso   1.00
C28    C     0.86420   0.56240   0.99240   0.01267  Uiso   1.00
C29    C     0.94006   0.58754   0.01773   0.01267  Uiso   1.00
C30    C     0.94666   0.56074   0.06598   0.01267  Uiso   1.00
C31    C     0.59436   0.51064   0.94667   0.01267  Uiso   1.00
C32    C     0.67477   0.53663   0.96908   0.01267  Uiso   1.00
C33    C     0.70833   0.48107   0.98527   0.01267  Uiso   1.00
C34    C     0.66360   0.39720   0.97653   0.01267  Uiso   1.00
C35    C     0.58438   0.36662   0.95317   0.01267  Uiso   1.00
C36    C     0.55069   0.42511   0.93930   0.01267  Uiso   1.00
C37    C     0.23785   0.78635   0.92892   0.01267  Uiso   1.00
C38    C     0.88170   0.42590   0.29240   0.01267  Uiso   1.00
C39    C     0.41620   0.01320   0.90950   0.01267  Uiso   1.00
C40    C     0.43973   0.74287   0.89858   0.01267  Uiso   1.00
C41    C     0.73878   0.16022   0.45255   0.01267  Uiso   1.00
C42    C     0.73890   0.15910   0.50410   0.01267  Uiso   1.00
C43    C     0.69290   0.08830   0.52650   0.01267  Uiso   1.00
C44    C     0.64150   0.01670   0.44410   0.01267  Uiso   1.00
C45    C     0.68910   0.08670   0.42290   0.01267  Uiso   1.00
C46    C     0.64140   0.01820   0.49606   0.01267  Uiso   1.00
C47    C     0.44370   0.88490   0.73870   0.01267  Uiso   1.00
C48    C     0.39000   0.83060   0.70213   0.01267  Uiso   1.00
C49    C     0.41030   0.82790   0.65426   0.01267  Uiso   1.00
C50    C     0.48670   0.88230   0.63986   0.01267  Uiso   1.00
C51    C     0.53990   0.93870   0.67630   0.01267  Uiso   1.00
C52    C     0.52110   0.93990   0.72510   0.01267  Uiso   1.00
C53    C     0.10651   0.45449   0.42390   0.01267  Uiso   1.00
C54    C     0.16130   0.43470   0.39450   0.01267  Uiso   1.00
C55    C     0.24550   0.47490   0.40410   0.01267  Uiso   1.00
C56    C     0.27602   0.53658   0.44280   0.01267  Uiso   1.00
C57    C     0.22012   0.55328   0.47195   0.01267  Uiso   1.00
C58    C     0.13739   0.51541   0.46236   0.01267  Uiso   1.00
C59    C     0.68389   0.48131   0.40950   0.01267  Uiso   1.00
C60    C     0.57037   0.55603   0.43317   0.01267  Uiso   1.00
C61    C     0.70770   0.55090   0.44250   0.01267  Uiso   1.00
C62    C     0.65030   0.58490   0.45510   0.01267  Uiso   1.00
C63    C     0.54870   0.48550   0.40320   0.01267  Uiso   1.00
C64    C     0.60420   0.44700   0.39000   0.01267  Uiso   1.00
C65    C     0.51000   0.87600   0.58748   0.01267  Uiso   1.00
C66    C     0.48290   0.80050   0.55990   0.01267  Uiso   1.00
C67    C     0.50956   0.79344   0.51203   0.01267  Uiso   1.00
C68    C     0.56240   0.86420   0.49240   0.01267  Uiso   1.00
C69    C     0.58754   0.94006   0.51773   0.01267  Uiso   1.00
C70    C     0.56074   0.94666   0.56598   0.01267  Uiso   1.00
C71    C     0.51064   0.59436   0.44667   0.01267  Uiso   1.00
C72    C     0.53663   0.67477   0.46908   0.01267  Uiso   1.00
C73    C     0.48107   0.70833   0.48527   0.01267  Uiso   1.00
C74    C     0.39720   0.66360   0.47653   0.01267  Uiso   1.00
C75    C     0.36662   0.58438   0.45317   0.01267  Uiso   1.00
C76    C     0.42511   0.55069   0.43930   0.01267  Uiso   1.00
C77    C     0.78635   0.23785   0.42892   0.01267  Uiso   1.00
C78    C     0.42590   0.88170   0.79240   0.01267  Uiso   1.00
C79    C     0.01320   0.41620   0.40950   0.01267  Uiso   1.00
C80    C     0.74287   0.43973   0.39858   0.01267  Uiso   1.00
O1     O     0.23517   0.79649   0.88344   0.01267  Uiso   1.00
O2     O     0.30632   0.81608   0.95527   0.01267  Uiso   1.00
O3     O     0.83568   0.35512   0.30296   0.01267  Uiso   1.00
O4     O     0.92480   0.47760   0.32496   0.01267  Uiso   1.00
O5     O     0.35465   0.98361   0.87879   0.01267  Uiso   1.00
O6     O     0.44854   0.96784   0.93045   0.01267  Uiso   1.00
O7     O     0.47940   0.81924   0.90903   0.01267  Uiso   1.00
O8     O     0.36697   0.71823   0.87988   0.01267  Uiso   1.00
O9     O     0.79649   0.23517   0.38344   0.01267  Uiso   1.00
O10    O     0.81608   0.30632   0.45527   0.01267  Uiso   1.00
O11    O     0.35512   0.83568   0.80296   0.01267  Uiso   1.00
O12    O     0.47760   0.92480   0.82496   0.01267  Uiso   1.00
O13    O     0.98361   0.35465   0.37879   0.01267  Uiso   1.00
O14    O     0.96784   0.44854   0.43045   0.01267  Uiso   1.00
O15    O     0.81924   0.47940   0.40903   0.01267  Uiso   1.00
O16    O     0.71823   0.36697   0.37988   0.01267  Uiso   1.00
In3    In    0.14509   0.62763   0.61636   0.01267  Uiso   1.00
In4    In    0.62763   0.14509   0.11636   0.01267  Uiso   1.00
H45    H     0.22950   0.79310   0.47620   0.01267  Uiso   1.00
H46    H     0.30430   0.91310   0.43910   0.01267  Uiso   1.00
H47    H     0.39020   0.03120   0.57550   0.01267  Uiso   1.00
H48    H     0.31080   0.91340   0.61150   0.01267  Uiso   1.00
H49    H     0.66170   0.20510   0.28950   0.01267  Uiso   1.00
H50    H     0.62680   0.21060   0.36920   0.01267  Uiso   1.00
H51    H     0.41010   0.02310   0.33270   0.01267  Uiso   1.00
H52    H     0.44090   0.02330   0.25110   0.01267  Uiso   1.00
H53    H     0.85920   0.60580   0.63170   0.01267  Uiso   1.00
H54    H     0.71820   0.53900   0.61520   0.01267  Uiso   1.00
H55    H     0.75970   0.40810   0.50090   0.01267  Uiso   1.00
H56    H     0.89860   0.46980   0.51850   0.01267  Uiso   1.00
H57    H     0.23790   0.42530   0.54390   0.01267  Uiso   1.00
H58    H     0.33400   0.37120   0.52080   0.01267  Uiso   1.00
H59    H     0.50620   0.53920   0.60960   0.01267  Uiso   1.00
H60    H     0.41330   0.60070   0.63140   0.01267  Uiso   1.00
H61    H     0.55340   0.24640   0.42680   0.01267  Uiso   1.00
H62    H     0.41870   0.14010   0.53880   0.01267  Uiso   1.00
H63    H     0.42290   0.00170   0.41670   0.01267  Uiso   1.00
H64    H     0.40690   0.29350   0.52680   0.01267  Uiso   1.00
H65    H     0.64000   0.31280   0.51340   0.01267  Uiso   1.00
H66    H     0.59410   0.50310   0.57540   0.01267  Uiso   1.00
H67    H     0.79310   0.22950   0.97620   0.01267  Uiso   1.00
H68    H     0.91310   0.30430   0.93910   0.01267  Uiso   1.00
H69    H     0.03120   0.39020   0.07550   0.01267  Uiso   1.00
H70    H     0.91340   0.31080   0.11150   0.01267  Uiso   1.00
H71    H     0.20510   0.66170   0.78950   0.01267  Uiso   1.00
H72    H     0.21060   0.62680   0.86920   0.01267  Uiso   1.00
H73    H     0.02310   0.41010   0.83270   0.01267  Uiso   1.00
H74    H     0.02330   0.44090   0.75110   0.01267  Uiso   1.00
H75    H     0.60580   0.85920   0.13170   0.01267  Uiso   1.00
H76    H     0.53900   0.71820   0.11520   0.01267  Uiso   1.00
H77    H     0.40810   0.75970   0.00090   0.01267  Uiso   1.00
H78    H     0.46980   0.89860   0.01850   0.01267  Uiso   1.00
H79    H     0.42530   0.23790   0.04390   0.01267  Uiso   1.00
H80    H     0.37120   0.33400   0.02080   0.01267  Uiso   1.00
H81    H     0.53920   0.50620   0.10960   0.01267  Uiso   1.00
H82    H     0.60070   0.41330   0.13140   0.01267  Uiso   1.00
H83    H     0.24640   0.55340   0.92680   0.01267  Uiso   1.00
H84    H     0.14010   0.41870   0.03880   0.01267  Uiso   1.00
H85    H     0.00170   0.42290   0.91670   0.01267  Uiso   1.00
H86    H     0.29350   0.40690   0.02680   0.01267  Uiso   1.00
H87    H     0.31280   0.64000   0.01340   0.01267  Uiso   1.00
H88    H     0.50310   0.59410   0.07540   0.01267  Uiso   1.00
C81    C     0.26122   0.83978   0.54745   0.01267  Uiso   1.00
C82    C     0.26110   0.84090   0.49590   0.01267  Uiso   1.00
C83    C     0.30710   0.91170   0.47350   0.01267  Uiso   1.00
C84    C     0.35850   0.98330   0.55590   0.01267  Uiso   1.00
C85    C     0.31090   0.91330   0.57710   0.01267  Uiso   1.00
C86    C     0.35860   0.98180   0.50394   0.01267  Uiso   1.00
C87    C     0.55630   0.11510   0.26130   0.01267  Uiso   1.00
C88    C     0.61000   0.16940   0.29787   0.01267  Uiso   1.00
C89    C     0.58970   0.17210   0.34574   0.01267  Uiso   1.00
C90    C     0.51330   0.11770   0.36014   0.01267  Uiso   1.00
C91    C     0.46010   0.06130   0.32370   0.01267  Uiso   1.00
C92    C     0.47890   0.06010   0.27490   0.01267  Uiso   1.00
C93    C     0.89349   0.54551   0.57610   0.01267  Uiso   1.00
C94    C     0.83870   0.56530   0.60550   0.01267  Uiso   1.00
C95    C     0.75450   0.52510   0.59590   0.01267  Uiso   1.00
C96    C     0.72398   0.46342   0.55720   0.01267  Uiso   1.00
C97    C     0.77988   0.44672   0.52805   0.01267  Uiso   1.00
C98    C     0.86261   0.48459   0.53764   0.01267  Uiso   1.00
C99    C     0.31611   0.51869   0.59050   0.01267  Uiso   1.00
C100   C     0.42963   0.44397   0.56683   0.01267  Uiso   1.00
C101   C     0.29230   0.44910   0.55750   0.01267  Uiso   1.00
C102   C     0.34970   0.41510   0.54490   0.01267  Uiso   1.00
C103   C     0.45130   0.51450   0.59680   0.01267  Uiso   1.00
C104   C     0.39580   0.55300   0.61000   0.01267  Uiso   1.00
C105   C     0.49000   0.12400   0.41252   0.01267  Uiso   1.00
C106   C     0.51710   0.19950   0.44010   0.01267  Uiso   1.00
C107   C     0.49044   0.20656   0.48797   0.01267  Uiso   1.00
C108   C     0.43760   0.13580   0.50760   0.01267  Uiso   1.00
C109   C     0.41246   0.05994   0.48227   0.01267  Uiso   1.00
C110   C     0.43926   0.05334   0.43402   0.01267  Uiso   1.00
C111   C     0.48936   0.40564   0.55333   0.01267  Uiso   1.00
C112   C     0.46337   0.32523   0.53092   0.01267  Uiso   1.00
C113   C     0.51893   0.29167   0.51473   0.01267  Uiso   1.00
C114   C     0.60280   0.33640   0.52347   0.01267  Uiso   1.00
C115   C     0.63338   0.41562   0.54683   0.01267  Uiso   1.00
C116   C     0.57489   0.44931   0.56070   0.01267  Uiso   1.00
C117   C     0.21365   0.76215   0.57108   0.01267  Uiso   1.00
C118   C     0.57410   0.11830   0.20760   0.01267  Uiso   1.00
C119   C     0.98680   0.58380   0.59050   0.01267  Uiso   1.00
C120   C     0.25713   0.56027   0.60142   0.01267  Uiso   1.00
C121   C     0.83978   0.26122   0.04745   0.01267  Uiso   1.00
C122   C     0.84090   0.26110   0.99590   0.01267  Uiso   1.00
C123   C     0.91170   0.30710   0.97350   0.01267  Uiso   1.00
C124   C     0.98330   0.35850   0.05590   0.01267  Uiso   1.00
C125   C     0.91330   0.31090   0.07710   0.01267  Uiso   1.00
C126   C     0.98180   0.35860   0.00394   0.01267  Uiso   1.00
C127   C     0.11510   0.55630   0.76130   0.01267  Uiso   1.00
C128   C     0.16940   0.61000   0.79787   0.01267  Uiso   1.00
C129   C     0.17210   0.58970   0.84574   0.01267  Uiso   1.00
C130   C     0.11770   0.51330   0.86014   0.01267  Uiso   1.00
C131   C     0.06130   0.46010   0.82370   0.01267  Uiso   1.00
C132   C     0.06010   0.47890   0.77490   0.01267  Uiso   1.00
C133   C     0.54551   0.89349   0.07610   0.01267  Uiso   1.00
C134   C     0.56530   0.83870   0.10550   0.01267  Uiso   1.00
C135   C     0.52510   0.75450   0.09590   0.01267  Uiso   1.00
C136   C     0.46342   0.72398   0.05720   0.01267  Uiso   1.00
C137   C     0.44672   0.77988   0.02805   0.01267  Uiso   1.00
C138   C     0.48459   0.86261   0.03764   0.01267  Uiso   1.00
C139   C     0.51869   0.31611   0.09050   0.01267  Uiso   1.00
C140   C     0.44397   0.42963   0.06683   0.01267  Uiso   1.00
C141   C     0.44910   0.29230   0.05750   0.01267  Uiso   1.00
C142   C     0.41510   0.34970   0.04490   0.01267  Uiso   1.00
C143   C     0.51450   0.45130   0.09680   0.01267  Uiso   1.00
C144   C     0.55300   0.39580   0.11000   0.01267  Uiso   1.00
C145   C     0.12400   0.49000   0.91252   0.01267  Uiso   1.00
C146   C     0.19950   0.51710   0.94010   0.01267  Uiso   1.00
C147   C     0.20656   0.49044   0.98797   0.01267  Uiso   1.00
C148   C     0.13580   0.43760   0.00760   0.01267  Uiso   1.00
C149   C     0.05994   0.41246   0.98227   0.01267  Uiso   1.00
C150   C     0.05334   0.43926   0.93402   0.01267  Uiso   1.00
C151   C     0.40564   0.48936   0.05333   0.01267  Uiso   1.00
C152   C     0.32523   0.46337   0.03092   0.01267  Uiso   1.00
C153   C     0.29167   0.51893   0.01473   0.01267  Uiso   1.00
C154   C     0.33640   0.60280   0.02347   0.01267  Uiso   1.00
C155   C     0.41562   0.63338   0.04683   0.01267  Uiso   1.00
C156   C     0.44931   0.57489   0.06070   0.01267  Uiso   1.00
C157   C     0.76215   0.21365   0.07108   0.01267  Uiso   1.00
C158   C     0.11830   0.57410   0.70760   0.01267  Uiso   1.00
C159   C     0.58380   0.98680   0.09050   0.01267  Uiso   1.00
C160   C     0.56027   0.25713   0.10142   0.01267  Uiso   1.00
O17    O     0.20351   0.76483   0.61656   0.01267  Uiso   1.00
O18    O     0.18392   0.69368   0.54473   0.01267  Uiso   1.00
O19    O     0.64488   0.16432   0.19704   0.01267  Uiso   1.00
O20    O     0.52240   0.07520   0.17504   0.01267  Uiso   1.00
O21    O     0.01639   0.64535   0.62121   0.01267  Uiso   1.00
O22    O     0.03216   0.55146   0.56955   0.01267  Uiso   1.00
O23    O     0.18076   0.52060   0.59097   0.01267  Uiso   1.00
O24    O     0.28177   0.63303   0.62012   0.01267  Uiso   1.00
O25    O     0.76483   0.20351   0.11656   0.01267  Uiso   1.00
O26    O     0.69368   0.18392   0.04473   0.01267  Uiso   1.00
O27    O     0.16432   0.64488   0.69704   0.01267  Uiso   1.00
O28    O     0.07520   0.52240   0.67504   0.01267  Uiso   1.00
O29    O     0.64535   0.01639   0.12121   0.01267  Uiso   1.00
O30    O     0.55146   0.03216   0.06955   0.01267  Uiso   1.00
O31    O     0.52060   0.18076   0.09097   0.01267  Uiso   1.00
O32    O     0.63303   0.28177   0.12012   0.01267  Uiso   1.00
H89    H     0.65090   0.96370   0.88600   0.01267  Uiso   1.00
H90    H     0.57180   0.96480   0.90120   0.01267  Uiso   1.00
H91    H     0.63590   0.94010   0.97170   0.01267  Uiso   1.00
H92    H     0.71690   0.01570   0.96310   0.01267  Uiso   1.00
H93    H     0.63820   0.03080   0.97950   0.01267  Uiso   1.00
H94    H     0.62880   0.08100   0.85720   0.01267  Uiso   1.00
H95    H     0.63140   0.11160   0.91300   0.01267  Uiso   1.00
H96    H     0.71140   0.10700   0.89100   0.01267  Uiso   1.00
C161   C     0.65740   0.99480   0.96000   0.01267  Uiso   1.00
C162   C     0.65200   0.08120   0.89020   0.01267  Uiso   1.00
N1     N     0.62730   0.99130   0.90520   0.01267  Uiso   1.00
H97    H     0.03630   0.34910   0.61400   0.01267  Uiso   1.00
H98    H     0.03520   0.42820   0.59880   0.01267  Uiso   1.00
H99    H     0.05990   0.36410   0.52830   0.01267  Uiso   1.00
H100   H     0.98430   0.28310   0.53690   0.01267  Uiso   1.00
H101   H     0.96920   0.36180   0.52050   0.01267  Uiso   1.00
H102   H     0.91900   0.37120   0.64280   0.01267  Uiso   1.00
H103   H     0.88840   0.36860   0.58700   0.01267  Uiso   1.00
H104   H     0.89300   0.28860   0.60900   0.01267  Uiso   1.00
C163   C     0.00520   0.34260   0.54000   0.01267  Uiso   1.00
C164   C     0.91880   0.34800   0.60980   0.01267  Uiso   1.00
N2     N     0.00870   0.37270   0.59480   0.01267  Uiso   1.00
H105   H     0.34910   0.03630   0.11400   0.01267  Uiso   1.00
H106   H     0.42820   0.03520   0.09880   0.01267  Uiso   1.00
H107   H     0.36410   0.05990   0.02830   0.01267  Uiso   1.00
H108   H     0.28310   0.98430   0.03690   0.01267  Uiso   1.00
H109   H     0.36180   0.96920   0.02050   0.01267  Uiso   1.00
H110   H     0.37120   0.91900   0.14280   0.01267  Uiso   1.00
H111   H     0.36860   0.88840   0.08700   0.01267  Uiso   1.00
H112   H     0.28860   0.89300   0.10900   0.01267  Uiso   1.00
C165   C     0.34260   0.00520   0.04000   0.01267  Uiso   1.00
C166   C     0.34800   0.91880   0.10980   0.01267  Uiso   1.00
N3     N     0.37270   0.00870   0.09480   0.01267  Uiso   1.00
H113   H     0.96370   0.65090   0.38600   0.01267  Uiso   1.00
H114   H     0.96480   0.57180   0.40120   0.01267  Uiso   1.00
H115   H     0.94010   0.63590   0.47170   0.01267  Uiso   1.00
H116   H     0.01570   0.71690   0.46310   0.01267  Uiso   1.00
H117   H     0.03080   0.63820   0.47950   0.01267  Uiso   1.00
H118   H     0.08100   0.62880   0.35720   0.01267  Uiso   1.00
H119   H     0.11160   0.63140   0.41300   0.01267  Uiso   1.00
H120   H     0.10700   0.71140   0.39100   0.01267  Uiso   1.00
C167   C     0.99480   0.65740   0.46000   0.01267  Uiso   1.00
C168   C     0.08120   0.65200   0.39020   0.01267  Uiso   1.00
N4     N     0.99130   0.62730   0.40520   0.01267  Uiso   1.00
