data_GECRAI_charged
_audit_creation_date              2014-07-02
_audit_creation_method            'Materials Studio'
_symmetry_space_group_name_H-M    'P1'
_symmetry_Int_Tables_number       1
_symmetry_cell_setting            triclinic
loop_
_symmetry_equiv_pos_as_xyz
  x,y,z
_cell_length_a                    8.9088
_cell_length_b                    8.9088
_cell_length_c                    18.7815
_cell_angle_alpha                 82.7786
_cell_angle_beta                  82.7786
_cell_angle_gamma                 70.1780
loop_
_atom_site_label
_atom_site_type_symbol
_atom_site_fract_x
_atom_site_fract_y
_atom_site_fract_z
_atom_site_U_iso_or_equiv
_atom_site_adp_type
_atom_site_occupancy
V1     V     0.46712   0.22350   0.08849   0.01267  Uiso   1.00
V2     V     0.33361   0.20689   0.28294   0.01267  Uiso   1.00
V3     V     0.77650   0.53288   0.41151   0.01267  Uiso   1.00
V4     V     0.79311   0.66639   0.21706   0.01267  Uiso   1.00
V5     V     0.53288   0.77650   0.91151   0.01267  Uiso   1.00
V6     V     0.66639   0.79311   0.71706   0.01267  Uiso   1.00
V7     V     0.22350   0.46712   0.58849   0.01267  Uiso   1.00
V8     V     0.20689   0.33361   0.78294   0.01267  Uiso   1.00
P1     P     0.17929   0.50041   0.17148   0.01267  Uiso   1.00
P2     P     0.59890   0.83708   0.07392   0.01267  Uiso   1.00
P3     P     0.49959   0.82071   0.32852   0.01267  Uiso   1.00
P4     P     0.16292   0.40110   0.42608   0.01267  Uiso   1.00
P5     P     0.82071   0.49959   0.82852   0.01267  Uiso   1.00
P6     P     0.40110   0.16292   0.92608   0.01267  Uiso   1.00
P7     P     0.50041   0.17929   0.67148   0.01267  Uiso   1.00
P8     P     0.83708   0.59890   0.57392   0.01267  Uiso   1.00
H1     H     0.13840   0.74900   0.10770   0.01267  Uiso   1.00
H2     H     0.16530   0.75750   0.18950   0.01267  Uiso   1.00
H3     H     0.36830   0.90370   0.15240   0.01267  Uiso   1.00
H4     H     0.32350   0.91010   0.07200   0.01267  Uiso   1.00
H5     H     0.44630   0.62210   0.16400   0.01267  Uiso   1.00
H6     H     0.41720   0.62160   0.08160   0.01267  Uiso   1.00
H7     H     0.50100   0.08900   0.19600   0.01267  Uiso   1.00
H8     H     0.25100   0.86160   0.39230   0.01267  Uiso   1.00
H9     H     0.24250   0.83470   0.31050   0.01267  Uiso   1.00
H10    H     0.09630   0.63170   0.34760   0.01267  Uiso   1.00
H11    H     0.08990   0.67650   0.42800   0.01267  Uiso   1.00
H12    H     0.37790   0.55370   0.33600   0.01267  Uiso   1.00
H13    H     0.37840   0.58280   0.41840   0.01267  Uiso   1.00
H14    H     0.91100   0.49900   0.30400   0.01267  Uiso   1.00
H15    H     0.86160   0.25100   0.89230   0.01267  Uiso   1.00
H16    H     0.83470   0.24250   0.81050   0.01267  Uiso   1.00
H17    H     0.63170   0.09630   0.84760   0.01267  Uiso   1.00
H18    H     0.67650   0.08990   0.92800   0.01267  Uiso   1.00
H19    H     0.55370   0.37790   0.83600   0.01267  Uiso   1.00
H20    H     0.58280   0.37840   0.91840   0.01267  Uiso   1.00
H21    H     0.49900   0.91100   0.80400   0.01267  Uiso   1.00
H22    H     0.74900   0.13840   0.60770   0.01267  Uiso   1.00
H23    H     0.75750   0.16530   0.68950   0.01267  Uiso   1.00
H24    H     0.90370   0.36830   0.65240   0.01267  Uiso   1.00
H25    H     0.91010   0.32350   0.57200   0.01267  Uiso   1.00
H26    H     0.62210   0.44630   0.66400   0.01267  Uiso   1.00
H27    H     0.62160   0.41720   0.58160   0.01267  Uiso   1.00
H28    H     0.08900   0.50100   0.69600   0.01267  Uiso   1.00
C1     C     0.20475   0.69275   0.14771   0.01267  Uiso   1.00
C2     C     0.39817   0.84697   0.10803   0.01267  Uiso   1.00
C3     C     0.37893   0.68193   0.12485   0.01267  Uiso   1.00
C4     C     0.30725   0.79525   0.35229   0.01267  Uiso   1.00
C5     C     0.15303   0.60183   0.39197   0.01267  Uiso   1.00
C6     C     0.31807   0.62107   0.37515   0.01267  Uiso   1.00
C7     C     0.79525   0.30725   0.85229   0.01267  Uiso   1.00
C8     C     0.60183   0.15303   0.89197   0.01267  Uiso   1.00
C9     C     0.62107   0.31807   0.87515   0.01267  Uiso   1.00
C10    C     0.69275   0.20475   0.64771   0.01267  Uiso   1.00
C11    C     0.84697   0.39817   0.60803   0.01267  Uiso   1.00
C12    C     0.68193   0.37893   0.62485   0.01267  Uiso   1.00
O1     O     0.61612   0.00172   0.07557   0.01267  Uiso   1.00
O2     O     0.63135   0.78555   0.99724   0.01267  Uiso   1.00
O3     O     0.58926   0.32106   0.06918   0.01267  Uiso   1.00
O4     O     0.46220   0.15060   0.19040   0.01267  Uiso   1.00
O5     O     0.26353   0.39395   0.11024   0.01267  Uiso   1.00
O6     O     0.25339   0.43299   0.24249   0.01267  Uiso   1.00
O7     O     0.17747   0.15747   0.27584   0.01267  Uiso   1.00
O8     O     0.00141   0.52151   0.17560   0.01267  Uiso   1.00
O9     O     0.71963   0.70979   0.11925   0.01267  Uiso   1.00
O10    O     0.56970   0.26970   0.30017   0.01267  Uiso   1.00
O11    O     0.99828   0.38388   0.42443   0.01267  Uiso   1.00
O12    O     0.21445   0.36865   0.50276   0.01267  Uiso   1.00
O13    O     0.67894   0.41074   0.43082   0.01267  Uiso   1.00
O14    O     0.84940   0.53780   0.30960   0.01267  Uiso   1.00
O15    O     0.60605   0.73647   0.38976   0.01267  Uiso   1.00
O16    O     0.56701   0.74661   0.25751   0.01267  Uiso   1.00
O17    O     0.84253   0.82253   0.22416   0.01267  Uiso   1.00
O18    O     0.47849   0.99859   0.32440   0.01267  Uiso   1.00
O19    O     0.29021   0.28037   0.38075   0.01267  Uiso   1.00
O20    O     0.73030   0.43030   0.19983   0.01267  Uiso   1.00
O21    O     0.38388   0.99828   0.92443   0.01267  Uiso   1.00
O22    O     0.36865   0.21445   0.00276   0.01267  Uiso   1.00
O23    O     0.41074   0.67894   0.93082   0.01267  Uiso   1.00
O24    O     0.53780   0.84940   0.80960   0.01267  Uiso   1.00
O25    O     0.73647   0.60605   0.88976   0.01267  Uiso   1.00
O26    O     0.74661   0.56701   0.75751   0.01267  Uiso   1.00
O27    O     0.82253   0.84253   0.72416   0.01267  Uiso   1.00
O28    O     0.99859   0.47849   0.82440   0.01267  Uiso   1.00
O29    O     0.28037   0.29021   0.88075   0.01267  Uiso   1.00
O30    O     0.43030   0.73030   0.69983   0.01267  Uiso   1.00
O31    O     0.00172   0.61612   0.57557   0.01267  Uiso   1.00
O32    O     0.78555   0.63135   0.49724   0.01267  Uiso   1.00
O33    O     0.32106   0.58926   0.56918   0.01267  Uiso   1.00
O34    O     0.15060   0.46220   0.69040   0.01267  Uiso   1.00
O35    O     0.39395   0.26353   0.61024   0.01267  Uiso   1.00
O36    O     0.43299   0.25339   0.74249   0.01267  Uiso   1.00
O37    O     0.15747   0.17747   0.77584   0.01267  Uiso   1.00
O38    O     0.52151   0.00141   0.67560   0.01267  Uiso   1.00
O39    O     0.70979   0.71963   0.61925   0.01267  Uiso   1.00
O40    O     0.26970   0.56970   0.80017   0.01267  Uiso   1.00
H29    H     0.65650   0.18490   0.45460   0.01267  Uiso   1.00
H30    H     0.50660   0.23880   0.50290   0.01267  Uiso   1.00
H31    H     0.50030   0.20170   0.42860   0.01267  Uiso   1.00
H32    H     0.63270   0.98790   0.53760   0.01267  Uiso   1.00
H33    H     0.64630   0.94350   0.45650   0.01267  Uiso   1.00
H34    H     0.34350   0.81510   0.54540   0.01267  Uiso   1.00
H35    H     0.49340   0.76120   0.49710   0.01267  Uiso   1.00
H36    H     0.49970   0.79830   0.57140   0.01267  Uiso   1.00
H37    H     0.36730   0.01210   0.46240   0.01267  Uiso   1.00
H38    H     0.35370   0.05650   0.54350   0.01267  Uiso   1.00
C13    C     0.57770   0.01470   0.49273   0.01267  Uiso   1.00
C14    C     0.42230   0.98530   0.50727   0.01267  Uiso   1.00
N1     N     0.55870   0.17390   0.46749   0.01267  Uiso   1.00
N2     N     0.44130   0.82610   0.53251   0.01267  Uiso   1.00
H39    H     0.81510   0.34350   0.04540   0.01267  Uiso   1.00
H40    H     0.76120   0.49340   0.99710   0.01267  Uiso   1.00
H41    H     0.79830   0.49970   0.07140   0.01267  Uiso   1.00
H42    H     0.01210   0.36730   0.96240   0.01267  Uiso   1.00
H43    H     0.05650   0.35370   0.04350   0.01267  Uiso   1.00
H44    H     0.18490   0.65650   0.95460   0.01267  Uiso   1.00
H45    H     0.23880   0.50660   0.00290   0.01267  Uiso   1.00
H46    H     0.20170   0.50030   0.92860   0.01267  Uiso   1.00
H47    H     0.98790   0.63270   0.03760   0.01267  Uiso   1.00
H48    H     0.94350   0.64630   0.95650   0.01267  Uiso   1.00
C15    C     0.98530   0.42230   0.00727   0.01267  Uiso   1.00
C16    C     0.01470   0.57770   0.99273   0.01267  Uiso   1.00
N3     N     0.82610   0.44130   0.03251   0.01267  Uiso   1.00
N4     N     0.17390   0.55870   0.96749   0.01267  Uiso   1.00
