data_image0
_cell_length_a       18.5167
_cell_length_b       18.5167
_cell_length_c       18.5167
_cell_angle_alpha    95.4507
_cell_angle_beta     95.4507
_cell_angle_gamma    95.4507

_symmetry_space_group_name_H-M    P 1
_symmetry_int_tables_number       1

loop_
  _symmetry_equiv_pos_as_xyz
  'x, y, z'

loop_
  _atom_site_label
  _atom_site_occupancy
  _atom_site_fract_x
  _atom_site_fract_y
  _atom_site_fract_z
  _atom_site_thermal_displace_type
  _atom_site_B_iso_or_equiv
  _atom_site_type_symbol
  Co1      1.0000 0.91821  0.72438  0.24653  Biso   1.000  Co
  Co2      1.0000 0.77877  0.29499  0.08390  Biso   1.000  Co
  Co3      1.0000 0.87163  0.96171  0.25606  Biso   1.000  Co
  Co4      1.0000 0.79369  0.79617  0.32263  Biso   1.000  Co
  Co5      1.0000 0.24653  0.91821  0.72438  Biso   1.000  Co
  Co6      1.0000 0.08390  0.77877  0.29499  Biso   1.000  Co
  Co7      1.0000 0.25606  0.87163  0.96171  Biso   1.000  Co
  Co8      1.0000 0.32263  0.79369  0.79617  Biso   1.000  Co
  Co9      1.0000 0.72438  0.24653  0.91821  Biso   1.000  Co
  Co10     1.0000 0.29499  0.08390  0.77877  Biso   1.000  Co
  Co11     1.0000 0.96171  0.25606  0.87163  Biso   1.000  Co
  Co12     1.0000 0.79617  0.32263  0.79369  Biso   1.000  Co
  Co13     1.0000 0.08179  0.27562  0.75347  Biso   1.000  Co
  Co14     1.0000 0.22123  0.70501  0.91610  Biso   1.000  Co
  Co15     1.0000 0.12837  0.03829  0.74394  Biso   1.000  Co
  Co16     1.0000 0.20631  0.20383  0.67737  Biso   1.000  Co
  Co17     1.0000 0.75347  0.08179  0.27562  Biso   1.000  Co
  Co18     1.0000 0.91610  0.22123  0.70501  Biso   1.000  Co
  Co19     1.0000 0.74394  0.12837  0.03829  Biso   1.000  Co
  Co20     1.0000 0.67737  0.20631  0.20383  Biso   1.000  Co
  Co21     1.0000 0.27562  0.75347  0.08179  Biso   1.000  Co
  Co22     1.0000 0.70501  0.91610  0.22123  Biso   1.000  Co
  Co23     1.0000 0.03829  0.74394  0.12837  Biso   1.000  Co
  Co24     1.0000 0.20383  0.67737  0.20631  Biso   1.000  Co
  H1       1.0000 0.68900  0.60850  0.37910  Biso   1.000  H
  H2       1.0000 0.61090  0.50160  0.37660  Biso   1.000  H
  H3       1.0000 0.62670  0.39830  0.30180  Biso   1.000  H
  H4       1.0000 0.80090  0.50600  0.22870  Biso   1.000  H
  H5       1.0000 0.98880  0.83650  0.21520  Biso   1.000  H
  H6       1.0000 0.66170  0.21700  0.07580  Biso   1.000  H
  H7       1.0000 0.85050  0.90900  0.56480  Biso   1.000  H
  H8       1.0000 0.76470  0.89080  0.56740  Biso   1.000  H
  H9       1.0000 0.82100  0.84910  0.61460  Biso   1.000  H
  H10      1.0000 0.72470  0.70030  0.48350  Biso   1.000  H
  H11      1.0000 0.75050  0.72800  0.56740  Biso   1.000  H
  H12      1.0000 0.69330  0.77030  0.52170  Biso   1.000  H
  H13      1.0000 0.94210  0.51700  0.17670  Biso   1.000  H
  H14      1.0000 0.91670  0.48180  0.09480  Biso   1.000  H
  H15      1.0000 0.99110  0.53480  0.11260  Biso   1.000  H
  H16      1.0000 0.87560  0.64500  0.99940  Biso   1.000  H
  H17      1.0000 0.95250  0.61220  0.00870  Biso   1.000  H
  H18      1.0000 0.87880  0.55840  0.98920  Biso   1.000  H
  H19      1.0000 0.05860  0.55000  0.35270  Biso   1.000  H
  H20      1.0000 0.10710  0.62020  0.39510  Biso   1.000  H
  H21      1.0000 0.05810  0.56740  0.43900  Biso   1.000  H
  H22      1.0000 0.96720  0.74110  0.45760  Biso   1.000  H
  H23      1.0000 0.00270  0.68120  0.50240  Biso   1.000  H
  H24      1.0000 0.05290  0.73380  0.45960  Biso   1.000  H
  H25      1.0000 0.94960  0.07210  0.23060  Biso   1.000  H
  H26      1.0000 0.03460  0.03520  0.17080  Biso   1.000  H
  H27      1.0000 0.01090  0.95790  0.19440  Biso   1.000  H
  H28      1.0000 0.12920  0.00170  0.24110  Biso   1.000  H
  H29      1.0000 0.08050  0.98560  0.30590  Biso   1.000  H
  H30      1.0000 0.10010  0.06770  0.28850  Biso   1.000  H
  H31      1.0000 0.37910  0.68900  0.60850  Biso   1.000  H
  H32      1.0000 0.37660  0.61090  0.50160  Biso   1.000  H
  H33      1.0000 0.30180  0.62670  0.39830  Biso   1.000  H
  H34      1.0000 0.22870  0.80090  0.50600  Biso   1.000  H
  H35      1.0000 0.21520  0.98880  0.83650  Biso   1.000  H
  H36      1.0000 0.07580  0.66170  0.21700  Biso   1.000  H
  H37      1.0000 0.56480  0.85050  0.90900  Biso   1.000  H
  H38      1.0000 0.56740  0.76470  0.89080  Biso   1.000  H
  H39      1.0000 0.61460  0.82100  0.84910  Biso   1.000  H
  H40      1.0000 0.48350  0.72470  0.70030  Biso   1.000  H
  H41      1.0000 0.56740  0.75050  0.72800  Biso   1.000  H
  H42      1.0000 0.52170  0.69330  0.77030  Biso   1.000  H
  H43      1.0000 0.17670  0.94210  0.51700  Biso   1.000  H
  H44      1.0000 0.09480  0.91670  0.48180  Biso   1.000  H
  H45      1.0000 0.11260  0.99110  0.53480  Biso   1.000  H
  H46      1.0000 0.99940  0.87560  0.64500  Biso   1.000  H
  H47      1.0000 0.00870  0.95250  0.61220  Biso   1.000  H
  H48      1.0000 0.98920  0.87880  0.55840  Biso   1.000  H
  H49      1.0000 0.35270  0.05860  0.55000  Biso   1.000  H
  H50      1.0000 0.39510  0.10710  0.62020  Biso   1.000  H
  H51      1.0000 0.43900  0.05810  0.56740  Biso   1.000  H
  H52      1.0000 0.45760  0.96720  0.74110  Biso   1.000  H
  H53      1.0000 0.50240  0.00270  0.68120  Biso   1.000  H
  H54      1.0000 0.45960  0.05290  0.73380  Biso   1.000  H
  H55      1.0000 0.23060  0.94960  0.07210  Biso   1.000  H
  H56      1.0000 0.17080  0.03460  0.03520  Biso   1.000  H
  H57      1.0000 0.19440  0.01090  0.95790  Biso   1.000  H
  H58      1.0000 0.24110  0.12920  0.00170  Biso   1.000  H
  H59      1.0000 0.30590  0.08050  0.98560  Biso   1.000  H
  H60      1.0000 0.28850  0.10010  0.06770  Biso   1.000  H
  H61      1.0000 0.60850  0.37910  0.68900  Biso   1.000  H
  H62      1.0000 0.50160  0.37660  0.61090  Biso   1.000  H
  H63      1.0000 0.39830  0.30180  0.62670  Biso   1.000  H
  H64      1.0000 0.50600  0.22870  0.80090  Biso   1.000  H
  H65      1.0000 0.83650  0.21520  0.98880  Biso   1.000  H
  H66      1.0000 0.21700  0.07580  0.66170  Biso   1.000  H
  H67      1.0000 0.90900  0.56480  0.85050  Biso   1.000  H
  H68      1.0000 0.89080  0.56740  0.76470  Biso   1.000  H
  H69      1.0000 0.84910  0.61460  0.82100  Biso   1.000  H
  H70      1.0000 0.70030  0.48350  0.72470  Biso   1.000  H
  H71      1.0000 0.72800  0.56740  0.75050  Biso   1.000  H
  H72      1.0000 0.77030  0.52170  0.69330  Biso   1.000  H
  H73      1.0000 0.51700  0.17670  0.94210  Biso   1.000  H
  H74      1.0000 0.48180  0.09480  0.91670  Biso   1.000  H
  H75      1.0000 0.53480  0.11260  0.99110  Biso   1.000  H
  H76      1.0000 0.64500  0.99940  0.87560  Biso   1.000  H
  H77      1.0000 0.61220  0.00870  0.95250  Biso   1.000  H
  H78      1.0000 0.55840  0.98920  0.87880  Biso   1.000  H
  H79      1.0000 0.55000  0.35270  0.05860  Biso   1.000  H
  H80      1.0000 0.62020  0.39510  0.10710  Biso   1.000  H
  H81      1.0000 0.56740  0.43900  0.05810  Biso   1.000  H
  H82      1.0000 0.74110  0.45760  0.96720  Biso   1.000  H
  H83      1.0000 0.68120  0.50240  0.00270  Biso   1.000  H
  H84      1.0000 0.73380  0.45960  0.05290  Biso   1.000  H
  H85      1.0000 0.07210  0.23060  0.94960  Biso   1.000  H
  H86      1.0000 0.03520  0.17080  0.03460  Biso   1.000  H
  H87      1.0000 0.95790  0.19440  0.01090  Biso   1.000  H
  H88      1.0000 0.00170  0.24110  0.12920  Biso   1.000  H
  H89      1.0000 0.98560  0.30590  0.08050  Biso   1.000  H
  H90      1.0000 0.06770  0.28850  0.10010  Biso   1.000  H
  H91      1.0000 0.31100  0.39150  0.62090  Biso   1.000  H
  H92      1.0000 0.38910  0.49840  0.62340  Biso   1.000  H
  H93      1.0000 0.37330  0.60170  0.69820  Biso   1.000  H
  H94      1.0000 0.19910  0.49400  0.77130  Biso   1.000  H
  H95      1.0000 0.01120  0.16350  0.78480  Biso   1.000  H
  H96      1.0000 0.33830  0.78300  0.92420  Biso   1.000  H
  H97      1.0000 0.14950  0.09100  0.43520  Biso   1.000  H
  H98      1.0000 0.23530  0.10920  0.43260  Biso   1.000  H
  H99      1.0000 0.17900  0.15090  0.38540  Biso   1.000  H
  H100     1.0000 0.27530  0.29970  0.51650  Biso   1.000  H
  H101     1.0000 0.24950  0.27200  0.43260  Biso   1.000  H
  H102     1.0000 0.30670  0.22970  0.47830  Biso   1.000  H
  H103     1.0000 0.05790  0.48300  0.82330  Biso   1.000  H
  H104     1.0000 0.08330  0.51820  0.90520  Biso   1.000  H
  H105     1.0000 0.00890  0.46520  0.88740  Biso   1.000  H
  H106     1.0000 0.12440  0.35500  0.00060  Biso   1.000  H
  H107     1.0000 0.04750  0.38780  0.99130  Biso   1.000  H
  H108     1.0000 0.12120  0.44160  0.01080  Biso   1.000  H
  H109     1.0000 0.94140  0.45000  0.64730  Biso   1.000  H
  H110     1.0000 0.89290  0.37980  0.60490  Biso   1.000  H
  H111     1.0000 0.94190  0.43260  0.56100  Biso   1.000  H
  H112     1.0000 0.03280  0.25890  0.54240  Biso   1.000  H
  H113     1.0000 0.99730  0.31880  0.49760  Biso   1.000  H
  H114     1.0000 0.94710  0.26620  0.54040  Biso   1.000  H
  H115     1.0000 0.05040  0.92790  0.76940  Biso   1.000  H
  H116     1.0000 0.96540  0.96480  0.82920  Biso   1.000  H
  H117     1.0000 0.98910  0.04210  0.80560  Biso   1.000  H
  H118     1.0000 0.87080  0.99830  0.75890  Biso   1.000  H
  H119     1.0000 0.91950  0.01440  0.69410  Biso   1.000  H
  H120     1.0000 0.89990  0.93230  0.71150  Biso   1.000  H
  H121     1.0000 0.62090  0.31100  0.39150  Biso   1.000  H
  H122     1.0000 0.62340  0.38910  0.49840  Biso   1.000  H
  H123     1.0000 0.69820  0.37330  0.60170  Biso   1.000  H
  H124     1.0000 0.77130  0.19910  0.49400  Biso   1.000  H
  H125     1.0000 0.78480  0.01120  0.16350  Biso   1.000  H
  H126     1.0000 0.92420  0.33830  0.78300  Biso   1.000  H
  H127     1.0000 0.43520  0.14950  0.09100  Biso   1.000  H
  H128     1.0000 0.43260  0.23530  0.10920  Biso   1.000  H
  H129     1.0000 0.38540  0.17900  0.15090  Biso   1.000  H
  H130     1.0000 0.51650  0.27530  0.29970  Biso   1.000  H
  H131     1.0000 0.43260  0.24950  0.27200  Biso   1.000  H
  H132     1.0000 0.47830  0.30670  0.22970  Biso   1.000  H
  H133     1.0000 0.82330  0.05790  0.48300  Biso   1.000  H
  H134     1.0000 0.90520  0.08330  0.51820  Biso   1.000  H
  H135     1.0000 0.88740  0.00890  0.46520  Biso   1.000  H
  H136     1.0000 0.00060  0.12440  0.35500  Biso   1.000  H
  H137     1.0000 0.99130  0.04750  0.38780  Biso   1.000  H
  H138     1.0000 0.01080  0.12120  0.44160  Biso   1.000  H
  H139     1.0000 0.64730  0.94140  0.45000  Biso   1.000  H
  H140     1.0000 0.60490  0.89290  0.37980  Biso   1.000  H
  H141     1.0000 0.56100  0.94190  0.43260  Biso   1.000  H
  H142     1.0000 0.54240  0.03280  0.25890  Biso   1.000  H
  H143     1.0000 0.49760  0.99730  0.31880  Biso   1.000  H
  H144     1.0000 0.54040  0.94710  0.26620  Biso   1.000  H
  H145     1.0000 0.76940  0.05040  0.92790  Biso   1.000  H
  H146     1.0000 0.82920  0.96540  0.96480  Biso   1.000  H
  H147     1.0000 0.80560  0.98910  0.04210  Biso   1.000  H
  H148     1.0000 0.75890  0.87080  0.99830  Biso   1.000  H
  H149     1.0000 0.69410  0.91950  0.01440  Biso   1.000  H
  H150     1.0000 0.71150  0.89990  0.93230  Biso   1.000  H
  H151     1.0000 0.39150  0.62090  0.31100  Biso   1.000  H
  H152     1.0000 0.49840  0.62340  0.38910  Biso   1.000  H
  H153     1.0000 0.60170  0.69820  0.37330  Biso   1.000  H
  H154     1.0000 0.49400  0.77130  0.19910  Biso   1.000  H
  H155     1.0000 0.16350  0.78480  0.01120  Biso   1.000  H
  H156     1.0000 0.78300  0.92420  0.33830  Biso   1.000  H
  H157     1.0000 0.09100  0.43520  0.14950  Biso   1.000  H
  H158     1.0000 0.10920  0.43260  0.23530  Biso   1.000  H
  H159     1.0000 0.15090  0.38540  0.17900  Biso   1.000  H
  H160     1.0000 0.29970  0.51650  0.27530  Biso   1.000  H
  H161     1.0000 0.27200  0.43260  0.24950  Biso   1.000  H
  H162     1.0000 0.22970  0.47830  0.30670  Biso   1.000  H
  H163     1.0000 0.48300  0.82330  0.05790  Biso   1.000  H
  H164     1.0000 0.51820  0.90520  0.08330  Biso   1.000  H
  H165     1.0000 0.46520  0.88740  0.00890  Biso   1.000  H
  H166     1.0000 0.35500  0.00060  0.12440  Biso   1.000  H
  H167     1.0000 0.38780  0.99130  0.04750  Biso   1.000  H
  H168     1.0000 0.44160  0.01080  0.12120  Biso   1.000  H
  H169     1.0000 0.45000  0.64730  0.94140  Biso   1.000  H
  H170     1.0000 0.37980  0.60490  0.89290  Biso   1.000  H
  H171     1.0000 0.43260  0.56100  0.94190  Biso   1.000  H
  H172     1.0000 0.25890  0.54240  0.03280  Biso   1.000  H
  H173     1.0000 0.31880  0.49760  0.99730  Biso   1.000  H
  H174     1.0000 0.26620  0.54040  0.94710  Biso   1.000  H
  H175     1.0000 0.92790  0.76940  0.05040  Biso   1.000  H
  H176     1.0000 0.96480  0.82920  0.96540  Biso   1.000  H
  H177     1.0000 0.04210  0.80560  0.98910  Biso   1.000  H
  H178     1.0000 0.99830  0.75890  0.87080  Biso   1.000  H
  H179     1.0000 0.01440  0.69410  0.91950  Biso   1.000  H
  H180     1.0000 0.93230  0.71150  0.89990  Biso   1.000  H
  C1       1.0000 0.80380  0.63530  0.30590  Biso   1.000  C
  C2       1.0000 0.72580  0.37290  0.21130  Biso   1.000  C
  C3       1.0000 0.75420  0.56630  0.30450  Biso   1.000  C
  C4       1.0000 0.69600  0.56600  0.34860  Biso   1.000  C
  C5       1.0000 0.64980  0.50280  0.34670  Biso   1.000  C
  C6       1.0000 0.65920  0.44130  0.30220  Biso   1.000  C
  C7       1.0000 0.71570  0.44170  0.25790  Biso   1.000  C
  C8       1.0000 0.76260  0.50500  0.25930  Biso   1.000  C
  C9       1.0000 0.81160  0.87030  0.56860  Biso   1.000  C
  C10      1.0000 0.73630  0.74340  0.51940  Biso   1.000  C
  C11      1.0000 0.94110  0.52520  0.12510  Biso   1.000  C
  C12      1.0000 0.90080  0.60450  0.01650  Biso   1.000  C
  C13      1.0000 0.06100  0.58900  0.39290  Biso   1.000  C
  C14      1.0000 0.00450  0.70690  0.45870  Biso   1.000  C
  C15      1.0000 0.01760  0.01040  0.21230  Biso   1.000  C
  C16      1.0000 0.08850  0.01700  0.26710  Biso   1.000  C
  C17      1.0000 0.30590  0.80380  0.63530  Biso   1.000  C
  C18      1.0000 0.21130  0.72580  0.37290  Biso   1.000  C
  C19      1.0000 0.30450  0.75420  0.56630  Biso   1.000  C
  C20      1.0000 0.34860  0.69600  0.56600  Biso   1.000  C
  C21      1.0000 0.34670  0.64980  0.50280  Biso   1.000  C
  C22      1.0000 0.30220  0.65920  0.44130  Biso   1.000  C
  C23      1.0000 0.25790  0.71570  0.44170  Biso   1.000  C
  C24      1.0000 0.25930  0.76260  0.50500  Biso   1.000  C
  C25      1.0000 0.56860  0.81160  0.87030  Biso   1.000  C
  C26      1.0000 0.51940  0.73630  0.74340  Biso   1.000  C
  C27      1.0000 0.12510  0.94110  0.52520  Biso   1.000  C
  C28      1.0000 0.01650  0.90080  0.60450  Biso   1.000  C
  C29      1.0000 0.39290  0.06100  0.58900  Biso   1.000  C
  C30      1.0000 0.45870  0.00450  0.70690  Biso   1.000  C
  C31      1.0000 0.21230  0.01760  0.01040  Biso   1.000  C
  C32      1.0000 0.26710  0.08850  0.01700  Biso   1.000  C
  C33      1.0000 0.63530  0.30590  0.80380  Biso   1.000  C
  C34      1.0000 0.37290  0.21130  0.72580  Biso   1.000  C
  C35      1.0000 0.56630  0.30450  0.75420  Biso   1.000  C
  C36      1.0000 0.56600  0.34860  0.69600  Biso   1.000  C
  C37      1.0000 0.50280  0.34670  0.64980  Biso   1.000  C
  C38      1.0000 0.44130  0.30220  0.65920  Biso   1.000  C
  C39      1.0000 0.44170  0.25790  0.71570  Biso   1.000  C
  C40      1.0000 0.50500  0.25930  0.76260  Biso   1.000  C
  C41      1.0000 0.87030  0.56860  0.81160  Biso   1.000  C
  C42      1.0000 0.74340  0.51940  0.73630  Biso   1.000  C
  C43      1.0000 0.52520  0.12510  0.94110  Biso   1.000  C
  C44      1.0000 0.60450  0.01650  0.90080  Biso   1.000  C
  C45      1.0000 0.58900  0.39290  0.06100  Biso   1.000  C
  C46      1.0000 0.70690  0.45870  0.00450  Biso   1.000  C
  C47      1.0000 0.01040  0.21230  0.01760  Biso   1.000  C
  C48      1.0000 0.01700  0.26710  0.08850  Biso   1.000  C
  C49      1.0000 0.19620  0.36470  0.69410  Biso   1.000  C
  C50      1.0000 0.27420  0.62710  0.78870  Biso   1.000  C
  C51      1.0000 0.24580  0.43370  0.69550  Biso   1.000  C
  C52      1.0000 0.30400  0.43400  0.65140  Biso   1.000  C
  C53      1.0000 0.35020  0.49720  0.65330  Biso   1.000  C
  C54      1.0000 0.34080  0.55870  0.69780  Biso   1.000  C
  C55      1.0000 0.28430  0.55830  0.74210  Biso   1.000  C
  C56      1.0000 0.23740  0.49500  0.74070  Biso   1.000  C
  C57      1.0000 0.18840  0.12970  0.43140  Biso   1.000  C
  C58      1.0000 0.26370  0.25660  0.48060  Biso   1.000  C
  C59      1.0000 0.05890  0.47480  0.87490  Biso   1.000  C
  C60      1.0000 0.09920  0.39550  0.98350  Biso   1.000  C
  C61      1.0000 0.93900  0.41100  0.60710  Biso   1.000  C
  C62      1.0000 0.99550  0.29310  0.54130  Biso   1.000  C
  C63      1.0000 0.98240  0.98960  0.78770  Biso   1.000  C
  C64      1.0000 0.91150  0.98300  0.73290  Biso   1.000  C
  C65      1.0000 0.69410  0.19620  0.36470  Biso   1.000  C
  C66      1.0000 0.78870  0.27420  0.62710  Biso   1.000  C
  C67      1.0000 0.69550  0.24580  0.43370  Biso   1.000  C
  C68      1.0000 0.65140  0.30400  0.43400  Biso   1.000  C
  C69      1.0000 0.65330  0.35020  0.49720  Biso   1.000  C
  C70      1.0000 0.69780  0.34080  0.55870  Biso   1.000  C
  C71      1.0000 0.74210  0.28430  0.55830  Biso   1.000  C
  C72      1.0000 0.74070  0.23740  0.49500  Biso   1.000  C
  C73      1.0000 0.43140  0.18840  0.12970  Biso   1.000  C
  C74      1.0000 0.48060  0.26370  0.25660  Biso   1.000  C
  C75      1.0000 0.87490  0.05890  0.47480  Biso   1.000  C
  C76      1.0000 0.98350  0.09920  0.39550  Biso   1.000  C
  C77      1.0000 0.60710  0.93900  0.41100  Biso   1.000  C
  C78      1.0000 0.54130  0.99550  0.29310  Biso   1.000  C
  C79      1.0000 0.78770  0.98240  0.98960  Biso   1.000  C
  C80      1.0000 0.73290  0.91150  0.98300  Biso   1.000  C
  C81      1.0000 0.36470  0.69410  0.19620  Biso   1.000  C
  C82      1.0000 0.62710  0.78870  0.27420  Biso   1.000  C
  C83      1.0000 0.43370  0.69550  0.24580  Biso   1.000  C
  C84      1.0000 0.43400  0.65140  0.30400  Biso   1.000  C
  C85      1.0000 0.49720  0.65330  0.35020  Biso   1.000  C
  C86      1.0000 0.55870  0.69780  0.34080  Biso   1.000  C
  C87      1.0000 0.55830  0.74210  0.28430  Biso   1.000  C
  C88      1.0000 0.49500  0.74070  0.23740  Biso   1.000  C
  C89      1.0000 0.12970  0.43140  0.18840  Biso   1.000  C
  C90      1.0000 0.25660  0.48060  0.26370  Biso   1.000  C
  C91      1.0000 0.47480  0.87490  0.05890  Biso   1.000  C
  C92      1.0000 0.39550  0.98350  0.09920  Biso   1.000  C
  C93      1.0000 0.41100  0.60710  0.93900  Biso   1.000  C
  C94      1.0000 0.29310  0.54130  0.99550  Biso   1.000  C
  C95      1.0000 0.98960  0.78770  0.98240  Biso   1.000  C
  C96      1.0000 0.98300  0.73290  0.91150  Biso   1.000  C
  S1       1.0000 0.81675  0.81713  0.14967  Biso   1.000  S
  S2       1.0000 0.96234  0.86804  0.36813  Biso   1.000  S
  S3       1.0000 0.80890  0.80022  0.49300  Biso   1.000  S
  S4       1.0000 0.89292  0.60076  0.10936  Biso   1.000  S
  S5       1.0000 0.98752  0.64148  0.37820  Biso   1.000  S
  S6       1.0000 0.14967  0.81675  0.81713  Biso   1.000  S
  S7       1.0000 0.36813  0.96234  0.86804  Biso   1.000  S
  S8       1.0000 0.49300  0.80890  0.80022  Biso   1.000  S
  S9       1.0000 0.10936  0.89292  0.60076  Biso   1.000  S
  S10      1.0000 0.37820  0.98752  0.64148  Biso   1.000  S
  S11      1.0000 0.81713  0.14967  0.81675  Biso   1.000  S
  S12      1.0000 0.86804  0.36813  0.96234  Biso   1.000  S
  S13      1.0000 0.80022  0.49300  0.80890  Biso   1.000  S
  S14      1.0000 0.60076  0.10936  0.89292  Biso   1.000  S
  S15      1.0000 0.64148  0.37820  0.98752  Biso   1.000  S
  S16      1.0000 0.18325  0.18287  0.85033  Biso   1.000  S
  S17      1.0000 0.03766  0.13196  0.63187  Biso   1.000  S
  S18      1.0000 0.19110  0.19978  0.50700  Biso   1.000  S
  S19      1.0000 0.10708  0.39924  0.89064  Biso   1.000  S
  S20      1.0000 0.01248  0.35852  0.62180  Biso   1.000  S
  S21      1.0000 0.85033  0.18325  0.18287  Biso   1.000  S
  S22      1.0000 0.63187  0.03766  0.13196  Biso   1.000  S
  S23      1.0000 0.50700  0.19110  0.19978  Biso   1.000  S
  S24      1.0000 0.89064  0.10708  0.39924  Biso   1.000  S
  S25      1.0000 0.62180  0.01248  0.35852  Biso   1.000  S
  S26      1.0000 0.18287  0.85033  0.18325  Biso   1.000  S
  S27      1.0000 0.13196  0.63187  0.03766  Biso   1.000  S
  S28      1.0000 0.19978  0.50700  0.19110  Biso   1.000  S
  S29      1.0000 0.39924  0.89064  0.10708  Biso   1.000  S
  S30      1.0000 0.35852  0.62180  0.01248  Biso   1.000  S
  O1       1.0000 0.79300  0.69070  0.34830  Biso   1.000  O
  O2       1.0000 0.85290  0.63520  0.26260  Biso   1.000  O
  O3       1.0000 0.76130  0.37880  0.15730  Biso   1.000  O
  O4       1.0000 0.69680  0.31470  0.23040  Biso   1.000  O
  O5       1.0000 0.82020  0.76680  0.20930  Biso   1.000  O
  O6       1.0000 0.74330  0.84240  0.14400  Biso   1.000  O
  O7       1.0000 0.82910  0.77690  0.08110  Biso   1.000  O
  O8       1.0000 0.87410  0.87950  0.16930  Biso   1.000  O
  O9       1.0000 0.90920  0.80200  0.33950  Biso   1.000  O
  O10      1.0000 0.95670  0.92320  0.31600  Biso   1.000  O
  O11      1.0000 0.03610  0.84570  0.37200  Biso   1.000  O
  O12      1.0000 0.94540  0.89550  0.43960  Biso   1.000  O
  O13      1.0000 0.99830  0.79260  0.21780  Biso   1.000  O
  O14      1.0000 0.70110  0.20940  0.10010  Biso   1.000  O
  O15      1.0000 0.78130  0.83620  0.43080  Biso   1.000  O
  O16      1.0000 0.94410  0.66690  0.14870  Biso   1.000  O
  O17      1.0000 0.00500  0.68480  0.31410  Biso   1.000  O
  O18      1.0000 0.94720  0.02770  0.21320  Biso   1.000  O
  O19      1.0000 0.34830  0.79300  0.69070  Biso   1.000  O
  O20      1.0000 0.26260  0.85290  0.63520  Biso   1.000  O
  O21      1.0000 0.15730  0.76130  0.37880  Biso   1.000  O
  O22      1.0000 0.23040  0.69680  0.31470  Biso   1.000  O
  O23      1.0000 0.20930  0.82020  0.76680  Biso   1.000  O
  O24      1.0000 0.14400  0.74330  0.84240  Biso   1.000  O
  O25      1.0000 0.08110  0.82910  0.77690  Biso   1.000  O
  O26      1.0000 0.16930  0.87410  0.87950  Biso   1.000  O
  O27      1.0000 0.33950  0.90920  0.80200  Biso   1.000  O
  O28      1.0000 0.31600  0.95670  0.92320  Biso   1.000  O
  O29      1.0000 0.37200  0.03610  0.84570  Biso   1.000  O
  O30      1.0000 0.43960  0.94540  0.89550  Biso   1.000  O
  O31      1.0000 0.21780  0.99830  0.79260  Biso   1.000  O
  O32      1.0000 0.10010  0.70110  0.20940  Biso   1.000  O
  O33      1.0000 0.43080  0.78130  0.83620  Biso   1.000  O
  O34      1.0000 0.14870  0.94410  0.66690  Biso   1.000  O
  O35      1.0000 0.31410  0.00500  0.68480  Biso   1.000  O
  O36      1.0000 0.21320  0.94720  0.02770  Biso   1.000  O
  O37      1.0000 0.69070  0.34830  0.79300  Biso   1.000  O
  O38      1.0000 0.63520  0.26260  0.85290  Biso   1.000  O
  O39      1.0000 0.37880  0.15730  0.76130  Biso   1.000  O
  O40      1.0000 0.31470  0.23040  0.69680  Biso   1.000  O
  O41      1.0000 0.76680  0.20930  0.82020  Biso   1.000  O
  O42      1.0000 0.84240  0.14400  0.74330  Biso   1.000  O
  O43      1.0000 0.77690  0.08110  0.82910  Biso   1.000  O
  O44      1.0000 0.87950  0.16930  0.87410  Biso   1.000  O
  O45      1.0000 0.80200  0.33950  0.90920  Biso   1.000  O
  O46      1.0000 0.92320  0.31600  0.95670  Biso   1.000  O
  O47      1.0000 0.84570  0.37200  0.03610  Biso   1.000  O
  O48      1.0000 0.89550  0.43960  0.94540  Biso   1.000  O
  O49      1.0000 0.79260  0.21780  0.99830  Biso   1.000  O
  O50      1.0000 0.20940  0.10010  0.70110  Biso   1.000  O
  O51      1.0000 0.83620  0.43080  0.78130  Biso   1.000  O
  O52      1.0000 0.66690  0.14870  0.94410  Biso   1.000  O
  O53      1.0000 0.68480  0.31410  0.00500  Biso   1.000  O
  O54      1.0000 0.02770  0.21320  0.94720  Biso   1.000  O
  O55      1.0000 0.20700  0.30930  0.65170  Biso   1.000  O
  O56      1.0000 0.14710  0.36480  0.73740  Biso   1.000  O
  O57      1.0000 0.23870  0.62120  0.84270  Biso   1.000  O
  O58      1.0000 0.30320  0.68530  0.76960  Biso   1.000  O
  O59      1.0000 0.17980  0.23320  0.79070  Biso   1.000  O
  O60      1.0000 0.25670  0.15760  0.85600  Biso   1.000  O
  O61      1.0000 0.17090  0.22310  0.91890  Biso   1.000  O
  O62      1.0000 0.12590  0.12050  0.83070  Biso   1.000  O
  O63      1.0000 0.09080  0.19800  0.66050  Biso   1.000  O
  O64      1.0000 0.04330  0.07680  0.68400  Biso   1.000  O
  O65      1.0000 0.96390  0.15430  0.62800  Biso   1.000  O
  O66      1.0000 0.05460  0.10450  0.56040  Biso   1.000  O
  O67      1.0000 0.00170  0.20740  0.78220  Biso   1.000  O
  O68      1.0000 0.29890  0.79060  0.89990  Biso   1.000  O
  O69      1.0000 0.21870  0.16380  0.56920  Biso   1.000  O
  O70      1.0000 0.05590  0.33310  0.85130  Biso   1.000  O
  O71      1.0000 0.99500  0.31520  0.68590  Biso   1.000  O
  O72      1.0000 0.05280  0.97230  0.78680  Biso   1.000  O
  O73      1.0000 0.65170  0.20700  0.30930  Biso   1.000  O
  O74      1.0000 0.73740  0.14710  0.36480  Biso   1.000  O
  O75      1.0000 0.84270  0.23870  0.62120  Biso   1.000  O
  O76      1.0000 0.76960  0.30320  0.68530  Biso   1.000  O
  O77      1.0000 0.79070  0.17980  0.23320  Biso   1.000  O
  O78      1.0000 0.85600  0.25670  0.15760  Biso   1.000  O
  O79      1.0000 0.91890  0.17090  0.22310  Biso   1.000  O
  O80      1.0000 0.83070  0.12590  0.12050  Biso   1.000  O
  O81      1.0000 0.66050  0.09080  0.19800  Biso   1.000  O
  O82      1.0000 0.68400  0.04330  0.07680  Biso   1.000  O
  O83      1.0000 0.62800  0.96390  0.15430  Biso   1.000  O
  O84      1.0000 0.56040  0.05460  0.10450  Biso   1.000  O
  O85      1.0000 0.78220  0.00170  0.20740  Biso   1.000  O
  O86      1.0000 0.89990  0.29890  0.79060  Biso   1.000  O
  O87      1.0000 0.56920  0.21870  0.16380  Biso   1.000  O
  O88      1.0000 0.85130  0.05590  0.33310  Biso   1.000  O
  O89      1.0000 0.68590  0.99500  0.31520  Biso   1.000  O
  O90      1.0000 0.78680  0.05280  0.97230  Biso   1.000  O
  O91      1.0000 0.30930  0.65170  0.20700  Biso   1.000  O
  O92      1.0000 0.36480  0.73740  0.14710  Biso   1.000  O
  O93      1.0000 0.62120  0.84270  0.23870  Biso   1.000  O
  O94      1.0000 0.68530  0.76960  0.30320  Biso   1.000  O
  O95      1.0000 0.23320  0.79070  0.17980  Biso   1.000  O
  O96      1.0000 0.15760  0.85600  0.25670  Biso   1.000  O
  O97      1.0000 0.22310  0.91890  0.17090  Biso   1.000  O
  O98      1.0000 0.12050  0.83070  0.12590  Biso   1.000  O
  O99      1.0000 0.19800  0.66050  0.09080  Biso   1.000  O
  O100     1.0000 0.07680  0.68400  0.04330  Biso   1.000  O
  O101     1.0000 0.15430  0.62800  0.96390  Biso   1.000  O
  O102     1.0000 0.10450  0.56040  0.05460  Biso   1.000  O
  O103     1.0000 0.20740  0.78220  0.00170  Biso   1.000  O
  O104     1.0000 0.79060  0.89990  0.29890  Biso   1.000  O
  O105     1.0000 0.16380  0.56920  0.21870  Biso   1.000  O
  O106     1.0000 0.33310  0.85130  0.05590  Biso   1.000  O
  O107     1.0000 0.31520  0.68590  0.99500  Biso   1.000  O
  O108     1.0000 0.97230  0.78680  0.05280  Biso   1.000  O
