data_image0
_cell_length_a       12.3002
_cell_length_b       14.5232
_cell_length_c       15.986
_cell_angle_alpha    117.017
_cell_angle_beta     104.89
_cell_angle_gamma    90

_symmetry_space_group_name_H-M    P 1
_symmetry_int_tables_number       1

loop_
  _symmetry_equiv_pos_as_xyz
  'x, y, z'

loop_
  _atom_site_label
  _atom_site_occupancy
  _atom_site_fract_x
  _atom_site_fract_y
  _atom_site_fract_z
  _atom_site_thermal_displace_type
  _atom_site_B_iso_or_equiv
  _atom_site_type_symbol
  Nd1      1.0000 0.92960  0.89556  0.35592  Biso   1.000  Nd
  Nd2      1.0000 0.57040  0.53964  0.64408  Biso   1.000  Nd
  Nd3      1.0000 0.07040  0.10444  0.64408  Biso   1.000  Nd
  Nd4      1.0000 0.42960  0.46036  0.35592  Biso   1.000  Nd
  H1       1.0000 0.03770  0.96370  0.10960  Biso   1.000  H
  H2       1.0000 0.09640  0.92960  0.97160  Biso   1.000  H
  H3       1.0000 0.12050  0.63330  0.92260  Biso   1.000  H
  H4       1.0000 0.06280  0.67060  0.06080  Biso   1.000  H
  H5       1.0000 0.07110  0.87690  0.68260  Biso   1.000  H
  H6       1.0000 0.26830  0.66800  0.71540  Biso   1.000  H
  H7       1.0000 0.17200  0.66870  0.45620  Biso   1.000  H
  H8       1.0000 0.61320  0.98610  0.23540  Biso   1.000  H
  H9       1.0000 0.61750  0.91910  0.29000  Biso   1.000  H
  H10      1.0000 0.67190  0.03640  0.34860  Biso   1.000  H
  H11      1.0000 0.11200  0.67600  0.79600  Biso   1.000  H
  H12      1.0000 0.46230  0.85410  0.89040  Biso   1.000  H
  H13      1.0000 0.40360  0.95800  0.02840  Biso   1.000  H
  H14      1.0000 0.37950  0.71070  0.07740  Biso   1.000  H
  H15      1.0000 0.43720  0.60980  0.93920  Biso   1.000  H
  H16      1.0000 0.42890  0.19430  0.31740  Biso   1.000  H
  H17      1.0000 0.23170  0.95260  0.28460  Biso   1.000  H
  H18      1.0000 0.32800  0.21250  0.54380  Biso   1.000  H
  H19      1.0000 0.88680  0.75070  0.76460  Biso   1.000  H
  H20      1.0000 0.88250  0.62910  0.71000  Biso   1.000  H
  H21      1.0000 0.82810  0.68780  0.65140  Biso   1.000  H
  H22      1.0000 0.38800  0.88000  0.20400  Biso   1.000  H
  H23      1.0000 0.96230  0.03630  0.89040  Biso   1.000  H
  H24      1.0000 0.90360  0.07040  0.02840  Biso   1.000  H
  H25      1.0000 0.87950  0.36670  0.07740  Biso   1.000  H
  H26      1.0000 0.93720  0.32940  0.93920  Biso   1.000  H
  H27      1.0000 0.92890  0.12310  0.31740  Biso   1.000  H
  H28      1.0000 0.73170  0.33200  0.28460  Biso   1.000  H
  H29      1.0000 0.82800  0.33130  0.54380  Biso   1.000  H
  H30      1.0000 0.38680  0.01390  0.76460  Biso   1.000  H
  H31      1.0000 0.38250  0.08090  0.71000  Biso   1.000  H
  H32      1.0000 0.32810  0.96360  0.65140  Biso   1.000  H
  H33      1.0000 0.88800  0.32400  0.20400  Biso   1.000  H
  H34      1.0000 0.53770  0.14590  0.10960  Biso   1.000  H
  H35      1.0000 0.59640  0.04200  0.97160  Biso   1.000  H
  H36      1.0000 0.62050  0.28930  0.92260  Biso   1.000  H
  H37      1.0000 0.56280  0.39020  0.06080  Biso   1.000  H
  H38      1.0000 0.57110  0.80570  0.68260  Biso   1.000  H
  H39      1.0000 0.76830  0.04740  0.71540  Biso   1.000  H
  H40      1.0000 0.67200  0.78750  0.45620  Biso   1.000  H
  H41      1.0000 0.11320  0.24930  0.23540  Biso   1.000  H
  H42      1.0000 0.11750  0.37090  0.29000  Biso   1.000  H
  H43      1.0000 0.17190  0.31220  0.34860  Biso   1.000  H
  H44      1.0000 0.61200  0.12000  0.79600  Biso   1.000  H
  C1       1.0000 0.00160  0.84480  0.18440  Biso   1.000  C
  C2       1.0000 0.04540  0.81960  0.09840  Biso   1.000  C
  C3       1.0000 0.05430  0.89760  0.07180  Biso   1.000  C
  C4       1.0000 0.08820  0.87700  0.98840  Biso   1.000  C
  C5       1.0000 0.10910  0.77750  0.93160  Biso   1.000  C
  C6       1.0000 0.10270  0.69930  0.95940  Biso   1.000  C
  C7       1.0000 0.06910  0.72230  0.04260  Biso   1.000  C
  C8       1.0000 0.13570  0.74720  0.83800  Biso   1.000  C
  C9       1.0000 0.05040  0.82460  0.49620  Biso   1.000  C
  C10      1.0000 0.11230  0.77980  0.55920  Biso   1.000  C
  C11      1.0000 0.10910  0.82000  0.65600  Biso   1.000  C
  C12      1.0000 0.16320  0.77420  0.71240  Biso   1.000  C
  C13      1.0000 0.22820  0.69510  0.67580  Biso   1.000  C
  C14      1.0000 0.23310  0.65630  0.57940  Biso   1.000  C
  C15      1.0000 0.17250  0.69710  0.52140  Biso   1.000  C
  C16      1.0000 0.30560  0.57210  0.53940  Biso   1.000  C
  C17      1.0000 0.65780  0.97360  0.28720  Biso   1.000  C
  C18      1.0000 0.49840  0.66040  0.81560  Biso   1.000  C
  C19      1.0000 0.45460  0.72120  0.90160  Biso   1.000  C
  C20      1.0000 0.44570  0.82580  0.92820  Biso   1.000  C
  C21      1.0000 0.41180  0.88860  0.01160  Biso   1.000  C
  C22      1.0000 0.39090  0.84590  0.06840  Biso   1.000  C
  C23      1.0000 0.39730  0.73990  0.04060  Biso   1.000  C
  C24      1.0000 0.43090  0.67970  0.95740  Biso   1.000  C
  C25      1.0000 0.36430  0.90920  0.16200  Biso   1.000  C
  C26      1.0000 0.44960  0.32840  0.50380  Biso   1.000  C
  C27      1.0000 0.38770  0.22060  0.44080  Biso   1.000  C
  C28      1.0000 0.39090  0.16400  0.34400  Biso   1.000  C
  C29      1.0000 0.33680  0.06180  0.28760  Biso   1.000  C
  C30      1.0000 0.27180  0.01930  0.32420  Biso   1.000  C
  C31      1.0000 0.26690  0.07690  0.42060  Biso   1.000  C
  C32      1.0000 0.32750  0.17570  0.47860  Biso   1.000  C
  C33      1.0000 0.19440  0.03270  0.46060  Biso   1.000  C
  C34      1.0000 0.84220  0.68640  0.71280  Biso   1.000  C
  C35      1.0000 0.99840  0.15520  0.81560  Biso   1.000  C
  C36      1.0000 0.95460  0.18040  0.90160  Biso   1.000  C
  C37      1.0000 0.94570  0.10240  0.92820  Biso   1.000  C
  C38      1.0000 0.91180  0.12300  0.01160  Biso   1.000  C
  C39      1.0000 0.89090  0.22250  0.06840  Biso   1.000  C
  C40      1.0000 0.89730  0.30070  0.04060  Biso   1.000  C
  C41      1.0000 0.93090  0.27770  0.95740  Biso   1.000  C
  C42      1.0000 0.86430  0.25280  0.16200  Biso   1.000  C
  C43      1.0000 0.94960  0.17540  0.50380  Biso   1.000  C
  C44      1.0000 0.88770  0.22020  0.44080  Biso   1.000  C
  C45      1.0000 0.89090  0.18000  0.34400  Biso   1.000  C
  C46      1.0000 0.83680  0.22580  0.28760  Biso   1.000  C
  C47      1.0000 0.77180  0.30490  0.32420  Biso   1.000  C
  C48      1.0000 0.76690  0.34370  0.42060  Biso   1.000  C
  C49      1.0000 0.82750  0.30290  0.47860  Biso   1.000  C
  C50      1.0000 0.69440  0.42790  0.46060  Biso   1.000  C
  C51      1.0000 0.34220  0.02640  0.71280  Biso   1.000  C
  C52      1.0000 0.50160  0.33960  0.18440  Biso   1.000  C
  C53      1.0000 0.54540  0.27880  0.09840  Biso   1.000  C
  C54      1.0000 0.55430  0.17420  0.07180  Biso   1.000  C
  C55      1.0000 0.58820  0.11140  0.98840  Biso   1.000  C
  C56      1.0000 0.60910  0.15410  0.93160  Biso   1.000  C
  C57      1.0000 0.60270  0.26010  0.95940  Biso   1.000  C
  C58      1.0000 0.56910  0.32030  0.04260  Biso   1.000  C
  C59      1.0000 0.63570  0.09080  0.83800  Biso   1.000  C
  C60      1.0000 0.55040  0.67160  0.49620  Biso   1.000  C
  C61      1.0000 0.61230  0.77940  0.55920  Biso   1.000  C
  C62      1.0000 0.60910  0.83600  0.65600  Biso   1.000  C
  C63      1.0000 0.66320  0.93820  0.71240  Biso   1.000  C
  C64      1.0000 0.72820  0.98070  0.67580  Biso   1.000  C
  C65      1.0000 0.73310  0.92310  0.57940  Biso   1.000  C
  C66      1.0000 0.67250  0.82430  0.52140  Biso   1.000  C
  C67      1.0000 0.80560  0.96730  0.53940  Biso   1.000  C
  C68      1.0000 0.15780  0.31360  0.28720  Biso   1.000  C
  N1       1.0000 0.14900  0.81330  0.80800  Biso   1.000  N
  N2       1.0000 0.35100  0.00530  0.19200  Biso   1.000  N
  N3       1.0000 0.85100  0.18670  0.19200  Biso   1.000  N
  N4       1.0000 0.64900  0.99470  0.80800  Biso   1.000  N
  O1       1.0000 0.99660  0.77370  0.21100  Biso   1.000  O
  O2       1.0000 0.96620  0.93040  0.22600  Biso   1.000  O
  O3       1.0000 0.01760  0.76710  0.40400  Biso   1.000  O
  O4       1.0000 0.03010  0.91820  0.53600  Biso   1.000  O
  O5       1.0000 0.29770  0.53390  0.44880  Biso   1.000  O
  O6       1.0000 0.36710  0.54480  0.59780  Biso   1.000  O
  O7       1.0000 0.75940  0.94480  0.26980  Biso   1.000  O
  O8       1.0000 0.79340  0.73220  0.25740  Biso   1.000  O
  O9       1.0000 0.50340  0.56270  0.78900  Biso   1.000  O
  O10      1.0000 0.53380  0.70440  0.77400  Biso   1.000  O
  O11      1.0000 0.48240  0.36310  0.59600  Biso   1.000  O
  O12      1.0000 0.46990  0.38220  0.46400  Biso   1.000  O
  O13      1.0000 0.20230  0.08510  0.55120  Biso   1.000  O
  O14      1.0000 0.13290  0.94700  0.40220  Biso   1.000  O
  O15      1.0000 0.74060  0.67500  0.73020  Biso   1.000  O
  O16      1.0000 0.70660  0.47480  0.74260  Biso   1.000  O
  O17      1.0000 0.00340  0.22630  0.78900  Biso   1.000  O
  O18      1.0000 0.03380  0.06960  0.77400  Biso   1.000  O
  O19      1.0000 0.98240  0.23290  0.59600  Biso   1.000  O
  O20      1.0000 0.96990  0.08180  0.46400  Biso   1.000  O
  O21      1.0000 0.70230  0.46610  0.55120  Biso   1.000  O
  O22      1.0000 0.63290  0.45520  0.40220  Biso   1.000  O
  O23      1.0000 0.24060  0.05520  0.73020  Biso   1.000  O
  O24      1.0000 0.20660  0.26780  0.74260  Biso   1.000  O
  O25      1.0000 0.49660  0.43730  0.21100  Biso   1.000  O
  O26      1.0000 0.46620  0.29560  0.22600  Biso   1.000  O
  O27      1.0000 0.51760  0.63690  0.40400  Biso   1.000  O
  O28      1.0000 0.53010  0.61780  0.53600  Biso   1.000  O
  O29      1.0000 0.79770  0.91490  0.44880  Biso   1.000  O
  O30      1.0000 0.86710  0.05300  0.59780  Biso   1.000  O
  O31      1.0000 0.25940  0.32500  0.26980  Biso   1.000  O
  O32      1.0000 0.29340  0.52520  0.25740  Biso   1.000  O
