data_image0
_cell_length_a       12.5843
_cell_length_b       14.118
_cell_length_c       16.1952
_cell_angle_alpha    95.1837
_cell_angle_beta     112.862
_cell_angle_gamma    90

_symmetry_space_group_name_H-M    P 1
_symmetry_int_tables_number       1

loop_
  _symmetry_equiv_pos_as_xyz
  'x, y, z'

loop_
  _atom_site_label
  _atom_site_occupancy
  _atom_site_fract_x
  _atom_site_fract_y
  _atom_site_fract_z
  _atom_site_thermal_displace_type
  _atom_site_B_iso_or_equiv
  _atom_site_type_symbol
  Nd1      1.0000 0.48712  0.46127  0.37159  Biso   1.000  Nd
  Nd2      1.0000 0.11553  0.03873  0.62841  Biso   1.000  Nd
  Nd3      1.0000 0.51288  0.53873  0.62841  Biso   1.000  Nd
  Nd4      1.0000 0.88447  0.96127  0.37159  Biso   1.000  Nd
  H1       1.0000 0.15550  0.59240  0.12320  Biso   1.000  H
  H2       1.0000 0.05490  0.63670  0.98160  Biso   1.000  H
  H3       1.0000 0.33390  0.60190  0.92420  Biso   1.000  H
  H4       1.0000 0.43740  0.55840  0.06680  Biso   1.000  H
  H5       1.0000 0.82600  0.55970  0.68760  Biso   1.000  H
  H6       1.0000 0.05570  0.77070  0.71440  Biso   1.000  H
  H7       1.0000 0.81460  0.68550  0.47080  Biso   1.000  H
  H8       1.0000 0.74660  0.33190  0.42120  Biso   1.000  H
  H9       1.0000 0.64860  0.19770  0.17660  Biso   1.000  H
  H10      1.0000 0.51980  0.32870  0.17460  Biso   1.000  H
  H11      1.0000 0.16100  0.64500  0.80600  Biso   1.000  H
  H12      1.0000 0.03230  0.90760  0.87680  Biso   1.000  H
  H13      1.0000 0.07330  0.86330  0.01840  Biso   1.000  H
  H14      1.0000 0.40970  0.89810  0.07580  Biso   1.000  H
  H15      1.0000 0.37060  0.94160  0.93320  Biso   1.000  H
  H16      1.0000 0.13840  0.94030  0.31240  Biso   1.000  H
  H17      1.0000 0.34130  0.72930  0.28560  Biso   1.000  H
  H18      1.0000 0.34380  0.81450  0.52920  Biso   1.000  H
  H19      1.0000 0.32540  0.16810  0.57880  Biso   1.000  H
  H20      1.0000 0.47200  0.30230  0.82340  Biso   1.000  H
  H21      1.0000 0.34520  0.17130  0.82540  Biso   1.000  H
  H22      1.0000 0.35500  0.85500  0.19400  Biso   1.000  H
  H23      1.0000 0.84450  0.40760  0.87680  Biso   1.000  H
  H24      1.0000 0.94510  0.36330  0.01840  Biso   1.000  H
  H25      1.0000 0.66610  0.39810  0.07580  Biso   1.000  H
  H26      1.0000 0.56260  0.44160  0.93320  Biso   1.000  H
  H27      1.0000 0.17400  0.44030  0.31240  Biso   1.000  H
  H28      1.0000 0.94430  0.22930  0.28560  Biso   1.000  H
  H29      1.0000 0.18540  0.31450  0.52920  Biso   1.000  H
  H30      1.0000 0.25340  0.66810  0.57880  Biso   1.000  H
  H31      1.0000 0.35140  0.80230  0.82340  Biso   1.000  H
  H32      1.0000 0.48020  0.67130  0.82540  Biso   1.000  H
  H33      1.0000 0.83900  0.35500  0.19400  Biso   1.000  H
  H34      1.0000 0.96770  0.09240  0.12320  Biso   1.000  H
  H35      1.0000 0.92670  0.13670  0.98160  Biso   1.000  H
  H36      1.0000 0.59030  0.10190  0.92420  Biso   1.000  H
  H37      1.0000 0.62940  0.05840  0.06680  Biso   1.000  H
  H38      1.0000 0.86160  0.05970  0.68760  Biso   1.000  H
  H39      1.0000 0.65870  0.27070  0.71440  Biso   1.000  H
  H40      1.0000 0.65620  0.18550  0.47080  Biso   1.000  H
  H41      1.0000 0.67460  0.83190  0.42120  Biso   1.000  H
  H42      1.0000 0.52800  0.69770  0.17660  Biso   1.000  H
  H43      1.0000 0.65480  0.82870  0.17460  Biso   1.000  H
  H44      1.0000 0.64500  0.14500  0.80600  Biso   1.000  H
  C1       1.0000 0.36884  0.53740  0.20148  Biso   1.000  C
  C2       1.0000 0.30565  0.57010  0.10990  Biso   1.000  C
  C3       1.0000 0.19190  0.59380  0.08320  Biso   1.000  C
  C4       1.0000 0.13130  0.61970  0.99800  Biso   1.000  C
  C5       1.0000 0.18250  0.62070  0.93600  Biso   1.000  C
  C6       1.0000 0.29740  0.59910  0.96400  Biso   1.000  C
  C7       1.0000 0.36025  0.57330  0.04970  Biso   1.000  C
  C8       1.0000 0.11870  0.63950  0.84220  Biso   1.000  C
  C9       1.0000 0.70283  0.55150  0.51126  Biso   1.000  C
  C10      1.0000 0.80543  0.61290  0.57046  Biso   1.000  C
  C11      1.0000 0.85680  0.60320  0.66220  Biso   1.000  C
  C12      1.0000 0.95538  0.65960  0.71616  Biso   1.000  C
  C13      1.0000 0.99378  0.73010  0.67796  Biso   1.000  C
  C14      1.0000 0.94192  0.74060  0.58764  Biso   1.000  C
  C15      1.0000 0.84819  0.68050  0.53238  Biso   1.000  C
  C16      1.0000 0.98072  0.81750  0.54564  Biso   1.000  C
  C17      1.0000 0.70570  0.31500  0.36000  Biso   1.000  C
  C18      1.0000 0.65300  0.24010  0.22540  Biso   1.000  C
  C19      1.0000 0.58193  0.31290  0.22506  Biso   1.000  C
  C20      1.0000 0.16736  0.96260  0.79852  Biso   1.000  C
  C21      1.0000 0.19575  0.92990  0.89010  Biso   1.000  C
  C22      1.0000 0.10870  0.90620  0.91680  Biso   1.000  C
  C23      1.0000 0.13330  0.88030  0.00200  Biso   1.000  C
  C24      1.0000 0.24650  0.87930  0.06400  Biso   1.000  C
  C25      1.0000 0.33340  0.90090  0.03600  Biso   1.000  C
  C26      1.0000 0.31055  0.92670  0.95030  Biso   1.000  C
  C27      1.0000 0.27650  0.86050  0.15780  Biso   1.000  C
  C28      1.0000 0.19157  0.94850  0.48874  Biso   1.000  C
  C29      1.0000 0.23497  0.88710  0.42954  Biso   1.000  C
  C30      1.0000 0.19460  0.89680  0.33780  Biso   1.000  C
  C31      1.0000 0.23922  0.84040  0.28384  Biso   1.000  C
  C32      1.0000 0.31582  0.76990  0.32204  Biso   1.000  C
  C33      1.0000 0.35428  0.75940  0.41236  Biso   1.000  C
  C34      1.0000 0.31581  0.81950  0.46762  Biso   1.000  C
  C35      1.0000 0.43508  0.68250  0.45436  Biso   1.000  C
  C36      1.0000 0.34570  0.18500  0.64000  Biso   1.000  C
  C37      1.0000 0.42760  0.25990  0.77460  Biso   1.000  C
  C38      1.0000 0.35687  0.18710  0.77494  Biso   1.000  C
  C39      1.0000 0.63116  0.46260  0.79852  Biso   1.000  C
  C40      1.0000 0.69435  0.42990  0.89010  Biso   1.000  C
  C41      1.0000 0.80810  0.40620  0.91680  Biso   1.000  C
  C42      1.0000 0.86870  0.38030  0.00200  Biso   1.000  C
  C43      1.0000 0.81750  0.37930  0.06400  Biso   1.000  C
  C44      1.0000 0.70260  0.40090  0.03600  Biso   1.000  C
  C45      1.0000 0.63975  0.42670  0.95030  Biso   1.000  C
  C46      1.0000 0.88130  0.36050  0.15780  Biso   1.000  C
  C47      1.0000 0.29717  0.44850  0.48874  Biso   1.000  C
  C48      1.0000 0.19457  0.38710  0.42954  Biso   1.000  C
  C49      1.0000 0.14320  0.39680  0.33780  Biso   1.000  C
  C50      1.0000 0.04462  0.34040  0.28384  Biso   1.000  C
  C51      1.0000 0.00622  0.26990  0.32204  Biso   1.000  C
  C52      1.0000 0.05808  0.25940  0.41236  Biso   1.000  C
  C53      1.0000 0.15181  0.31950  0.46762  Biso   1.000  C
  C54      1.0000 0.01928  0.18250  0.45436  Biso   1.000  C
  C55      1.0000 0.29430  0.68500  0.64000  Biso   1.000  C
  C56      1.0000 0.34700  0.75990  0.77460  Biso   1.000  C
  C57      1.0000 0.41807  0.68710  0.77494  Biso   1.000  C
  C58      1.0000 0.83264  0.03740  0.20148  Biso   1.000  C
  C59      1.0000 0.80425  0.07010  0.10990  Biso   1.000  C
  C60      1.0000 0.89130  0.09380  0.08320  Biso   1.000  C
  C61      1.0000 0.86670  0.11970  0.99800  Biso   1.000  C
  C62      1.0000 0.75350  0.12070  0.93600  Biso   1.000  C
  C63      1.0000 0.66660  0.09910  0.96400  Biso   1.000  C
  C64      1.0000 0.68945  0.07330  0.04970  Biso   1.000  C
  C65      1.0000 0.72350  0.13950  0.84220  Biso   1.000  C
  C66      1.0000 0.80843  0.05150  0.51126  Biso   1.000  C
  C67      1.0000 0.76503  0.11290  0.57046  Biso   1.000  C
  C68      1.0000 0.80540  0.10320  0.66220  Biso   1.000  C
  C69      1.0000 0.76078  0.15960  0.71616  Biso   1.000  C
  C70      1.0000 0.68418  0.23010  0.67796  Biso   1.000  C
  C71      1.0000 0.64572  0.24060  0.58764  Biso   1.000  C
  C72      1.0000 0.68419  0.18050  0.53238  Biso   1.000  C
  C73      1.0000 0.56492  0.31750  0.54564  Biso   1.000  C
  C74      1.0000 0.65430  0.81500  0.36000  Biso   1.000  C
  C75      1.0000 0.57240  0.74010  0.22540  Biso   1.000  C
  C76      1.0000 0.64313  0.81290  0.22506  Biso   1.000  C
  N1       1.0000 0.00930  0.64350  0.80780  Biso   1.000  N
  N2       1.0000 0.61448  0.35900  0.30876  Biso   1.000  N
  N3       1.0000 0.73175  0.24200  0.31190  Biso   1.000  N
  N4       1.0000 0.20150  0.85650  0.19220  Biso   1.000  N
  N5       1.0000 0.30572  0.14100  0.69124  Biso   1.000  N
  N6       1.0000 0.41985  0.25800  0.68810  Biso   1.000  N
  N7       1.0000 0.99070  0.35650  0.19220  Biso   1.000  N
  N8       1.0000 0.38552  0.64100  0.69124  Biso   1.000  N
  N9       1.0000 0.26825  0.75800  0.68810  Biso   1.000  N
  N10      1.0000 0.79850  0.14350  0.80780  Biso   1.000  N
  N11      1.0000 0.69428  0.85900  0.30876  Biso   1.000  N
  N12      1.0000 0.58015  0.74200  0.31190  Biso   1.000  N
  O1       1.0000 0.47660  0.52980  0.23060  Biso   1.000  O
  O2       1.0000 0.31128  0.51650  0.24716  Biso   1.000  O
  O3       1.0000 0.63380  0.51910  0.54280  Biso   1.000  O
  O4       1.0000 0.68682  0.53320  0.42964  Biso   1.000  O
  O5       1.0000 0.92310  0.82990  0.46580  Biso   1.000  O
  O6       1.0000 0.07264  0.86530  0.59608  Biso   1.000  O
  O7       1.0000 0.36152  0.32520  0.28004  Biso   1.000  O
  O8       1.0000 0.24600  0.97020  0.76940  Biso   1.000  O
  O9       1.0000 0.06412  0.98350  0.75284  Biso   1.000  O
  O10      1.0000 0.09100  0.98090  0.45720  Biso   1.000  O
  O11      1.0000 0.25718  0.96680  0.57036  Biso   1.000  O
  O12      1.0000 0.45730  0.67010  0.53420  Biso   1.000  O
  O13      1.0000 0.47656  0.63470  0.40392  Biso   1.000  O
  O14      1.0000 0.08148  0.17480  0.71996  Biso   1.000  O
  O15      1.0000 0.52340  0.47020  0.76940  Biso   1.000  O
  O16      1.0000 0.68872  0.48350  0.75284  Biso   1.000  O
  O17      1.0000 0.36620  0.48090  0.45720  Biso   1.000  O
  O18      1.0000 0.31318  0.46680  0.57036  Biso   1.000  O
  O19      1.0000 0.07690  0.17010  0.53420  Biso   1.000  O
  O20      1.0000 0.92736  0.13470  0.40392  Biso   1.000  O
  O21      1.0000 0.63848  0.67480  0.71996  Biso   1.000  O
  O22      1.0000 0.75400  0.02980  0.23060  Biso   1.000  O
  O23      1.0000 0.93588  0.01650  0.24716  Biso   1.000  O
  O24      1.0000 0.90900  0.01910  0.54280  Biso   1.000  O
  O25      1.0000 0.74282  0.03320  0.42964  Biso   1.000  O
  O26      1.0000 0.54270  0.32990  0.46580  Biso   1.000  O
  O27      1.0000 0.52344  0.36530  0.59608  Biso   1.000  O
  O28      1.0000 0.91852  0.82520  0.28004  Biso   1.000  O
