data_image0
_cell_length_a       13.2474
_cell_length_b       14.3769
_cell_length_c       16.1088
_cell_angle_alpha    116.503
_cell_angle_beta     99.4948
_cell_angle_gamma    90

_symmetry_space_group_name_H-M    P 1
_symmetry_int_tables_number       1

loop_
  _symmetry_equiv_pos_as_xyz
  'x, y, z'

loop_
  _atom_site_label
  _atom_site_occupancy
  _atom_site_fract_x
  _atom_site_fract_y
  _atom_site_fract_z
  _atom_site_thermal_displace_type
  _atom_site_B_iso_or_equiv
  _atom_site_type_symbol
  Nd1      1.0000 0.45332  0.46871  0.36288  Biso   1.000  Nd
  Nd2      1.0000 0.04668  0.10583  0.63712  Biso   1.000  Nd
  Nd3      1.0000 0.54668  0.53129  0.63712  Biso   1.000  Nd
  Nd4      1.0000 0.95332  0.89417  0.36288  Biso   1.000  Nd
  H1       1.0000 0.58590  0.38330  0.06600  Biso   1.000  H
  H2       1.0000 0.63380  0.27820  0.92460  Biso   1.000  H
  H3       1.0000 0.60640  0.03160  0.97540  Biso   1.000  H
  H4       1.0000 0.55190  0.13520  0.11360  Biso   1.000  H
  H5       1.0000 0.65900  0.11800  0.81200  Biso   1.000  H
  H6       1.0000 0.57500  0.80000  0.68160  Biso   1.000  H
  H7       1.0000 0.77480  0.02800  0.71360  Biso   1.000  H
  H8       1.0000 0.69520  0.78080  0.46200  Biso   1.000  H
  H9       1.0000 0.30190  0.21370  0.17860  Biso   1.000  H
  H10      1.0000 0.26860  0.30030  0.14780  Biso   1.000  H
  H11      1.0000 0.10810  0.27290  0.14780  Biso   1.000  H
  H12      1.0000 0.14150  0.16020  0.12660  Biso   1.000  H
  H13      1.0000 0.06080  0.25830  0.27140  Biso   1.000  H
  H14      1.0000 0.15390  0.19250  0.28040  Biso   1.000  H
  H15      1.0000 0.22690  0.35580  0.39740  Biso   1.000  H
  H16      1.0000 0.16450  0.41500  0.34600  Biso   1.000  H
  H17      1.0000 0.91410  0.31730  0.93400  Biso   1.000  H
  H18      1.0000 0.86620  0.35360  0.07540  Biso   1.000  H
  H19      1.0000 0.89360  0.05620  0.02460  Biso   1.000  H
  H20      1.0000 0.94810  0.02160  0.88640  Biso   1.000  H
  H21      1.0000 0.84100  0.30600  0.18800  Biso   1.000  H
  H22      1.0000 0.92500  0.11840  0.31840  Biso   1.000  H
  H23      1.0000 0.72520  0.31440  0.28640  Biso   1.000  H
  H24      1.0000 0.80480  0.31880  0.53800  Biso   1.000  H
  H25      1.0000 0.19810  0.03510  0.82140  Biso   1.000  H
  H26      1.0000 0.23140  0.15250  0.85220  Biso   1.000  H
  H27      1.0000 0.39190  0.12510  0.85220  Biso   1.000  H
  H28      1.0000 0.35850  0.03360  0.87340  Biso   1.000  H
  H29      1.0000 0.43920  0.98690  0.72860  Biso   1.000  H
  H30      1.0000 0.34610  0.91210  0.71960  Biso   1.000  H
  H31      1.0000 0.27310  0.95840  0.60260  Biso   1.000  H
  H32      1.0000 0.33550  0.06900  0.65400  Biso   1.000  H
  H33      1.0000 0.41410  0.61670  0.93400  Biso   1.000  H
  H34      1.0000 0.36620  0.72180  0.07540  Biso   1.000  H
  H35      1.0000 0.39360  0.96840  0.02460  Biso   1.000  H
  H36      1.0000 0.44810  0.86480  0.88640  Biso   1.000  H
  H37      1.0000 0.34100  0.88200  0.18800  Biso   1.000  H
  H38      1.0000 0.42500  0.20000  0.31840  Biso   1.000  H
  H39      1.0000 0.22520  0.97200  0.28640  Biso   1.000  H
  H40      1.0000 0.30480  0.21920  0.53800  Biso   1.000  H
  H41      1.0000 0.69810  0.78630  0.82140  Biso   1.000  H
  H42      1.0000 0.73140  0.69970  0.85220  Biso   1.000  H
  H43      1.0000 0.89190  0.72710  0.85220  Biso   1.000  H
  H44      1.0000 0.85850  0.83980  0.87340  Biso   1.000  H
  H45      1.0000 0.93920  0.74170  0.72860  Biso   1.000  H
  H46      1.0000 0.84610  0.80750  0.71960  Biso   1.000  H
  H47      1.0000 0.77310  0.64420  0.60260  Biso   1.000  H
  H48      1.0000 0.83550  0.58500  0.65400  Biso   1.000  H
  H49      1.0000 0.08590  0.68270  0.06600  Biso   1.000  H
  H50      1.0000 0.13380  0.64640  0.92460  Biso   1.000  H
  H51      1.0000 0.10640  0.94380  0.97540  Biso   1.000  H
  H52      1.0000 0.05190  0.97840  0.11360  Biso   1.000  H
  H53      1.0000 0.15900  0.69400  0.81200  Biso   1.000  H
  H54      1.0000 0.07500  0.88160  0.68160  Biso   1.000  H
  H55      1.0000 0.27480  0.68560  0.71360  Biso   1.000  H
  H56      1.0000 0.19520  0.68120  0.46200  Biso   1.000  H
  H57      1.0000 0.80190  0.96490  0.17860  Biso   1.000  H
  H58      1.0000 0.76860  0.84750  0.14780  Biso   1.000  H
  H59      1.0000 0.60810  0.87490  0.14780  Biso   1.000  H
  H60      1.0000 0.64150  0.96640  0.12660  Biso   1.000  H
  H61      1.0000 0.56080  0.01310  0.27140  Biso   1.000  H
  H62      1.0000 0.65390  0.08790  0.28040  Biso   1.000  H
  H63      1.0000 0.72690  0.04160  0.39740  Biso   1.000  H
  H64      1.0000 0.66450  0.93100  0.34600  Biso   1.000  H
  C1       1.0000 0.52070  0.33680  0.19180  Biso   1.000  C
  C2       1.0000 0.56110  0.27020  0.10420  Biso   1.000  C
  C3       1.0000 0.58800  0.31210  0.04700  Biso   1.000  C
  C4       1.0000 0.61760  0.24940  0.96280  Biso   1.000  C
  C5       1.0000 0.62360  0.14390  0.93420  Biso   1.000  C
  C6       1.0000 0.60030  0.10210  0.99280  Biso   1.000  C
  C7       1.0000 0.56860  0.16420  0.07580  Biso   1.000  C
  C8       1.0000 0.64890  0.07910  0.84180  Biso   1.000  C
  C9       1.0000 0.56650  0.67010  0.50040  Biso   1.000  C
  C10      1.0000 0.62520  0.77430  0.56180  Biso   1.000  C
  C11      1.0000 0.61590  0.82900  0.65600  Biso   1.000  C
  C12      1.0000 0.66800  0.92740  0.71220  Biso   1.000  C
  C13      1.0000 0.73580  0.96510  0.67540  Biso   1.000  C
  C14      1.0000 0.74620  0.90970  0.58180  Biso   1.000  C
  C15      1.0000 0.69000  0.81640  0.52540  Biso   1.000  C
  C16      1.0000 0.82010  0.95340  0.54240  Biso   1.000  C
  C17      1.0000 0.25880  0.27120  0.19020  Biso   1.000  C
  C18      1.0000 0.15260  0.23350  0.17180  Biso   1.000  C
  C19      1.0000 0.13270  0.24990  0.26740  Biso   1.000  C
  C20      1.0000 0.20210  0.35420  0.33660  Biso   1.000  C
  C21      1.0000 0.97930  0.14500  0.80820  Biso   1.000  C
  C22      1.0000 0.93890  0.16600  0.89580  Biso   1.000  C
  C23      1.0000 0.91200  0.26510  0.95300  Biso   1.000  C
  C24      1.0000 0.88240  0.28660  0.03720  Biso   1.000  C
  C25      1.0000 0.87640  0.20970  0.06580  Biso   1.000  C
  C26      1.0000 0.89970  0.10930  0.00720  Biso   1.000  C
  C27      1.0000 0.93140  0.08840  0.92420  Biso   1.000  C
  C28      1.0000 0.85110  0.23730  0.15820  Biso   1.000  C
  C29      1.0000 0.93350  0.16970  0.49960  Biso   1.000  C
  C30      1.0000 0.87480  0.21250  0.43820  Biso   1.000  C
  C31      1.0000 0.88410  0.17300  0.34400  Biso   1.000  C
  C32      1.0000 0.83200  0.21520  0.28780  Biso   1.000  C
  C33      1.0000 0.76420  0.28970  0.32460  Biso   1.000  C
  C34      1.0000 0.75380  0.32790  0.41820  Biso   1.000  C
  C35      1.0000 0.81000  0.29100  0.47460  Biso   1.000  C
  C36      1.0000 0.67990  0.41100  0.45760  Biso   1.000  C
  C37      1.0000 0.24120  0.08100  0.80980  Biso   1.000  C
  C38      1.0000 0.34740  0.06170  0.82820  Biso   1.000  C
  C39      1.0000 0.36730  0.98250  0.73260  Biso   1.000  C
  C40      1.0000 0.29790  0.01760  0.66340  Biso   1.000  C
  C41      1.0000 0.47930  0.66320  0.80820  Biso   1.000  C
  C42      1.0000 0.43890  0.72980  0.89580  Biso   1.000  C
  C43      1.0000 0.41200  0.68790  0.95300  Biso   1.000  C
  C44      1.0000 0.38240  0.75060  0.03720  Biso   1.000  C
  C45      1.0000 0.37640  0.85610  0.06580  Biso   1.000  C
  C46      1.0000 0.39970  0.89790  0.00720  Biso   1.000  C
  C47      1.0000 0.43140  0.83580  0.92420  Biso   1.000  C
  C48      1.0000 0.35110  0.92090  0.15820  Biso   1.000  C
  C49      1.0000 0.43350  0.32990  0.49960  Biso   1.000  C
  C50      1.0000 0.37480  0.22570  0.43820  Biso   1.000  C
  C51      1.0000 0.38410  0.17100  0.34400  Biso   1.000  C
  C52      1.0000 0.33200  0.07260  0.28780  Biso   1.000  C
  C53      1.0000 0.26420  0.03490  0.32460  Biso   1.000  C
  C54      1.0000 0.25380  0.09030  0.41820  Biso   1.000  C
  C55      1.0000 0.31000  0.18360  0.47460  Biso   1.000  C
  C56      1.0000 0.17990  0.04660  0.45760  Biso   1.000  C
  C57      1.0000 0.74120  0.72880  0.80980  Biso   1.000  C
  C58      1.0000 0.84740  0.76650  0.82820  Biso   1.000  C
  C59      1.0000 0.86730  0.75010  0.73260  Biso   1.000  C
  C60      1.0000 0.79790  0.64580  0.66340  Biso   1.000  C
  C61      1.0000 0.02070  0.85500  0.19180  Biso   1.000  C
  C62      1.0000 0.06110  0.83400  0.10420  Biso   1.000  C
  C63      1.0000 0.08800  0.73490  0.04700  Biso   1.000  C
  C64      1.0000 0.11760  0.71340  0.96280  Biso   1.000  C
  C65      1.0000 0.12360  0.79030  0.93420  Biso   1.000  C
  C66      1.0000 0.10030  0.89070  0.99280  Biso   1.000  C
  C67      1.0000 0.06860  0.91160  0.07580  Biso   1.000  C
  C68      1.0000 0.14890  0.76270  0.84180  Biso   1.000  C
  C69      1.0000 0.06650  0.83030  0.50040  Biso   1.000  C
  C70      1.0000 0.12520  0.78750  0.56180  Biso   1.000  C
  C71      1.0000 0.11590  0.82700  0.65600  Biso   1.000  C
  C72      1.0000 0.16800  0.78480  0.71220  Biso   1.000  C
  C73      1.0000 0.23580  0.71030  0.67540  Biso   1.000  C
  C74      1.0000 0.24620  0.67210  0.58180  Biso   1.000  C
  C75      1.0000 0.19000  0.70900  0.52540  Biso   1.000  C
  C76      1.0000 0.32010  0.58900  0.54240  Biso   1.000  C
  C77      1.0000 0.75880  0.91900  0.19020  Biso   1.000  C
  C78      1.0000 0.65260  0.93830  0.17180  Biso   1.000  C
  C79      1.0000 0.63270  0.01750  0.26740  Biso   1.000  C
  C80      1.0000 0.70210  0.98240  0.33660  Biso   1.000  C
  N1       1.0000 0.65000  0.98096  0.80592  Biso   1.000  N
  N2       1.0000 0.85000  0.17504  0.19408  Biso   1.000  N
  N3       1.0000 0.35000  0.01904  0.19408  Biso   1.000  N
  N4       1.0000 0.15000  0.82496  0.80592  Biso   1.000  N
  O1       1.0000 0.48860  0.29594  0.23728  Biso   1.000  O
  O2       1.0000 0.52130  0.43415  0.21710  Biso   1.000  O
  O3       1.0000 0.54570  0.63968  0.41176  Biso   1.000  O
  O4       1.0000 0.53810  0.61586  0.53672  Biso   1.000  O
  O5       1.0000 0.86860  0.03938  0.59716  Biso   1.000  O
  O6       1.0000 0.82690  0.89895  0.45750  Biso   1.000  O
  O7       1.0000 0.33800  0.54110  0.26860  Biso   1.000  O
  O8       1.0000 0.28810  0.35040  0.28720  Biso   1.000  O
  O9       1.0000 0.01140  0.05866  0.76272  Biso   1.000  O
  O10      1.0000 0.97870  0.21705  0.78290  Biso   1.000  O
  O11      1.0000 0.95430  0.22792  0.58824  Biso   1.000  O
  O12      1.0000 0.96190  0.07914  0.46328  Biso   1.000  O
  O13      1.0000 0.63140  0.44222  0.40284  Biso   1.000  O
  O14      1.0000 0.67310  0.44145  0.54250  Biso   1.000  O
  O15      1.0000 0.16200  0.27250  0.73140  Biso   1.000  O
  O16      1.0000 0.21190  0.06320  0.71280  Biso   1.000  O
  O17      1.0000 0.51140  0.70406  0.76272  Biso   1.000  O
  O18      1.0000 0.47870  0.56585  0.78290  Biso   1.000  O
  O19      1.0000 0.45430  0.36032  0.58824  Biso   1.000  O
  O20      1.0000 0.46190  0.38414  0.46328  Biso   1.000  O
  O21      1.0000 0.13140  0.96062  0.40284  Biso   1.000  O
  O22      1.0000 0.17310  0.10105  0.54250  Biso   1.000  O
  O23      1.0000 0.66200  0.45890  0.73140  Biso   1.000  O
  O24      1.0000 0.71190  0.64960  0.71280  Biso   1.000  O
  O25      1.0000 0.98860  0.94134  0.23728  Biso   1.000  O
  O26      1.0000 0.02130  0.78295  0.21710  Biso   1.000  O
  O27      1.0000 0.04570  0.77208  0.41176  Biso   1.000  O
  O28      1.0000 0.03810  0.92086  0.53672  Biso   1.000  O
  O29      1.0000 0.36860  0.55778  0.59716  Biso   1.000  O
  O30      1.0000 0.32690  0.55855  0.45750  Biso   1.000  O
  O31      1.0000 0.83800  0.72750  0.26860  Biso   1.000  O
  O32      1.0000 0.78810  0.93680  0.28720  Biso   1.000  O
