data_image0
_cell_length_a       13.6824
_cell_length_b       15.0012
_cell_length_c       15.649
_cell_angle_alpha    95.751
_cell_angle_beta     113.163
_cell_angle_gamma    90.493

_symmetry_space_group_name_H-M    P 1
_symmetry_int_tables_number       1

loop_
  _symmetry_equiv_pos_as_xyz
  'x, y, z'

loop_
  _atom_site_label
  _atom_site_occupancy
  _atom_site_fract_x
  _atom_site_fract_y
  _atom_site_fract_z
  _atom_site_thermal_displace_type
  _atom_site_B_iso_or_equiv
  _atom_site_type_symbol
  Nd1      1.0000 0.50699  0.52027  0.13396  Biso   1.000  Nd
  Nd2      1.0000 0.88967  0.96851  0.86894  Biso   1.000  Nd
  Nd3      1.0000 0.49301  0.47973  0.86604  Biso   1.000  Nd
  Nd4      1.0000 0.11033  0.03149  0.13106  Biso   1.000  Nd
  H1       1.0000 0.86900  0.46100  0.38380  Biso   1.000  H
  H2       1.0000 0.98040  0.40370  0.51670  Biso   1.000  H
  H3       1.0000 0.72930  0.29660  0.54740  Biso   1.000  H
  H4       1.0000 0.61800  0.35530  0.41500  Biso   1.000  H
  H5       1.0000 0.21320  0.39240  0.79760  Biso   1.000  H
  H6       1.0000 0.23320  0.26980  0.02150  Biso   1.000  H
  H7       1.0000 0.98620  0.20900  0.77510  Biso   1.000  H
  H8       1.0000 0.72960  0.06330  0.54630  Biso   1.000  H
  H9       1.0000 0.72670  0.11510  0.41180  Biso   1.000  H
  H10      1.0000 0.04550  0.11970  0.51620  Biso   1.000  H
  H11      1.0000 0.04630  0.06400  0.64870  Biso   1.000  H
  H12      1.0000 0.68610  0.29120  0.20740  Biso   1.000  H
  H13      1.0000 0.72240  0.23620  0.96570  Biso   1.000  H
  H14      1.0000 0.88320  0.10340  0.18590  Biso   1.000  H
  H15      1.0000 0.31540  0.66410  0.15870  Biso   1.000  H
  H16      1.0000 0.17420  0.69130  0.19900  Biso   1.000  H
  H17      1.0000 0.11560  0.55820  0.24220  Biso   1.000  H
  H18      1.0000 0.21060  0.43190  0.27730  Biso   1.000  H
  H19      1.0000 0.36430  0.43850  0.24430  Biso   1.000  H
  H20      1.0000 0.62310  0.02880  0.78410  Biso   1.000  H
  H21      1.0000 0.44630  0.98290  0.74390  Biso   1.000  H
  H22      1.0000 0.40330  0.83250  0.74350  Biso   1.000  H
  H23      1.0000 0.53710  0.73520  0.79080  Biso   1.000  H
  H24      1.0000 0.70910  0.78420  0.83040  Biso   1.000  H
  H25      1.0000 0.88900  0.26800  0.65700  Biso   1.000  H
  H26      1.0000 0.94000  0.16100  0.34700  Biso   1.000  H
  H27      1.0000 0.13100  0.53900  0.61620  Biso   1.000  H
  H28      1.0000 0.01960  0.59630  0.48330  Biso   1.000  H
  H29      1.0000 0.27070  0.70340  0.45260  Biso   1.000  H
  H30      1.0000 0.38200  0.64470  0.58500  Biso   1.000  H
  H31      1.0000 0.78680  0.60760  0.20240  Biso   1.000  H
  H32      1.0000 0.76680  0.73020  0.97850  Biso   1.000  H
  H33      1.0000 0.01380  0.79100  0.22490  Biso   1.000  H
  H34      1.0000 0.27040  0.93670  0.45370  Biso   1.000  H
  H35      1.0000 0.27330  0.88490  0.58820  Biso   1.000  H
  H36      1.0000 0.95450  0.88030  0.48380  Biso   1.000  H
  H37      1.0000 0.95370  0.93600  0.35130  Biso   1.000  H
  H38      1.0000 0.31390  0.70880  0.79260  Biso   1.000  H
  H39      1.0000 0.27760  0.76380  0.03430  Biso   1.000  H
  H40      1.0000 0.11680  0.89660  0.81410  Biso   1.000  H
  H41      1.0000 0.68460  0.33590  0.84130  Biso   1.000  H
  H42      1.0000 0.82580  0.30870  0.80100  Biso   1.000  H
  H43      1.0000 0.88440  0.44180  0.75780  Biso   1.000  H
  H44      1.0000 0.78940  0.56810  0.72270  Biso   1.000  H
  H45      1.0000 0.63570  0.56150  0.75570  Biso   1.000  H
  H46      1.0000 0.37690  0.97120  0.21590  Biso   1.000  H
  H47      1.0000 0.55370  0.01710  0.25610  Biso   1.000  H
  H48      1.0000 0.59670  0.16750  0.25650  Biso   1.000  H
  H49      1.0000 0.46290  0.26480  0.20920  Biso   1.000  H
  H50      1.0000 0.29090  0.21580  0.16960  Biso   1.000  H
  H51      1.0000 0.11100  0.73200  0.34300  Biso   1.000  H
  H52      1.0000 0.06000  0.83900  0.65300  Biso   1.000  H
  C1       1.0000 0.65720  0.45900  0.30380  Biso   1.000  C
  C2       1.0000 0.73100  0.41690  0.38640  Biso   1.000  C
  C3       1.0000 0.84030  0.42910  0.41710  Biso   1.000  C
  C4       1.0000 0.90720  0.39420  0.49680  Biso   1.000  C
  C5       1.0000 0.86750  0.34550  0.54780  Biso   1.000  C
  C6       1.0000 0.75790  0.33060  0.51540  Biso   1.000  C
  C7       1.0000 0.69120  0.36590  0.43590  Biso   1.000  C
  C8       1.0000 0.93470  0.31230  0.63660  Biso   1.000  C
  C9       1.0000 0.08830  0.30680  0.77250  Biso   1.000  C
  C10      1.0000 0.18420  0.35290  0.82470  Biso   1.000  C
  C11      1.0000 0.23790  0.33970  0.91940  Biso   1.000  C
  C12      1.0000 0.19770  0.27770  0.95870  Biso   1.000  C
  C13      1.0000 0.10400  0.22700  0.90410  Biso   1.000  C
  C14      1.0000 0.04920  0.24210  0.81150  Biso   1.000  C
  C15      1.0000 0.33410  0.39700  0.98200  Biso   1.000  C
  C16      1.0000 0.06260  0.15570  0.94430  Biso   1.000  C
  C17      1.0000 0.88920  0.01790  0.69670  Biso   1.000  C
  C18      1.0000 0.88840  0.05730  0.61180  Biso   1.000  C
  C19      1.0000 0.79340  0.07370  0.54000  Biso   1.000  C
  C20      1.0000 0.79140  0.10510  0.45930  Biso   1.000  C
  C21      1.0000 0.88610  0.12170  0.44930  Biso   1.000  C
  C22      1.0000 0.98140  0.10730  0.52140  Biso   1.000  C
  C23      1.0000 0.98180  0.07450  0.60130  Biso   1.000  C
  C24      1.0000 0.88220  0.15110  0.36120  Biso   1.000  C
  C25      1.0000 0.78660  0.19350  0.21080  Biso   1.000  C
  C26      1.0000 0.71750  0.25890  0.17200  Biso   1.000  C
  C27      1.0000 0.69420  0.27710  0.08100  Biso   1.000  C
  C28      1.0000 0.73850  0.22580  0.02730  Biso   1.000  C
  C29      1.0000 0.80680  0.15880  0.06560  Biso   1.000  C
  C30      1.0000 0.83360  0.14510  0.15880  Biso   1.000  C
  C31      1.0000 0.62100  0.35050  0.04270  Biso   1.000  C
  C32      1.0000 0.84260  0.09710  0.00340  Biso   1.000  C
  C33      1.0000 0.29680  0.61960  0.18770  Biso   1.000  C
  C34      1.0000 0.20890  0.63800  0.20510  Biso   1.000  C
  C35      1.0000 0.18000  0.55710  0.23520  Biso   1.000  C
  C36      1.0000 0.23140  0.48050  0.25470  Biso   1.000  C
  C37      1.0000 0.32260  0.48820  0.23420  Biso   1.000  C
  C38      1.0000 0.60580  0.96910  0.78590  Biso   1.000  C
  C39      1.0000 0.49920  0.94170  0.76080  Biso   1.000  C
  C40      1.0000 0.47380  0.85260  0.76140  Biso   1.000  C
  C41      1.0000 0.55280  0.79520  0.78860  Biso   1.000  C
  C42      1.0000 0.65590  0.82500  0.81280  Biso   1.000  C
  C43      1.0000 0.34280  0.54100  0.69620  Biso   1.000  C
  C44      1.0000 0.26900  0.58310  0.61360  Biso   1.000  C
  C45      1.0000 0.15970  0.57090  0.58290  Biso   1.000  C
  C46      1.0000 0.09280  0.60580  0.50320  Biso   1.000  C
  C47      1.0000 0.13250  0.65450  0.45220  Biso   1.000  C
  C48      1.0000 0.24210  0.66940  0.48460  Biso   1.000  C
  C49      1.0000 0.30880  0.63410  0.56410  Biso   1.000  C
  C50      1.0000 0.06530  0.68770  0.36340  Biso   1.000  C
  C51      1.0000 0.91170  0.69320  0.22750  Biso   1.000  C
  C52      1.0000 0.81580  0.64710  0.17530  Biso   1.000  C
  C53      1.0000 0.76210  0.66030  0.08060  Biso   1.000  C
  C54      1.0000 0.80230  0.72230  0.04130  Biso   1.000  C
  C55      1.0000 0.89600  0.77300  0.09590  Biso   1.000  C
  C56      1.0000 0.95080  0.75790  0.18850  Biso   1.000  C
  C57      1.0000 0.66590  0.60300  0.01800  Biso   1.000  C
  C58      1.0000 0.93740  0.84430  0.05570  Biso   1.000  C
  C59      1.0000 0.11080  0.98210  0.30330  Biso   1.000  C
  C60      1.0000 0.11160  0.94270  0.38820  Biso   1.000  C
  C61      1.0000 0.20660  0.92630  0.46000  Biso   1.000  C
  C62      1.0000 0.20860  0.89490  0.54070  Biso   1.000  C
  C63      1.0000 0.11390  0.87830  0.55070  Biso   1.000  C
  C64      1.0000 0.01860  0.89270  0.47860  Biso   1.000  C
  C65      1.0000 0.01820  0.92550  0.39870  Biso   1.000  C
  C66      1.0000 0.11780  0.84890  0.63880  Biso   1.000  C
  C67      1.0000 0.21340  0.80650  0.78920  Biso   1.000  C
  C68      1.0000 0.28250  0.74110  0.82800  Biso   1.000  C
  C69      1.0000 0.30580  0.72290  0.91900  Biso   1.000  C
  C70      1.0000 0.26150  0.77420  0.97270  Biso   1.000  C
  C71      1.0000 0.19320  0.84120  0.93440  Biso   1.000  C
  C72      1.0000 0.16640  0.85490  0.84120  Biso   1.000  C
  C73      1.0000 0.37900  0.64950  0.95730  Biso   1.000  C
  C74      1.0000 0.15740  0.90290  0.99660  Biso   1.000  C
  C75      1.0000 0.70320  0.38040  0.81230  Biso   1.000  C
  C76      1.0000 0.79110  0.36200  0.79490  Biso   1.000  C
  C77      1.0000 0.82000  0.44290  0.76480  Biso   1.000  C
  C78      1.0000 0.76860  0.51950  0.74530  Biso   1.000  C
  C79      1.0000 0.67740  0.51180  0.76580  Biso   1.000  C
  C80      1.0000 0.39420  0.03090  0.21410  Biso   1.000  C
  C81      1.0000 0.50080  0.05830  0.23920  Biso   1.000  C
  C82      1.0000 0.52620  0.14740  0.23860  Biso   1.000  C
  C83      1.0000 0.44720  0.20480  0.21140  Biso   1.000  C
  C84      1.0000 0.34410  0.17500  0.18720  Biso   1.000  C
  N1       1.0000 0.03230  0.33220  0.68030  Biso   1.000  N
  N2       1.0000 0.79650  0.17280  0.30050  Biso   1.000  N
  N3       1.0000 0.35880  0.55600  0.20220  Biso   1.000  N
  N4       1.0000 0.68350  0.91160  0.81230  Biso   1.000  N
  N5       1.0000 0.96770  0.66780  0.31970  Biso   1.000  N
  N6       1.0000 0.20350  0.82720  0.69950  Biso   1.000  N
  N7       1.0000 0.64120  0.44400  0.79780  Biso   1.000  N
  N8       1.0000 0.31650  0.08840  0.18770  Biso   1.000  N
  O1       1.0000 0.55640  0.44400  0.27800  Biso   1.000  O
  O2       1.0000 0.69370  0.50650  0.26100  Biso   1.000  O
  O3       1.0000 0.35720  0.40630  0.06920  Biso   1.000  O
  O4       1.0000 0.38900  0.43870  0.94750  Biso   1.000  O
  O5       1.0000 0.97720  0.11410  0.89230  Biso   1.000  O
  O6       1.0000 0.11730  0.14250  0.02920  Biso   1.000  O
  O7       1.0000 0.57790  0.38560  0.09460  Biso   1.000  O
  O8       1.0000 0.60680  0.37180  0.96340  Biso   1.000  O
  O9       1.0000 0.97170  0.98630  0.74940  Biso   1.000  O
  O10      1.0000 0.80350  0.01840  0.71080  Biso   1.000  O
  O11      1.0000 0.78680  0.08660  0.91690  Biso   1.000  O
  O12      1.0000 0.92490  0.05250  0.03890  Biso   1.000  O
  O13      1.0000 0.55970  0.66820  0.22670  Biso   1.000  O
  O14      1.0000 0.86910  0.82270  0.77460  Biso   1.000  O
  O15      1.0000 0.44360  0.55600  0.72200  Biso   1.000  O
  O16      1.0000 0.30630  0.49350  0.73900  Biso   1.000  O
  O17      1.0000 0.64280  0.59370  0.93080  Biso   1.000  O
  O18      1.0000 0.61100  0.56130  0.05250  Biso   1.000  O
  O19      1.0000 0.02280  0.88590  0.10770  Biso   1.000  O
  O20      1.0000 0.88270  0.85750  0.97080  Biso   1.000  O
  O21      1.0000 0.42210  0.61440  0.90540  Biso   1.000  O
  O22      1.0000 0.39320  0.62820  0.03660  Biso   1.000  O
  O23      1.0000 0.02830  0.01370  0.25060  Biso   1.000  O
  O24      1.0000 0.19650  0.98160  0.28920  Biso   1.000  O
  O25      1.0000 0.21320  0.91340  0.08310  Biso   1.000  O
  O26      1.0000 0.07510  0.94750  0.96110  Biso   1.000  O
  O27      1.0000 0.44030  0.33180  0.77330  Biso   1.000  O
  O28      1.0000 0.13090  0.17730  0.22540  Biso   1.000  O
