data_image0
_cell_length_a       13.645
_cell_length_b       14.2731
_cell_length_c       16.1135
_cell_angle_alpha    116.289
_cell_angle_beta     99.0059
_cell_angle_gamma    90

_symmetry_space_group_name_H-M    P 1
_symmetry_int_tables_number       1

loop_
  _symmetry_equiv_pos_as_xyz
  'x, y, z'

loop_
  _atom_site_label
  _atom_site_occupancy
  _atom_site_fract_x
  _atom_site_fract_y
  _atom_site_fract_z
  _atom_site_thermal_displace_type
  _atom_site_B_iso_or_equiv
  _atom_site_type_symbol
  Nd1      1.0000 0.04339  0.03041  0.63589  Biso   1.000  Nd
  Nd2      1.0000 0.45661  0.39452  0.36411  Biso   1.000  Nd
  Nd3      1.0000 0.95661  0.96959  0.36411  Biso   1.000  Nd
  Nd4      1.0000 0.54339  0.60548  0.63589  Biso   1.000  Nd
  H1       1.0000 0.91730  0.11820  0.93520  Biso   1.000  H
  H2       1.0000 0.87810  0.22270  0.08020  Biso   1.000  H
  H3       1.0000 0.90190  0.47100  0.03320  Biso   1.000  H
  H4       1.0000 0.95030  0.36670  0.89000  Biso   1.000  H
  H5       1.0000 0.88700  0.38400  0.19800  Biso   1.000  H
  H6       1.0000 0.92070  0.69800  0.31840  Biso   1.000  H
  H7       1.0000 0.72460  0.47240  0.28740  Biso   1.000  H
  H8       1.0000 0.80160  0.72040  0.53940  Biso   1.000  H
  H9       1.0000 0.26140  0.27280  0.87700  Biso   1.000  H
  H10      1.0000 0.36250  0.34190  0.91120  Biso   1.000  H
  H11      1.0000 0.26610  0.38070  0.87340  Biso   1.000  H
  H12      1.0000 0.40580  0.22200  0.66260  Biso   1.000  H
  H13      1.0000 0.37670  0.33810  0.70020  Biso   1.000  H
  H14      1.0000 0.46020  0.30760  0.76040  Biso   1.000  H
  H15      1.0000 0.58270  0.18300  0.06480  Biso   1.000  H
  H16      1.0000 0.62190  0.14250  0.91980  Biso   1.000  H
  H17      1.0000 0.59810  0.43780  0.96680  Biso   1.000  H
  H18      1.0000 0.54970  0.47670  0.11000  Biso   1.000  H
  H19      1.0000 0.61300  0.18600  0.80200  Biso   1.000  H
  H20      1.0000 0.57930  0.37960  0.68160  Biso   1.000  H
  H21      1.0000 0.77540  0.18500  0.71260  Biso   1.000  H
  H22      1.0000 0.69840  0.18100  0.46060  Biso   1.000  H
  H23      1.0000 0.23860  0.39580  0.12300  Biso   1.000  H
  H24      1.0000 0.13750  0.43070  0.08880  Biso   1.000  H
  H25      1.0000 0.23390  0.50730  0.12660  Biso   1.000  H
  H26      1.0000 0.09420  0.55940  0.33740  Biso   1.000  H
  H27      1.0000 0.12330  0.63790  0.29980  Biso   1.000  H
  H28      1.0000 0.03980  0.54720  0.23960  Biso   1.000  H
  H29      1.0000 0.08270  0.88180  0.06480  Biso   1.000  H
  H30      1.0000 0.12190  0.77730  0.91980  Biso   1.000  H
  H31      1.0000 0.09810  0.52900  0.96680  Biso   1.000  H
  H32      1.0000 0.04970  0.63330  0.11000  Biso   1.000  H
  H33      1.0000 0.11300  0.61600  0.80200  Biso   1.000  H
  H34      1.0000 0.07930  0.30200  0.68160  Biso   1.000  H
  H35      1.0000 0.27540  0.52760  0.71260  Biso   1.000  H
  H36      1.0000 0.19840  0.27960  0.46060  Biso   1.000  H
  H37      1.0000 0.73860  0.72720  0.12300  Biso   1.000  H
  H38      1.0000 0.63750  0.65810  0.08880  Biso   1.000  H
  H39      1.0000 0.73390  0.61930  0.12660  Biso   1.000  H
  H40      1.0000 0.59420  0.77800  0.33740  Biso   1.000  H
  H41      1.0000 0.62330  0.66190  0.29980  Biso   1.000  H
  H42      1.0000 0.53980  0.69240  0.23960  Biso   1.000  H
  H43      1.0000 0.41730  0.81700  0.93520  Biso   1.000  H
  H44      1.0000 0.37810  0.85750  0.08020  Biso   1.000  H
  H45      1.0000 0.40190  0.56220  0.03320  Biso   1.000  H
  H46      1.0000 0.45030  0.52330  0.89000  Biso   1.000  H
  H47      1.0000 0.38700  0.81400  0.19800  Biso   1.000  H
  H48      1.0000 0.42070  0.62040  0.31840  Biso   1.000  H
  H49      1.0000 0.22460  0.81500  0.28740  Biso   1.000  H
  H50      1.0000 0.30160  0.81900  0.53940  Biso   1.000  H
  H51      1.0000 0.76140  0.60420  0.87700  Biso   1.000  H
  H52      1.0000 0.86250  0.56930  0.91120  Biso   1.000  H
  H53      1.0000 0.76610  0.49270  0.87340  Biso   1.000  H
  H54      1.0000 0.90580  0.44060  0.66260  Biso   1.000  H
  H55      1.0000 0.87670  0.36210  0.70020  Biso   1.000  H
  H56      1.0000 0.96020  0.45280  0.76040  Biso   1.000  H
  C1       1.0000 0.97900  0.16490  0.80940  Biso   1.000  C
  C2       1.0000 0.94240  0.23250  0.89860  Biso   1.000  C
  C3       1.0000 0.91650  0.19010  0.95540  Biso   1.000  C
  C4       1.0000 0.88940  0.25200  0.04100  Biso   1.000  C
  C5       1.0000 0.87950  0.35320  0.06740  Biso   1.000  C
  C6       1.0000 0.90490  0.39920  0.01300  Biso   1.000  C
  C7       1.0000 0.93510  0.33660  0.92760  Biso   1.000  C
  C8       1.0000 0.85480  0.42040  0.16300  Biso   1.000  C
  C9       1.0000 0.92930  0.82830  0.50020  Biso   1.000  C
  C10      1.0000 0.87290  0.72480  0.43980  Biso   1.000  C
  C11      1.0000 0.88120  0.66910  0.34460  Biso   1.000  C
  C12      1.0000 0.83080  0.57170  0.29020  Biso   1.000  C
  C13      1.0000 0.76330  0.53460  0.32640  Biso   1.000  C
  C14      1.0000 0.75220  0.58920  0.42100  Biso   1.000  C
  C15      1.0000 0.80760  0.68350  0.47640  Biso   1.000  C
  C16      1.0000 0.67880  0.54790  0.45680  Biso   1.000  C
  C17      1.0000 0.26750  0.15940  0.68820  Biso   1.000  C
  C18      1.0000 0.30200  0.32030  0.86640  Biso   1.000  C
  C19      1.0000 0.39790  0.28410  0.71760  Biso   1.000  C
  C20      1.0000 0.52100  0.35550  0.19060  Biso   1.000  C
  C21      1.0000 0.55760  0.33390  0.10140  Biso   1.000  C
  C22      1.0000 0.58350  0.23470  0.04460  Biso   1.000  C
  C23      1.0000 0.61060  0.21100  0.95900  Biso   1.000  C
  C24      1.0000 0.62050  0.28580  0.93260  Biso   1.000  C
  C25      1.0000 0.59510  0.38620  0.98700  Biso   1.000  C
  C26      1.0000 0.56490  0.40900  0.07240  Biso   1.000  C
  C27      1.0000 0.64520  0.25740  0.83700  Biso   1.000  C
  C28      1.0000 0.57070  0.32810  0.49980  Biso   1.000  C
  C29      1.0000 0.62710  0.28500  0.56020  Biso   1.000  C
  C30      1.0000 0.61880  0.32450  0.65540  Biso   1.000  C
  C31      1.0000 0.66920  0.28150  0.70980  Biso   1.000  C
  C32      1.0000 0.73670  0.20820  0.67360  Biso   1.000  C
  C33      1.0000 0.74780  0.16820  0.57900  Biso   1.000  C
  C34      1.0000 0.69240  0.20710  0.52360  Biso   1.000  C
  C35      1.0000 0.82120  0.09110  0.54320  Biso   1.000  C
  C36      1.0000 0.23250  0.47120  0.31180  Biso   1.000  C
  C37      1.0000 0.19800  0.45390  0.13360  Biso   1.000  C
  C38      1.0000 0.10210  0.56650  0.28240  Biso   1.000  C
  C39      1.0000 0.02100  0.83510  0.19060  Biso   1.000  C
  C40      1.0000 0.05760  0.76750  0.10140  Biso   1.000  C
  C41      1.0000 0.08350  0.80990  0.04460  Biso   1.000  C
  C42      1.0000 0.11060  0.74800  0.95900  Biso   1.000  C
  C43      1.0000 0.12050  0.64680  0.93260  Biso   1.000  C
  C44      1.0000 0.09510  0.60080  0.98700  Biso   1.000  C
  C45      1.0000 0.06490  0.66340  0.07240  Biso   1.000  C
  C46      1.0000 0.14520  0.57960  0.83700  Biso   1.000  C
  C47      1.0000 0.07070  0.17170  0.49980  Biso   1.000  C
  C48      1.0000 0.12710  0.27520  0.56020  Biso   1.000  C
  C49      1.0000 0.11880  0.33090  0.65540  Biso   1.000  C
  C50      1.0000 0.16920  0.42830  0.70980  Biso   1.000  C
  C51      1.0000 0.23670  0.46540  0.67360  Biso   1.000  C
  C52      1.0000 0.24780  0.41080  0.57900  Biso   1.000  C
  C53      1.0000 0.19240  0.31650  0.52360  Biso   1.000  C
  C54      1.0000 0.32120  0.45210  0.54320  Biso   1.000  C
  C55      1.0000 0.73250  0.84060  0.31180  Biso   1.000  C
  C56      1.0000 0.69800  0.67970  0.13360  Biso   1.000  C
  C57      1.0000 0.60210  0.71590  0.28240  Biso   1.000  C
  C58      1.0000 0.47900  0.64450  0.80940  Biso   1.000  C
  C59      1.0000 0.44240  0.66610  0.89860  Biso   1.000  C
  C60      1.0000 0.41650  0.76530  0.95540  Biso   1.000  C
  C61      1.0000 0.38940  0.78900  0.04100  Biso   1.000  C
  C62      1.0000 0.37950  0.71420  0.06740  Biso   1.000  C
  C63      1.0000 0.40490  0.61380  0.01300  Biso   1.000  C
  C64      1.0000 0.43510  0.59100  0.92760  Biso   1.000  C
  C65      1.0000 0.35480  0.74260  0.16300  Biso   1.000  C
  C66      1.0000 0.42930  0.67190  0.50020  Biso   1.000  C
  C67      1.0000 0.37290  0.71500  0.43980  Biso   1.000  C
  C68      1.0000 0.38120  0.67550  0.34460  Biso   1.000  C
  C69      1.0000 0.33080  0.71850  0.29020  Biso   1.000  C
  C70      1.0000 0.26330  0.79180  0.32640  Biso   1.000  C
  C71      1.0000 0.25220  0.83180  0.42100  Biso   1.000  C
  C72      1.0000 0.30760  0.79290  0.47640  Biso   1.000  C
  C73      1.0000 0.17880  0.90890  0.45680  Biso   1.000  C
  C74      1.0000 0.76750  0.52880  0.68820  Biso   1.000  C
  C75      1.0000 0.80200  0.54610  0.86640  Biso   1.000  C
  C76      1.0000 0.89790  0.43350  0.71760  Biso   1.000  C
  N1       1.0000 0.85090  0.51560  0.19700  Biso   1.000  N
  N2       1.0000 0.32640  0.26230  0.76140  Biso   1.000  N
  N3       1.0000 0.64910  0.31860  0.80300  Biso   1.000  N
  N4       1.0000 0.17360  0.50090  0.23860  Biso   1.000  N
  N5       1.0000 0.14910  0.48440  0.80300  Biso   1.000  N
  N6       1.0000 0.67360  0.73770  0.23860  Biso   1.000  N
  N7       1.0000 0.35090  0.68140  0.19700  Biso   1.000  N
  N8       1.0000 0.82640  0.49910  0.76140  Biso   1.000  N
  O1       1.0000 0.98280  0.06960  0.78440  Biso   1.000  O
  O2       1.0000 0.00630  0.20844  0.76168  Biso   1.000  O
  O3       1.0000 0.94800  0.86028  0.58836  Biso   1.000  O
  O4       1.0000 0.96080  0.88299  0.46358  Biso   1.000  O
  O5       1.0000 0.66920  0.60289  0.54278  Biso   1.000  O
  O6       1.0000 0.62860  0.46183  0.40226  Biso   1.000  O
  O7       1.0000 0.19780  0.14090  0.71540  Biso   1.000  O
  O8       1.0000 0.12880  0.92350  0.71240  Biso   1.000  O
  O9       1.0000 0.51720  0.28520  0.21560  Biso   1.000  O
  O10      1.0000 0.49370  0.44676  0.23832  Biso   1.000  O
  O11      1.0000 0.55200  0.27192  0.41164  Biso   1.000  O
  O12      1.0000 0.53920  0.41941  0.53642  Biso   1.000  O
  O13      1.0000 0.83080  0.06011  0.45722  Biso   1.000  O
  O14      1.0000 0.87140  0.05957  0.59774  Biso   1.000  O
  O15      1.0000 0.30220  0.42550  0.28460  Biso   1.000  O
  O16      1.0000 0.37120  0.21110  0.28760  Biso   1.000  O
  O17      1.0000 0.01720  0.93040  0.21560  Biso   1.000  O
  O18      1.0000 0.99370  0.79156  0.23832  Biso   1.000  O
  O19      1.0000 0.05200  0.13972  0.41164  Biso   1.000  O
  O20      1.0000 0.03920  0.11701  0.53642  Biso   1.000  O
  O21      1.0000 0.33080  0.39711  0.45722  Biso   1.000  O
  O22      1.0000 0.37140  0.53817  0.59774  Biso   1.000  O
  O23      1.0000 0.80220  0.85910  0.28460  Biso   1.000  O
  O24      1.0000 0.87120  0.07650  0.28760  Biso   1.000  O
  O25      1.0000 0.48280  0.71480  0.78440  Biso   1.000  O
  O26      1.0000 0.50630  0.55324  0.76168  Biso   1.000  O
  O27      1.0000 0.44800  0.72808  0.58836  Biso   1.000  O
  O28      1.0000 0.46080  0.58059  0.46358  Biso   1.000  O
  O29      1.0000 0.16920  0.93989  0.54278  Biso   1.000  O
  O30      1.0000 0.12860  0.94043  0.40226  Biso   1.000  O
  O31      1.0000 0.69780  0.57450  0.71540  Biso   1.000  O
  O32      1.0000 0.62880  0.78890  0.71240  Biso   1.000  O
