data_image0
_cell_length_a       15.2861
_cell_length_b       17.5096
_cell_length_c       19.0033
_cell_angle_alpha    62.5677
_cell_angle_beta     86.2685
_cell_angle_gamma    81.8789

_symmetry_space_group_name_H-M    P 1
_symmetry_int_tables_number       1

loop_
  _symmetry_equiv_pos_as_xyz
  'x, y, z'

loop_
  _atom_site_label
  _atom_site_occupancy
  _atom_site_fract_x
  _atom_site_fract_y
  _atom_site_fract_z
  _atom_site_thermal_displace_type
  _atom_site_B_iso_or_equiv
  _atom_site_type_symbol
  Co1      1.0000 0.93244  0.68402  0.20158  Biso   1.000  Co
  Co2      1.0000 0.49918  0.34283  0.27250  Biso   1.000  Co
  Co3      1.0000 0.21829  0.31006  0.70824  Biso   1.000  Co
  Co4      1.0000 0.61093  0.19274  0.76468  Biso   1.000  Co
  Co5      1.0000 0.43244  0.88560  0.79842  Biso   1.000  Co
  Co6      1.0000 0.99918  0.61533  0.72750  Biso   1.000  Co
  Co7      1.0000 0.71829  0.01830  0.29176  Biso   1.000  Co
  Co8      1.0000 0.11093  0.95742  0.23532  Biso   1.000  Co
  H1       1.0000 0.85900  0.45900  0.27600  Biso   1.000  H
  H2       1.0000 0.83430  0.33010  0.27740  Biso   1.000  H
  H3       1.0000 0.80280  0.33780  0.16140  Biso   1.000  H
  H4       1.0000 0.81170  0.45700  0.04240  Biso   1.000  H
  H5       1.0000 0.91800  0.92970  0.10400  Biso   1.000  H
  H6       1.0000 0.91340  0.06910  0.99620  Biso   1.000  H
  H7       1.0000 0.92120  0.08980  0.86780  Biso   1.000  H
  H8       1.0000 0.90840  0.97570  0.83860  Biso   1.000  H
  H9       1.0000 0.05920  0.47360  0.44100  Biso   1.000  H
  H10      1.0000 0.29930  0.33320  0.46740  Biso   1.000  H
  H11      1.0000 0.20180  0.49610  0.24880  Biso   1.000  H
  H12      1.0000 0.50970  0.34740  0.46780  Biso   1.000  H
  H13      1.0000 0.54010  0.39640  0.55720  Biso   1.000  H
  H14      1.0000 0.60960  0.51880  0.51640  Biso   1.000  H
  H15      1.0000 0.65080  0.59670  0.38480  Biso   1.000  H
  H16      1.0000 0.51070  0.36260  0.06400  Biso   1.000  H
  H17      1.0000 0.53070  0.42780  0.92840  Biso   1.000  H
  H18      1.0000 0.58770  0.55870  0.86360  Biso   1.000  H
  H19      1.0000 0.62230  0.62990  0.93180  Biso   1.000  H
  H20      1.0000 0.29280  0.33710  0.17520  Biso   1.000  H
  H21      1.0000 0.19900  0.27840  0.12740  Biso   1.000  H
  H22      1.0000 0.24480  0.15440  0.11400  Biso   1.000  H
  H23      1.0000 0.38650  0.07970  0.15380  Biso   1.000  H
  H24      1.0000 0.69170  0.30300  0.40540  Biso   1.000  H
  H25      1.0000 0.82580  0.23810  0.46700  Biso   1.000  H
  H26      1.0000 0.90170  0.12060  0.45580  Biso   1.000  H
  H27      1.0000 0.84380  0.06260  0.38460  Biso   1.000  H
  H28      1.0000 0.23340  0.32880  0.86020  Biso   1.000  H
  H29      1.0000 0.28560  0.33270  0.96900  Biso   1.000  H
  H30      1.0000 0.43300  0.28460  0.00660  Biso   1.000  H
  H31      1.0000 0.53600  0.24410  0.93020  Biso   1.000  H
  H32      1.0000 0.37290  0.16330  0.51340  Biso   1.000  H
  H33      1.0000 0.48900  0.10120  0.46600  Biso   1.000  H
  H34      1.0000 0.63030  0.08220  0.50880  Biso   1.000  H
  H35      1.0000 0.66230  0.12530  0.60120  Biso   1.000  H
  H36      1.0000 0.71530  0.98410  0.77040  Biso   1.000  H
  H37      1.0000 0.81430  0.89430  0.73180  Biso   1.000  H
  H38      1.0000 0.93530  0.94420  0.65620  Biso   1.000  H
  H39      1.0000 0.97020  0.08560  0.61540  Biso   1.000  H
  H40      1.0000 0.52500  0.42000  0.74020  Biso   1.000  H
  H41      1.0000 0.52720  0.56230  0.70520  Biso   1.000  H
  H42      1.0000 0.64900  0.63230  0.64280  Biso   1.000  H
  H43      1.0000 0.76850  0.56100  0.61020  Biso   1.000  H
  H44      1.0000 0.15670  0.11180  0.96260  Biso   1.000  H
  H45      1.0000 0.16960  0.00990  0.80940  Biso   1.000  H
  H46      1.0000 0.14120  0.85730  0.04260  Biso   1.000  H
  H47      1.0000 0.89860  0.79620  0.91700  Biso   1.000  H
  H48      1.0000 0.86080  0.62990  0.98280  Biso   1.000  H
  H49      1.0000 0.62430  0.60940  0.09060  Biso   1.000  H
  H50      1.0000 0.64190  0.59290  0.23660  Biso   1.000  H
  H51      1.0000 0.53870  0.08880  0.22400  Biso   1.000  H
  H52      1.0000 0.33880  0.22910  0.62560  Biso   1.000  H
  H53      1.0000 0.83060  0.39180  0.62660  Biso   1.000  H
  H54      1.0000 0.89280  0.24000  0.62220  Biso   1.000  H
  H55      1.0000 0.35900  0.73500  0.72400  Biso   1.000  H
  H56      1.0000 0.33430  0.60750  0.72260  Biso   1.000  H
  H57      1.0000 0.30280  0.49920  0.83860  Biso   1.000  H
  H58      1.0000 0.31170  0.49940  0.95760  Biso   1.000  H
  H59      1.0000 0.41800  0.03370  0.89600  Biso   1.000  H
  H60      1.0000 0.41340  0.06530  0.00380  Biso   1.000  H
  H61      1.0000 0.42120  0.95760  0.13220  Biso   1.000  H
  H62      1.0000 0.40840  0.81430  0.16140  Biso   1.000  H
  H63      1.0000 0.55920  0.91460  0.55900  Biso   1.000  H
  H64      1.0000 0.79930  0.80060  0.53260  Biso   1.000  H
  H65      1.0000 0.70180  0.74490  0.75120  Biso   1.000  H
  H66      1.0000 0.00970  0.81520  0.53220  Biso   1.000  H
  H67      1.0000 0.04010  0.95360  0.44280  Biso   1.000  H
  H68      1.0000 0.10960  0.03520  0.48360  Biso   1.000  H
  H69      1.0000 0.15080  0.98150  0.61520  Biso   1.000  H
  H70      1.0000 0.01070  0.42660  0.93600  Biso   1.000  H
  H71      1.0000 0.03070  0.35620  0.07160  Biso   1.000  H
  H72      1.0000 0.08770  0.42230  0.13640  Biso   1.000  H
  H73      1.0000 0.12230  0.56170  0.06820  Biso   1.000  H
  H74      1.0000 0.79280  0.51230  0.82480  Biso   1.000  H
  H75      1.0000 0.69900  0.40580  0.87260  Biso   1.000  H
  H76      1.0000 0.74480  0.26840  0.88600  Biso   1.000  H
  H77      1.0000 0.88650  0.23350  0.84620  Biso   1.000  H
  H78      1.0000 0.19170  0.70840  0.59460  Biso   1.000  H
  H79      1.0000 0.32580  0.70510  0.53300  Biso   1.000  H
  H80      1.0000 0.40170  0.57640  0.54420  Biso   1.000  H
  H81      1.0000 0.34380  0.44720  0.61540  Biso   1.000  H
  H82      1.0000 0.73340  0.18900  0.13980  Biso   1.000  H
  H83      1.0000 0.78560  0.30170  0.03100  Biso   1.000  H
  H84      1.0000 0.93300  0.29120  0.99340  Biso   1.000  H
  H85      1.0000 0.03600  0.17430  0.06980  Biso   1.000  H
  H86      1.0000 0.87290  0.67670  0.48660  Biso   1.000  H
  H87      1.0000 0.98900  0.56720  0.53400  Biso   1.000  H
  H88      1.0000 0.13030  0.59100  0.49120  Biso   1.000  H
  H89      1.0000 0.16230  0.72650  0.39880  Biso   1.000  H
  H90      1.0000 0.21530  0.75450  0.22960  Biso   1.000  H
  H91      1.0000 0.31430  0.62610  0.26820  Biso   1.000  H
  H92      1.0000 0.43530  0.60040  0.34380  Biso   1.000  H
  H93      1.0000 0.47020  0.70100  0.38460  Biso   1.000  H
  H94      1.0000 0.02500  0.16020  0.25980  Biso   1.000  H
  H95      1.0000 0.02720  0.26750  0.29480  Biso   1.000  H
  H96      1.0000 0.14900  0.27510  0.35720  Biso   1.000  H
  H97      1.0000 0.26850  0.17120  0.38980  Biso   1.000  H
  H98      1.0000 0.65670  0.07440  0.03740  Biso   1.000  H
  H99      1.0000 0.66960  0.81930  0.19060  Biso   1.000  H
  H100     1.0000 0.64120  0.89990  0.95740  Biso   1.000  H
  H101     1.0000 0.39860  0.71320  0.08300  Biso   1.000  H
  H102     1.0000 0.36080  0.61270  0.01720  Biso   1.000  H
  H103     1.0000 0.12430  0.70000  0.90940  Biso   1.000  H
  H104     1.0000 0.14190  0.82950  0.76340  Biso   1.000  H
  H105     1.0000 0.03870  0.31280  0.77600  Biso   1.000  H
  H106     1.0000 0.83880  0.85470  0.37440  Biso   1.000  H
  H107     1.0000 0.33060  0.01840  0.37340  Biso   1.000  H
  H108     1.0000 0.39280  0.86220  0.37780  Biso   1.000  H
  C1       1.0000 0.86880  0.52940  0.16280  Biso   1.000  C
  C2       1.0000 0.86350  0.45410  0.23480  Biso   1.000  C
  C3       1.0000 0.83830  0.38140  0.23120  Biso   1.000  C
  C4       1.0000 0.82020  0.38680  0.16100  Biso   1.000  C
  C5       1.0000 0.82490  0.45670  0.08960  Biso   1.000  C
  C6       1.0000 0.85150  0.52950  0.09240  Biso   1.000  C
  C7       1.0000 0.91380  0.86930  0.03460  Biso   1.000  C
  C8       1.0000 0.91600  0.93820  0.05200  Biso   1.000  C
  C9       1.0000 0.91500  0.02130  0.98680  Biso   1.000  C
  C10      1.0000 0.91640  0.03460  0.90860  Biso   1.000  C
  C11      1.0000 0.91080  0.96700  0.89060  Biso   1.000  C
  C12      1.0000 0.90910  0.88520  0.95560  Biso   1.000  C
  C13      1.0000 0.88820  0.65510  0.06960  Biso   1.000  C
  C14      1.0000 0.90210  0.74630  0.03560  Biso   1.000  C
  C15      1.0000 0.05140  0.56330  0.28440  Biso   1.000  C
  C16      1.0000 0.12060  0.49500  0.33680  Biso   1.000  C
  C17      1.0000 0.11060  0.45830  0.41900  Biso   1.000  C
  C18      1.0000 0.17840  0.39820  0.46820  Biso   1.000  C
  C19      1.0000 0.16940  0.36310  0.55560  Biso   1.000  C
  C20      1.0000 0.25470  0.37360  0.43460  Biso   1.000  C
  C21      1.0000 0.26420  0.40940  0.35200  Biso   1.000  C
  C22      1.0000 0.34680  0.38170  0.31860  Biso   1.000  C
  C23      1.0000 0.19600  0.47120  0.30360  Biso   1.000  C
  C24      1.0000 0.56070  0.44420  0.37220  Biso   1.000  C
  C25      1.0000 0.53710  0.39700  0.45120  Biso   1.000  C
  C26      1.0000 0.55580  0.42640  0.50420  Biso   1.000  C
  C27      1.0000 0.59800  0.50060  0.47940  Biso   1.000  C
  C28      1.0000 0.62280  0.54740  0.40100  Biso   1.000  C
  C29      1.0000 0.60420  0.51790  0.34720  Biso   1.000  C
  C30      1.0000 0.55470  0.45750  0.08140  Biso   1.000  C
  C31      1.0000 0.53290  0.41560  0.03840  Biso   1.000  C
  C32      1.0000 0.54530  0.45470  0.95760  Biso   1.000  C
  C33      1.0000 0.57930  0.53440  0.91820  Biso   1.000  C
  C34      1.0000 0.60050  0.57670  0.95820  Biso   1.000  C
  C35      1.0000 0.58820  0.53740  0.04060  Biso   1.000  C
  C36      1.0000 0.58270  0.49490  0.24620  Biso   1.000  C
  C37      1.0000 0.58100  0.49890  0.16780  Biso   1.000  C
  C38      1.0000 0.39680  0.23870  0.19900  Biso   1.000  C
  C39      1.0000 0.31090  0.28550  0.17260  Biso   1.000  C
  C40      1.0000 0.25600  0.25060  0.14280  Biso   1.000  C
  C41      1.0000 0.28350  0.17490  0.13520  Biso   1.000  C
  C42      1.0000 0.36760  0.12980  0.15900  Biso   1.000  C
  C43      1.0000 0.42280  0.16400  0.19180  Biso   1.000  C
  C44      1.0000 0.68610  0.22360  0.35440  Biso   1.000  C
  C45      1.0000 0.72170  0.25580  0.40020  Biso   1.000  C
  C46      1.0000 0.80160  0.21660  0.43700  Biso   1.000  C
  C47      1.0000 0.84740  0.14530  0.43060  Biso   1.000  C
  C48      1.0000 0.81390  0.11080  0.38800  Biso   1.000  C
  C49      1.0000 0.73140  0.15200  0.34900  Biso   1.000  C
  C50      1.0000 0.52870  0.19110  0.24660  Biso   1.000  C
  C51      1.0000 0.60580  0.18580  0.28700  Biso   1.000  C
  C52      1.0000 0.35380  0.28780  0.82580  Biso   1.000  C
  C53      1.0000 0.29300  0.31310  0.87340  Biso   1.000  C
  C54      1.0000 0.32390  0.31390  0.93840  Biso   1.000  C
  C55      1.0000 0.41450  0.28610  0.96020  Biso   1.000  C
  C56      1.0000 0.47670  0.26080  0.91580  Biso   1.000  C
  C57      1.0000 0.44350  0.26240  0.84620  Biso   1.000  C
  C58      1.0000 0.44800  0.17750  0.58960  Biso   1.000  C
  C59      1.0000 0.43010  0.15460  0.53200  Biso   1.000  C
  C60      1.0000 0.49960  0.11860  0.50380  Biso   1.000  C
  C61      1.0000 0.58490  0.10730  0.52940  Biso   1.000  C
  C62      1.0000 0.60450  0.13230  0.58460  Biso   1.000  C
  C63      1.0000 0.53420  0.16870  0.61480  Biso   1.000  C
  C64      1.0000 0.42130  0.24960  0.74160  Biso   1.000  C
  C65      1.0000 0.44840  0.22210  0.68000  Biso   1.000  C
  C66      1.0000 0.78360  0.08880  0.71200  Biso   1.000  C
  C67      1.0000 0.76450  0.00410  0.73920  Biso   1.000  C
  C68      1.0000 0.82440  0.95100  0.71620  Biso   1.000  C
  C69      1.0000 0.89800  0.98150  0.67060  Biso   1.000  C
  C70      1.0000 0.91970  0.06640  0.64480  Biso   1.000  C
  C71      1.0000 0.85940  0.11870  0.66700  Biso   1.000  C
  C72      1.0000 0.64680  0.40080  0.69720  Biso   1.000  C
  C73      1.0000 0.57410  0.44710  0.71460  Biso   1.000  C
  C74      1.0000 0.57580  0.53140  0.69400  Biso   1.000  C
  C75      1.0000 0.65000  0.57420  0.65540  Biso   1.000  C
  C76      1.0000 0.72030  0.53300  0.63660  Biso   1.000  C
  C77      1.0000 0.71790  0.44540  0.65880  Biso   1.000  C
  C78      1.0000 0.78070  0.22530  0.68240  Biso   1.000  C
  C79      1.0000 0.74260  0.30950  0.67960  Biso   1.000  C
  C80      1.0000 0.13630  0.97000  0.09900  Biso   1.000  C
  C81      1.0000 0.14660  0.98160  0.01480  Biso   1.000  C
  C82      1.0000 0.15610  0.06450  0.95280  Biso   1.000  C
  C83      1.0000 0.16460  0.07370  0.87620  Biso   1.000  C
  C84      1.0000 0.17980  0.15880  0.80340  Biso   1.000  C
  C85      1.0000 0.16430  0.00230  0.86120  Biso   1.000  C
  C86      1.0000 0.15630  0.92040  0.92320  Biso   1.000  C
  C87      1.0000 0.15940  0.84580  0.90400  Biso   1.000  C
  C88      1.0000 0.14710  0.91150  0.00040  Biso   1.000  C
  C89      1.0000 0.36880  0.69220  0.83720  Biso   1.000  C
  C90      1.0000 0.36350  0.68890  0.76520  Biso   1.000  C
  C91      1.0000 0.33830  0.61260  0.76880  Biso   1.000  C
  C92      1.0000 0.32020  0.54780  0.83900  Biso   1.000  C
  C93      1.0000 0.32490  0.54630  0.91040  Biso   1.000  C
  C94      1.0000 0.35150  0.62190  0.90760  Biso   1.000  C
  C95      1.0000 0.41380  0.90390  0.96540  Biso   1.000  C
  C96      1.0000 0.41600  0.99020  0.94800  Biso   1.000  C
  C97      1.0000 0.41500  0.00810  0.01320  Biso   1.000  C
  C98      1.0000 0.41640  0.94320  0.09140  Biso   1.000  C
  C99      1.0000 0.41080  0.85760  0.10940  Biso   1.000  C
  C100     1.0000 0.40910  0.84080  0.04440  Biso   1.000  C
  C101     1.0000 0.38820  0.72470  0.93040  Biso   1.000  C
  C102     1.0000 0.40210  0.78190  0.96440  Biso   1.000  C
  C103     1.0000 0.55140  0.84770  0.71560  Biso   1.000  C
  C104     1.0000 0.62060  0.83180  0.66320  Biso   1.000  C
  C105     1.0000 0.61060  0.87730  0.58100  Biso   1.000  C
  C106     1.0000 0.67840  0.86640  0.53180  Biso   1.000  C
  C107     1.0000 0.66940  0.91870  0.44440  Biso   1.000  C
  C108     1.0000 0.75470  0.80820  0.56540  Biso   1.000  C
  C109     1.0000 0.76420  0.76140  0.64800  Biso   1.000  C
  C110     1.0000 0.84680  0.70030  0.68140  Biso   1.000  C
  C111     1.0000 0.69600  0.77480  0.69640  Biso   1.000  C
  C112     1.0000 0.06070  0.81640  0.62780  Biso   1.000  C
  C113     1.0000 0.03710  0.84820  0.54880  Biso   1.000  C
  C114     1.0000 0.05580  0.93060  0.49580  Biso   1.000  C
  C115     1.0000 0.09800  0.98000  0.52060  Biso   1.000  C
  C116     1.0000 0.12280  0.94840  0.59900  Biso   1.000  C
  C117     1.0000 0.10420  0.86510  0.65280  Biso   1.000  C
  C118     1.0000 0.05470  0.53890  0.91860  Biso   1.000  C
  C119     1.0000 0.03290  0.45400  0.96160  Biso   1.000  C
  C120     1.0000 0.04530  0.41230  0.04240  Biso   1.000  C
  C121     1.0000 0.07930  0.45260  0.08180  Biso   1.000  C
  C122     1.0000 0.10050  0.53490  0.04180  Biso   1.000  C
  C123     1.0000 0.08820  0.57800  0.95940  Biso   1.000  C
  C124     1.0000 0.08270  0.74110  0.75380  Biso   1.000  C
  C125     1.0000 0.08100  0.66670  0.83220  Biso   1.000  C
  C126     1.0000 0.89680  0.43770  0.80100  Biso   1.000  C
  C127     1.0000 0.81090  0.45810  0.82740  Biso   1.000  C
  C128     1.0000 0.75600  0.39340  0.85720  Biso   1.000  C
  C129     1.0000 0.78350  0.31010  0.86480  Biso   1.000  C
  C130     1.0000 0.86760  0.28880  0.84100  Biso   1.000  C
  C131     1.0000 0.92280  0.35580  0.80820  Biso   1.000  C
  C132     1.0000 0.18610  0.57800  0.64560  Biso   1.000  C
  C133     1.0000 0.22170  0.65600  0.59980  Biso   1.000  C
  C134     1.0000 0.30160  0.65360  0.56300  Biso   1.000  C
  C135     1.0000 0.34740  0.57590  0.56940  Biso   1.000  C
  C136     1.0000 0.31390  0.49880  0.61200  Biso   1.000  C
  C137     1.0000 0.23140  0.50100  0.65100  Biso   1.000  C
  C138     1.0000 0.02870  0.43770  0.75340  Biso   1.000  C
  C139     1.0000 0.10580  0.47280  0.71300  Biso   1.000  C
  C140     1.0000 0.85380  0.11360  0.17420  Biso   1.000  C
  C141     1.0000 0.79300  0.18650  0.12660  Biso   1.000  C
  C142     1.0000 0.82390  0.25230  0.06160  Biso   1.000  C
  C143     1.0000 0.91450  0.24630  0.03980  Biso   1.000  C
  C144     1.0000 0.97670  0.17660  0.08420  Biso   1.000  C
  C145     1.0000 0.94350  0.10860  0.15380  Biso   1.000  C
  C146     1.0000 0.94800  0.76710  0.41040  Biso   1.000  C
  C147     1.0000 0.93010  0.68660  0.46800  Biso   1.000  C
  C148     1.0000 0.99960  0.62240  0.49620  Biso   1.000  C
  C149     1.0000 0.08490  0.63670  0.47060  Biso   1.000  C
  C150     1.0000 0.10450  0.71690  0.41540  Biso   1.000  C
  C151     1.0000 0.03420  0.78350  0.38520  Biso   1.000  C
  C152     1.0000 0.92130  0.99120  0.25840  Biso   1.000  C
  C153     1.0000 0.94840  0.90210  0.32000  Biso   1.000  C
  C154     1.0000 0.28360  0.80080  0.28800  Biso   1.000  C
  C155     1.0000 0.26450  0.74330  0.26080  Biso   1.000  C
  C156     1.0000 0.32440  0.66720  0.28380  Biso   1.000  C
  C157     1.0000 0.39800  0.65210  0.32940  Biso   1.000  C
  C158     1.0000 0.41970  0.71120  0.35520  Biso   1.000  C
  C159     1.0000 0.35940  0.78570  0.33300  Biso   1.000  C
  C160     1.0000 0.14680  0.09800  0.30280  Biso   1.000  C
  C161     1.0000 0.07410  0.16170  0.28540  Biso   1.000  C
  C162     1.0000 0.07580  0.22540  0.30600  Biso   1.000  C
  C163     1.0000 0.15000  0.22960  0.34460  Biso   1.000  C
  C164     1.0000 0.22030  0.16960  0.36340  Biso   1.000  C
  C165     1.0000 0.21790  0.10420  0.34120  Biso   1.000  C
  C166     1.0000 0.28070  0.90770  0.31760  Biso   1.000  C
  C167     1.0000 0.24260  0.98910  0.32040  Biso   1.000  C
  C168     1.0000 0.63630  0.06900  0.90100  Biso   1.000  C
  C169     1.0000 0.64660  0.99640  0.98520  Biso   1.000  C
  C170     1.0000 0.65610  0.01730  0.04720  Biso   1.000  C
  C171     1.0000 0.66460  0.94990  0.12380  Biso   1.000  C
  C172     1.0000 0.67980  0.96220  0.19660  Biso   1.000  C
  C173     1.0000 0.66430  0.86350  0.13880  Biso   1.000  C
  C174     1.0000 0.65630  0.84360  0.07680  Biso   1.000  C
  C175     1.0000 0.65940  0.74980  0.09600  Biso   1.000  C
  C176     1.0000 0.64710  0.91190  0.99960  Biso   1.000  C
  N1       1.0000 0.89100  0.61000  0.14780  Biso   1.000  N
  N2       1.0000 0.91070  0.78170  0.08340  Biso   1.000  N
  N3       1.0000 0.90210  0.80590  0.95700  Biso   1.000  N
  N4       1.0000 0.86560  0.61130  0.03300  Biso   1.000  N
  N5       1.0000 0.54760  0.43070  0.30640  Biso   1.000  N
  N6       1.0000 0.54950  0.43550  0.16240  Biso   1.000  N
  N7       1.0000 0.60410  0.56280  0.09820  Biso   1.000  N
  N8       1.0000 0.61680  0.54810  0.26760  Biso   1.000  N
  N9       1.0000 0.46300  0.25440  0.23420  Biso   1.000  N
  N10      1.0000 0.60650  0.24510  0.31420  Biso   1.000  N
  N11      1.0000 0.68040  0.12620  0.30660  Biso   1.000  N
  N12      1.0000 0.50630  0.13430  0.22140  Biso   1.000  N
  N13      1.0000 0.34030  0.27960  0.75800  Biso   1.000  N
  N14      1.0000 0.39500  0.21420  0.63060  Biso   1.000  N
  N15      1.0000 0.53140  0.19720  0.67400  Biso   1.000  N
  N16      1.0000 0.48660  0.23880  0.79200  Biso   1.000  N
  N17      1.0000 0.73460  0.15830  0.72200  Biso   1.000  N
  N18      1.0000 0.66420  0.31540  0.70940  Biso   1.000  N
  N19      1.0000 0.77950  0.38370  0.64840  Biso   1.000  N
  N20      1.0000 0.85490  0.20530  0.64940  Biso   1.000  N
  N21      1.0000 0.39100  0.75780  0.85220  Biso   1.000  N
  N22      1.0000 0.41070  0.86510  0.91660  Biso   1.000  N
  N23      1.0000 0.40210  0.76290  0.04300  Biso   1.000  N
  N24      1.0000 0.36560  0.64430  0.96700  Biso   1.000  N
  N25      1.0000 0.04760  0.73710  0.69360  Biso   1.000  N
  N26      1.0000 0.04950  0.59790  0.83760  Biso   1.000  N
  N27      1.0000 0.10410  0.66100  0.90180  Biso   1.000  N
  N28      1.0000 0.11680  0.81570  0.73240  Biso   1.000  N
  N29      1.0000 0.96300  0.48860  0.76580  Biso   1.000  N
  N30      1.0000 0.10650  0.55930  0.68580  Biso   1.000  N
  N31      1.0000 0.18040  0.43280  0.69340  Biso   1.000  N
  N32      1.0000 0.00630  0.35570  0.77860  Biso   1.000  N
  N33      1.0000 0.84030  0.03760  0.24200  Biso   1.000  N
  N34      1.0000 0.89500  0.84480  0.36940  Biso   1.000  N
  N35      1.0000 0.03140  0.87120  0.32600  Biso   1.000  N
  N36      1.0000 0.98660  0.03080  0.20800  Biso   1.000  N
  N37      1.0000 0.23460  0.88030  0.27800  Biso   1.000  N
  N38      1.0000 0.16420  0.02480  0.29060  Biso   1.000  N
  N39      1.0000 0.27950  0.03210  0.35160  Biso   1.000  N
  N40      1.0000 0.35490  0.85470  0.35060  Biso   1.000  N
  O1       1.0000 0.81070  0.69470  0.25140  Biso   1.000  O
  O2       1.0000 0.06390  0.60760  0.21040  Biso   1.000  O
  O3       1.0000 0.99430  0.77140  0.22700  Biso   1.000  O
  O4       1.0000 0.97930  0.58200  0.31520  Biso   1.000  O
  O5       1.0000 0.24020  0.32890  0.59700  Biso   1.000  O
  O6       1.0000 0.09630  0.36900  0.58780  Biso   1.000  O
  O7       1.0000 0.39950  0.31810  0.36300  Biso   1.000  O
  O8       1.0000 0.36490  0.42441  0.24578  Biso   1.000  O
  O9       1.0000 0.15550  0.02770  0.11440  Biso   1.000  O
  O10      1.0000 0.10540  0.90350  0.15160  Biso   1.000  O
  O11      1.0000 0.13980  0.77380  0.95700  Biso   1.000  O
  O12      1.0000 0.18130  0.85920  0.83420  Biso   1.000  O
  O13      1.0000 0.15040  0.22880  0.80720  Biso   1.000  O
  O14      1.0000 0.22130  0.16010  0.74460  Biso   1.000  O
  O15      1.0000 0.31070  0.94610  0.74860  Biso   1.000  O
  O16      1.0000 0.56390  0.81800  0.78960  Biso   1.000  O
  O17      1.0000 0.49430  0.99840  0.77300  Biso   1.000  O
  O18      1.0000 0.47930  0.89720  0.68480  Biso   1.000  O
  O19      1.0000 0.74020  0.92590  0.40300  Biso   1.000  O
  O20      1.0000 0.59630  0.95680  0.41220  Biso   1.000  O
  O21      1.0000 0.89950  0.68110  0.63700  Biso   1.000  O
  O22      1.0000 0.86490  0.67019  0.75422  Biso   1.000  O
  O23      1.0000 0.65550  0.14210  0.88560  Biso   1.000  O
  O24      1.0000 0.60540  0.05510  0.84840  Biso   1.000  O
  O25      1.0000 0.63980  0.73080  0.04300  Biso   1.000  O
  O26      1.0000 0.68130  0.69340  0.16580  Biso   1.000  O
  O27      1.0000 0.65040  0.03600  0.19280  Biso   1.000  O
  O28      1.0000 0.72130  0.90470  0.25540  Biso   1.000  O
