data_image0
_cell_length_a       18.5561
_cell_length_b       18.5561
_cell_length_c       21.2628
_cell_angle_alpha    90
_cell_angle_beta     90
_cell_angle_gamma    120

_symmetry_space_group_name_H-M    P 1
_symmetry_int_tables_number       1

loop_
  _symmetry_equiv_pos_as_xyz
  'x, y, z'

loop_
  _atom_site_label
  _atom_site_occupancy
  _atom_site_fract_x
  _atom_site_fract_y
  _atom_site_fract_z
  _atom_site_thermal_displace_type
  _atom_site_B_iso_or_equiv
  _atom_site_type_symbol
  Cu1      1.0000 0.84287  0.50785  0.99049  Biso   1.000  Cu
  Cu2      1.0000 0.66498  0.15713  0.32382  Biso   1.000  Cu
  Cu3      1.0000 0.49215  0.33502  0.65716  Biso   1.000  Cu
  Cu4      1.0000 0.33502  0.49215  0.00951  Biso   1.000  Cu
  Cu5      1.0000 0.50785  0.84287  0.67618  Biso   1.000  Cu
  Cu6      1.0000 0.15713  0.66498  0.34284  Biso   1.000  Cu
  P1       1.0000 0.73595  0.38465  0.02675  Biso   1.000  P
  P2       1.0000 0.66920  0.14400  0.21794  Biso   1.000  P
  P3       1.0000 0.64870  0.26405  0.36008  Biso   1.000  P
  P4       1.0000 0.47480  0.33080  0.55127  Biso   1.000  P
  P5       1.0000 0.61535  0.35130  0.69342  Biso   1.000  P
  P6       1.0000 0.85600  0.52520  0.88461  Biso   1.000  P
  P7       1.0000 0.35130  0.61535  0.97325  Biso   1.000  P
  P8       1.0000 0.52520  0.85600  0.78206  Biso   1.000  P
  P9       1.0000 0.38465  0.73595  0.63992  Biso   1.000  P
  P10      1.0000 0.14400  0.66920  0.44873  Biso   1.000  P
  P11      1.0000 0.26405  0.64870  0.30658  Biso   1.000  P
  P12      1.0000 0.33080  0.47480  0.11539  Biso   1.000  P
  H1       1.0000 0.66450  0.23190  0.10060  Biso   1.000  H
  H2       1.0000 0.81050  0.29550  0.25620  Biso   1.000  H
  H3       1.0000 0.85120  0.46700  0.12640  Biso   1.000  H
  H4       1.0000 0.95510  0.37740  0.26800  Biso   1.000  H
  H5       1.0000 0.06250  0.47820  0.32400  Biso   1.000  H
  H6       1.0000 0.01180  0.64820  0.26950  Biso   1.000  H
  H7       1.0000 0.89650  0.55160  0.21430  Biso   1.000  H
  H8       1.0000 0.63800  0.30560  0.91540  Biso   1.000  H
  H9       1.0000 0.61820  0.20080  0.84820  Biso   1.000  H
  H10      1.0000 0.69840  0.13950  0.86080  Biso   1.000  H
  H11      1.0000 0.77560  0.16080  0.95170  Biso   1.000  H
  H12      1.0000 0.79670  0.27180  0.01920  Biso   1.000  H
  H13      1.0000 0.69570  0.51310  0.06190  Biso   1.000  H
  H14      1.0000 0.57260  0.51150  0.08880  Biso   1.000  H
  H15      1.0000 0.44510  0.38720  0.08310  Biso   1.000  H
  H16      1.0000 0.44060  0.26460  0.05040  Biso   1.000  H
  H17      1.0000 0.56370  0.26630  0.02350  Biso   1.000  H
  H18      1.0000 0.75230  0.14270  0.10030  Biso   1.000  H
  H19      1.0000 0.81200  0.06150  0.06680  Biso   1.000  H
  H20      1.0000 0.81130  0.96430  0.13030  Biso   1.000  H
  H21      1.0000 0.76910  0.95010  0.23520  Biso   1.000  H
  H22      1.0000 0.70850  0.02270  0.26860  Biso   1.000  H
  H23      1.0000 0.53240  0.16070  0.21460  Biso   1.000  H
  H24      1.0000 0.40260  0.10150  0.16600  Biso   1.000  H
  H25      1.0000 0.37360  0.01250  0.08180  Biso   1.000  H
  H26      1.0000 0.46280  0.96030  0.06930  Biso   1.000  H
  H27      1.0000 0.59470  0.01840  0.11570  Biso   1.000  H
  H28      1.0000 0.56740  0.33550  0.43393  Biso   1.000  H
  H29      1.0000 0.48500  0.18950  0.58953  Biso   1.000  H
  H30      1.0000 0.61580  0.14880  0.45973  Biso   1.000  H
  H31      1.0000 0.42230  0.04490  0.60133  Biso   1.000  H
  H32      1.0000 0.41570  0.93750  0.65733  Biso   1.000  H
  H33      1.0000 0.63640  0.98820  0.60283  Biso   1.000  H
  H34      1.0000 0.65510  0.10350  0.54763  Biso   1.000  H
  H35      1.0000 0.66760  0.36200  0.24873  Biso   1.000  H
  H36      1.0000 0.58260  0.38180  0.18153  Biso   1.000  H
  H37      1.0000 0.44110  0.30160  0.19413  Biso   1.000  H
  H38      1.0000 0.38520  0.22440  0.28503  Biso   1.000  H
  H39      1.0000 0.47510  0.20330  0.35253  Biso   1.000  H
  H40      1.0000 0.81740  0.30430  0.39523  Biso   1.000  H
  H41      1.0000 0.93890  0.42740  0.42213  Biso   1.000  H
  H42      1.0000 0.94210  0.55490  0.41643  Biso   1.000  H
  H43      1.0000 0.82400  0.55940  0.38373  Biso   1.000  H
  H44      1.0000 0.70260  0.43630  0.35683  Biso   1.000  H
  H45      1.0000 0.39040  0.24770  0.43363  Biso   1.000  H
  H46      1.0000 0.24950  0.18800  0.40013  Biso   1.000  H
  H47      1.0000 0.15300  0.18870  0.46363  Biso   1.000  H
  H48      1.0000 0.18100  0.23090  0.56853  Biso   1.000  H
  H49      1.0000 0.31420  0.29150  0.60193  Biso   1.000  H
  H50      1.0000 0.62830  0.46760  0.54793  Biso   1.000  H
  H51      1.0000 0.69890  0.59740  0.49933  Biso   1.000  H
  H52      1.0000 0.63890  0.62640  0.41513  Biso   1.000  H
  H53      1.0000 0.49750  0.53720  0.40263  Biso   1.000  H
  H54      1.0000 0.42370  0.40530  0.44903  Biso   1.000  H
  H55      1.0000 0.76810  0.43260  0.76727  Biso   1.000  H
  H56      1.0000 0.70450  0.51500  0.92287  Biso   1.000  H
  H57      1.0000 0.53300  0.38420  0.79307  Biso   1.000  H
  H58      1.0000 0.62260  0.57770  0.93467  Biso   1.000  H
  H59      1.0000 0.52180  0.58430  0.99067  Biso   1.000  H
  H60      1.0000 0.35180  0.36360  0.93617  Biso   1.000  H
  H61      1.0000 0.44840  0.34490  0.88097  Biso   1.000  H
  H62      1.0000 0.69440  0.33240  0.58207  Biso   1.000  H
  H63      1.0000 0.79920  0.41740  0.51487  Biso   1.000  H
  H64      1.0000 0.86050  0.55890  0.52747  Biso   1.000  H
  H65      1.0000 0.83920  0.61480  0.61837  Biso   1.000  H
  H66      1.0000 0.72820  0.52490  0.68587  Biso   1.000  H
  H67      1.0000 0.48690  0.18260  0.72857  Biso   1.000  H
  H68      1.0000 0.48850  0.06110  0.75547  Biso   1.000  H
  H69      1.0000 0.61280  0.05790  0.74977  Biso   1.000  H
  H70      1.0000 0.73540  0.17600  0.71707  Biso   1.000  H
  H71      1.0000 0.73370  0.29740  0.69017  Biso   1.000  H
  H72      1.0000 0.85730  0.60960  0.76697  Biso   1.000  H
  H73      1.0000 0.93850  0.75050  0.73347  Biso   1.000  H
  H74      1.0000 0.03570  0.84700  0.79697  Biso   1.000  H
  H75      1.0000 0.04990  0.81900  0.90187  Biso   1.000  H
  H76      1.0000 0.97730  0.68580  0.93527  Biso   1.000  H
  H77      1.0000 0.83930  0.37170  0.88127  Biso   1.000  H
  H78      1.0000 0.89850  0.30110  0.83267  Biso   1.000  H
  H79      1.0000 0.98750  0.36110  0.74847  Biso   1.000  H
  H80      1.0000 0.03970  0.50250  0.73597  Biso   1.000  H
  H81      1.0000 0.98160  0.57630  0.78237  Biso   1.000  H
  H82      1.0000 0.43260  0.76810  0.89940  Biso   1.000  H
  H83      1.0000 0.51500  0.70450  0.74380  Biso   1.000  H
  H84      1.0000 0.38420  0.53300  0.87360  Biso   1.000  H
  H85      1.0000 0.57770  0.62260  0.73200  Biso   1.000  H
  H86      1.0000 0.58430  0.52180  0.67600  Biso   1.000  H
  H87      1.0000 0.36360  0.35180  0.73050  Biso   1.000  H
  H88      1.0000 0.34490  0.44840  0.78570  Biso   1.000  H
  H89      1.0000 0.33240  0.69440  0.08460  Biso   1.000  H
  H90      1.0000 0.41740  0.79920  0.15180  Biso   1.000  H
  H91      1.0000 0.55890  0.86050  0.13920  Biso   1.000  H
  H92      1.0000 0.61480  0.83920  0.04830  Biso   1.000  H
  H93      1.0000 0.52490  0.72820  0.98080  Biso   1.000  H
  H94      1.0000 0.18260  0.48690  0.93810  Biso   1.000  H
  H95      1.0000 0.06110  0.48850  0.91120  Biso   1.000  H
  H96      1.0000 0.05790  0.61280  0.91690  Biso   1.000  H
  H97      1.0000 0.17600  0.73540  0.94960  Biso   1.000  H
  H98      1.0000 0.29740  0.73370  0.97650  Biso   1.000  H
  H99      1.0000 0.60960  0.85730  0.89970  Biso   1.000  H
  H100     1.0000 0.75050  0.93850  0.93320  Biso   1.000  H
  H101     1.0000 0.84700  0.03570  0.86970  Biso   1.000  H
  H102     1.0000 0.81900  0.04990  0.76480  Biso   1.000  H
  H103     1.0000 0.68580  0.97730  0.73140  Biso   1.000  H
  H104     1.0000 0.37170  0.83930  0.78540  Biso   1.000  H
  H105     1.0000 0.30110  0.89850  0.83400  Biso   1.000  H
  H106     1.0000 0.36110  0.98750  0.91820  Biso   1.000  H
  H107     1.0000 0.50250  0.03970  0.93070  Biso   1.000  H
  H108     1.0000 0.57630  0.98160  0.88430  Biso   1.000  H
  H109     1.0000 0.23190  0.66450  0.56607  Biso   1.000  H
  H110     1.0000 0.29550  0.81050  0.41047  Biso   1.000  H
  H111     1.0000 0.46700  0.85120  0.54027  Biso   1.000  H
  H112     1.0000 0.37740  0.95510  0.39867  Biso   1.000  H
  H113     1.0000 0.47820  0.06250  0.34267  Biso   1.000  H
  H114     1.0000 0.64820  0.01180  0.39717  Biso   1.000  H
  H115     1.0000 0.55160  0.89650  0.45237  Biso   1.000  H
  H116     1.0000 0.30560  0.63800  0.75127  Biso   1.000  H
  H117     1.0000 0.20080  0.61820  0.81847  Biso   1.000  H
  H118     1.0000 0.13950  0.69840  0.80587  Biso   1.000  H
  H119     1.0000 0.16080  0.77560  0.71497  Biso   1.000  H
  H120     1.0000 0.27180  0.79670  0.64747  Biso   1.000  H
  H121     1.0000 0.51310  0.69570  0.60477  Biso   1.000  H
  H122     1.0000 0.51150  0.57260  0.57787  Biso   1.000  H
  H123     1.0000 0.38720  0.44510  0.58357  Biso   1.000  H
  H124     1.0000 0.26460  0.44060  0.61627  Biso   1.000  H
  H125     1.0000 0.26630  0.56370  0.64317  Biso   1.000  H
  H126     1.0000 0.14270  0.75230  0.56637  Biso   1.000  H
  H127     1.0000 0.06150  0.81200  0.59987  Biso   1.000  H
  H128     1.0000 0.96430  0.81130  0.53637  Biso   1.000  H
  H129     1.0000 0.95010  0.76910  0.43147  Biso   1.000  H
  H130     1.0000 0.02270  0.70850  0.39807  Biso   1.000  H
  H131     1.0000 0.16070  0.53240  0.45207  Biso   1.000  H
  H132     1.0000 0.10150  0.40260  0.50067  Biso   1.000  H
  H133     1.0000 0.01250  0.37360  0.58487  Biso   1.000  H
  H134     1.0000 0.96030  0.46280  0.59737  Biso   1.000  H
  H135     1.0000 0.01840  0.59470  0.55097  Biso   1.000  H
  H136     1.0000 0.33550  0.56740  0.23273  Biso   1.000  H
  H137     1.0000 0.18950  0.48500  0.07713  Biso   1.000  H
  H138     1.0000 0.14880  0.61580  0.20693  Biso   1.000  H
  H139     1.0000 0.04490  0.42230  0.06533  Biso   1.000  H
  H140     1.0000 0.93750  0.41570  0.00933  Biso   1.000  H
  H141     1.0000 0.98820  0.63640  0.06383  Biso   1.000  H
  H142     1.0000 0.10350  0.65510  0.11903  Biso   1.000  H
  H143     1.0000 0.36200  0.66760  0.41793  Biso   1.000  H
  H144     1.0000 0.38180  0.58260  0.48513  Biso   1.000  H
  H145     1.0000 0.30160  0.44110  0.47253  Biso   1.000  H
  H146     1.0000 0.22440  0.38520  0.38163  Biso   1.000  H
  H147     1.0000 0.20330  0.47510  0.31413  Biso   1.000  H
  H148     1.0000 0.30430  0.81740  0.27143  Biso   1.000  H
  H149     1.0000 0.42740  0.93890  0.24453  Biso   1.000  H
  H150     1.0000 0.55490  0.94210  0.25023  Biso   1.000  H
  H151     1.0000 0.55940  0.82400  0.28293  Biso   1.000  H
  H152     1.0000 0.43630  0.70260  0.30983  Biso   1.000  H
  H153     1.0000 0.24770  0.39040  0.23303  Biso   1.000  H
  H154     1.0000 0.18800  0.24950  0.26653  Biso   1.000  H
  H155     1.0000 0.18870  0.15300  0.20303  Biso   1.000  H
  H156     1.0000 0.23090  0.18100  0.09813  Biso   1.000  H
  H157     1.0000 0.29150  0.31420  0.06473  Biso   1.000  H
  H158     1.0000 0.46760  0.62830  0.11873  Biso   1.000  H
  H159     1.0000 0.59740  0.69890  0.16733  Biso   1.000  H
  H160     1.0000 0.62640  0.63890  0.25153  Biso   1.000  H
  H161     1.0000 0.53720  0.49750  0.26403  Biso   1.000  H
  H162     1.0000 0.40530  0.42370  0.21763  Biso   1.000  H
  C1       1.0000 0.75550  0.35240  0.10420  Biso   1.000  C
  C2       1.0000 0.70940  0.27200  0.12520  Biso   1.000  C
  C3       1.0000 0.72860  0.24820  0.18440  Biso   1.000  C
  C4       1.0000 0.79540  0.30960  0.21730  Biso   1.000  C
  C5       1.0000 0.83920  0.38730  0.19720  Biso   1.000  C
  C6       1.0000 0.82000  0.41090  0.14030  Biso   1.000  C
  C7       1.0000 0.91270  0.45380  0.23460  Biso   1.000  C
  C8       1.0000 0.96470  0.43270  0.26820  Biso   1.000  C
  C9       1.0000 0.02850  0.49340  0.30060  Biso   1.000  C
  C10      1.0000 0.99900  0.59180  0.26980  Biso   1.000  C
  C11      1.0000 0.93050  0.53490  0.23600  Biso   1.000  C
  C12      1.0000 0.71800  0.29540  0.97740  Biso   1.000  C
  C13      1.0000 0.66620  0.27560  0.92310  Biso   1.000  C
  C14      1.0000 0.65590  0.21580  0.88250  Biso   1.000  C
  C15      1.0000 0.70070  0.17780  0.89150  Biso   1.000  C
  C16      1.0000 0.74920  0.19240  0.94350  Biso   1.000  C
  C17      1.0000 0.75890  0.25670  0.98500  Biso   1.000  C
  C18      1.0000 0.64390  0.46270  0.05960  Biso   1.000  C
  C19      1.0000 0.57080  0.46170  0.07560  Biso   1.000  C
  C20      1.0000 0.49500  0.38780  0.07220  Biso   1.000  C
  C21      1.0000 0.49240  0.31510  0.05280  Biso   1.000  C
  C22      1.0000 0.56550  0.31600  0.03680  Biso   1.000  C
  C23      1.0000 0.64130  0.38990  0.04020  Biso   1.000  C
  C24      1.0000 0.72170  0.09180  0.19030  Biso   1.000  C
  C25      1.0000 0.75410  0.10330  0.12780  Biso   1.000  C
  C26      1.0000 0.78930  0.05420  0.10790  Biso   1.000  C
  C27      1.0000 0.79070  0.99840  0.14610  Biso   1.000  C
  C28      1.0000 0.76360  0.98750  0.20780  Biso   1.000  C
  C29      1.0000 0.72950  0.03180  0.22690  Biso   1.000  C
  C30      1.0000 0.57370  0.09320  0.17310  Biso   1.000  C
  C31      1.0000 0.51860  0.11820  0.18420  Biso   1.000  C
  C32      1.0000 0.44130  0.08500  0.15330  Biso   1.000  C
  C33      1.0000 0.42210  0.03120  0.10690  Biso   1.000  C
  C34      1.0000 0.47820  0.00470  0.09820  Biso   1.000  C
  C35      1.0000 0.55660  0.03620  0.12740  Biso   1.000  C
  C36      1.0000 0.59690  0.24450  0.43753  Biso   1.000  C
  C37      1.0000 0.56260  0.29060  0.45853  Biso   1.000  C
  C38      1.0000 0.51960  0.27140  0.51773  Biso   1.000  C
  C39      1.0000 0.51420  0.20460  0.55063  Biso   1.000  C
  C40      1.0000 0.54810  0.16080  0.53053  Biso   1.000  C
  C41      1.0000 0.59090  0.18000  0.47363  Biso   1.000  C
  C42      1.0000 0.54110  0.08730  0.56793  Biso   1.000  C
  C43      1.0000 0.46800  0.03530  0.60153  Biso   1.000  C
  C44      1.0000 0.46490  0.97150  0.63393  Biso   1.000  C
  C45      1.0000 0.59280  0.00100  0.60313  Biso   1.000  C
  C46      1.0000 0.60440  0.06950  0.56933  Biso   1.000  C
  C47      1.0000 0.57740  0.28200  0.31073  Biso   1.000  C
  C48      1.0000 0.60940  0.33380  0.25643  Biso   1.000  C
  C49      1.0000 0.55990  0.34410  0.21583  Biso   1.000  C
  C50      1.0000 0.47710  0.29930  0.22483  Biso   1.000  C
  C51      1.0000 0.44320  0.25080  0.27683  Biso   1.000  C
  C52      1.0000 0.49780  0.24110  0.31833  Biso   1.000  C
  C53      1.0000 0.81880  0.35610  0.39293  Biso   1.000  C
  C54      1.0000 0.89090  0.42920  0.40893  Biso   1.000  C
  C55      1.0000 0.89280  0.50500  0.40553  Biso   1.000  C
  C56      1.0000 0.82270  0.50760  0.38613  Biso   1.000  C
  C57      1.0000 0.75050  0.43450  0.37013  Biso   1.000  C
  C58      1.0000 0.74860  0.35870  0.37353  Biso   1.000  C
  C59      1.0000 0.37010  0.27830  0.52363  Biso   1.000  C
  C60      1.0000 0.34920  0.24590  0.46113  Biso   1.000  C
  C61      1.0000 0.26490  0.21070  0.44123  Biso   1.000  C
  C62      1.0000 0.20770  0.20930  0.47943  Biso   1.000  C
  C63      1.0000 0.22390  0.23640  0.54113  Biso   1.000  C
  C64      1.0000 0.30230  0.27050  0.56023  Biso   1.000  C
  C65      1.0000 0.51950  0.42630  0.50643  Biso   1.000  C
  C66      1.0000 0.59960  0.48140  0.51753  Biso   1.000  C
  C67      1.0000 0.64370  0.55870  0.48663  Biso   1.000  C
  C68      1.0000 0.60910  0.57790  0.44023  Biso   1.000  C
  C69      1.0000 0.52650  0.52180  0.43153  Biso   1.000  C
  C70      1.0000 0.47960  0.44340  0.46073  Biso   1.000  C
  C71      1.0000 0.64760  0.40310  0.77087  Biso   1.000  C
  C72      1.0000 0.72800  0.43740  0.79187  Biso   1.000  C
  C73      1.0000 0.75180  0.48040  0.85107  Biso   1.000  C
  C74      1.0000 0.69040  0.48580  0.88397  Biso   1.000  C
  C75      1.0000 0.61270  0.45190  0.86387  Biso   1.000  C
  C76      1.0000 0.58910  0.40910  0.80697  Biso   1.000  C
  C77      1.0000 0.54620  0.45890  0.90127  Biso   1.000  C
  C78      1.0000 0.56730  0.53200  0.93487  Biso   1.000  C
  C79      1.0000 0.50660  0.53510  0.96727  Biso   1.000  C
  C80      1.0000 0.40820  0.40720  0.93647  Biso   1.000  C
  C81      1.0000 0.46510  0.39560  0.90267  Biso   1.000  C
  C82      1.0000 0.70460  0.42260  0.64407  Biso   1.000  C
  C83      1.0000 0.72440  0.39060  0.58977  Biso   1.000  C
  C84      1.0000 0.78420  0.44010  0.54917  Biso   1.000  C
  C85      1.0000 0.82220  0.52290  0.55817  Biso   1.000  C
  C86      1.0000 0.80760  0.55680  0.61017  Biso   1.000  C
  C87      1.0000 0.74330  0.50220  0.65167  Biso   1.000  C
  C88      1.0000 0.53730  0.18120  0.72627  Biso   1.000  C
  C89      1.0000 0.53830  0.10910  0.74227  Biso   1.000  C
  C90      1.0000 0.61220  0.10720  0.73887  Biso   1.000  C
  C91      1.0000 0.68490  0.17730  0.71947  Biso   1.000  C
  C92      1.0000 0.68400  0.24950  0.70347  Biso   1.000  C
  C93      1.0000 0.61010  0.25140  0.70687  Biso   1.000  C
  C94      1.0000 0.90820  0.62990  0.85697  Biso   1.000  C
  C95      1.0000 0.89670  0.65080  0.79447  Biso   1.000  C
  C96      1.0000 0.94580  0.73510  0.77457  Biso   1.000  C
  C97      1.0000 0.00160  0.79230  0.81277  Biso   1.000  C
  C98      1.0000 0.01250  0.77610  0.87447  Biso   1.000  C
  C99      1.0000 0.96820  0.69770  0.89357  Biso   1.000  C
  C100     1.0000 0.90680  0.48050  0.83977  Biso   1.000  C
  C101     1.0000 0.88180  0.40040  0.85087  Biso   1.000  C
  C102     1.0000 0.91500  0.35630  0.81997  Biso   1.000  C
  C103     1.0000 0.96880  0.39090  0.77357  Biso   1.000  C
  C104     1.0000 0.99530  0.47350  0.76487  Biso   1.000  C
  C105     1.0000 0.96380  0.52040  0.79407  Biso   1.000  C
  C106     1.0000 0.40310  0.64760  0.89580  Biso   1.000  C
  C107     1.0000 0.43740  0.72800  0.87480  Biso   1.000  C
  C108     1.0000 0.48040  0.75180  0.81560  Biso   1.000  C
  C109     1.0000 0.48580  0.69040  0.78270  Biso   1.000  C
  C110     1.0000 0.45190  0.61270  0.80280  Biso   1.000  C
  C111     1.0000 0.40910  0.58910  0.85970  Biso   1.000  C
  C112     1.0000 0.45890  0.54620  0.76540  Biso   1.000  C
  C113     1.0000 0.53200  0.56730  0.73180  Biso   1.000  C
  C114     1.0000 0.53510  0.50660  0.69940  Biso   1.000  C
  C115     1.0000 0.40720  0.40820  0.73020  Biso   1.000  C
  C116     1.0000 0.39560  0.46510  0.76400  Biso   1.000  C
  C117     1.0000 0.42260  0.70460  0.02260  Biso   1.000  C
  C118     1.0000 0.39060  0.72440  0.07690  Biso   1.000  C
  C119     1.0000 0.44010  0.78420  0.11750  Biso   1.000  C
  C120     1.0000 0.52290  0.82220  0.10850  Biso   1.000  C
  C121     1.0000 0.55680  0.80760  0.05650  Biso   1.000  C
  C122     1.0000 0.50220  0.74330  0.01500  Biso   1.000  C
  C123     1.0000 0.18120  0.53730  0.94040  Biso   1.000  C
  C124     1.0000 0.10910  0.53830  0.92440  Biso   1.000  C
  C125     1.0000 0.10720  0.61220  0.92780  Biso   1.000  C
  C126     1.0000 0.17730  0.68490  0.94720  Biso   1.000  C
  C127     1.0000 0.24950  0.68400  0.96320  Biso   1.000  C
  C128     1.0000 0.25140  0.61010  0.95980  Biso   1.000  C
  C129     1.0000 0.62990  0.90820  0.80970  Biso   1.000  C
  C130     1.0000 0.65080  0.89670  0.87220  Biso   1.000  C
  C131     1.0000 0.73510  0.94580  0.89210  Biso   1.000  C
  C132     1.0000 0.79230  0.00160  0.85390  Biso   1.000  C
  C133     1.0000 0.77610  0.01250  0.79220  Biso   1.000  C
  C134     1.0000 0.69770  0.96820  0.77310  Biso   1.000  C
  C135     1.0000 0.48050  0.90680  0.82690  Biso   1.000  C
  C136     1.0000 0.40040  0.88180  0.81580  Biso   1.000  C
  C137     1.0000 0.35630  0.91500  0.84670  Biso   1.000  C
  C138     1.0000 0.39090  0.96880  0.89310  Biso   1.000  C
  C139     1.0000 0.47350  0.99530  0.90180  Biso   1.000  C
  C140     1.0000 0.52040  0.96380  0.87260  Biso   1.000  C
  C141     1.0000 0.35240  0.75550  0.56247  Biso   1.000  C
  C142     1.0000 0.27200  0.70940  0.54147  Biso   1.000  C
  C143     1.0000 0.24820  0.72860  0.48227  Biso   1.000  C
  C144     1.0000 0.30960  0.79540  0.44937  Biso   1.000  C
  C145     1.0000 0.38730  0.83920  0.46947  Biso   1.000  C
  C146     1.0000 0.41090  0.82000  0.52637  Biso   1.000  C
  C147     1.0000 0.45380  0.91270  0.43207  Biso   1.000  C
  C148     1.0000 0.43270  0.96470  0.39847  Biso   1.000  C
  C149     1.0000 0.49340  0.02850  0.36607  Biso   1.000  C
  C150     1.0000 0.59180  0.99900  0.39687  Biso   1.000  C
  C151     1.0000 0.53490  0.93050  0.43067  Biso   1.000  C
  C152     1.0000 0.29540  0.71800  0.68927  Biso   1.000  C
  C153     1.0000 0.27560  0.66620  0.74357  Biso   1.000  C
  C154     1.0000 0.21580  0.65590  0.78417  Biso   1.000  C
  C155     1.0000 0.17780  0.70070  0.77517  Biso   1.000  C
  C156     1.0000 0.19240  0.74920  0.72317  Biso   1.000  C
  C157     1.0000 0.25670  0.75890  0.68167  Biso   1.000  C
  C158     1.0000 0.46270  0.64390  0.60707  Biso   1.000  C
  C159     1.0000 0.46170  0.57080  0.59107  Biso   1.000  C
  C160     1.0000 0.38780  0.49500  0.59447  Biso   1.000  C
  C161     1.0000 0.31510  0.49240  0.61387  Biso   1.000  C
  C162     1.0000 0.31600  0.56550  0.62987  Biso   1.000  C
  C163     1.0000 0.38990  0.64130  0.62647  Biso   1.000  C
  C164     1.0000 0.09180  0.72170  0.47637  Biso   1.000  C
  C165     1.0000 0.10330  0.75410  0.53887  Biso   1.000  C
  C166     1.0000 0.05420  0.78930  0.55877  Biso   1.000  C
  C167     1.0000 0.99840  0.79070  0.52057  Biso   1.000  C
  C168     1.0000 0.98750  0.76360  0.45887  Biso   1.000  C
  C169     1.0000 0.03180  0.72950  0.43977  Biso   1.000  C
  C170     1.0000 0.09320  0.57370  0.49357  Biso   1.000  C
  C171     1.0000 0.11820  0.51860  0.48247  Biso   1.000  C
  C172     1.0000 0.08500  0.44130  0.51337  Biso   1.000  C
  C173     1.0000 0.03120  0.42210  0.55977  Biso   1.000  C
  C174     1.0000 0.00470  0.47820  0.56847  Biso   1.000  C
  C175     1.0000 0.03620  0.55660  0.53927  Biso   1.000  C
  C176     1.0000 0.24450  0.59690  0.22913  Biso   1.000  C
  C177     1.0000 0.29060  0.56260  0.20813  Biso   1.000  C
  C178     1.0000 0.27140  0.51960  0.14893  Biso   1.000  C
  C179     1.0000 0.20460  0.51420  0.11603  Biso   1.000  C
  C180     1.0000 0.16080  0.54810  0.13613  Biso   1.000  C
  C181     1.0000 0.18000  0.59090  0.19303  Biso   1.000  C
  C182     1.0000 0.08730  0.54110  0.09873  Biso   1.000  C
  C183     1.0000 0.03530  0.46800  0.06513  Biso   1.000  C
  C184     1.0000 0.97150  0.46490  0.03273  Biso   1.000  C
  C185     1.0000 0.00100  0.59280  0.06353  Biso   1.000  C
  C186     1.0000 0.06950  0.60440  0.09733  Biso   1.000  C
  C187     1.0000 0.28200  0.57740  0.35593  Biso   1.000  C
  C188     1.0000 0.33380  0.60940  0.41023  Biso   1.000  C
  C189     1.0000 0.34410  0.55990  0.45083  Biso   1.000  C
  C190     1.0000 0.29930  0.47710  0.44183  Biso   1.000  C
  C191     1.0000 0.25080  0.44320  0.38983  Biso   1.000  C
  C192     1.0000 0.24110  0.49780  0.34833  Biso   1.000  C
  C193     1.0000 0.35610  0.81880  0.27373  Biso   1.000  C
  C194     1.0000 0.42920  0.89090  0.25773  Biso   1.000  C
  C195     1.0000 0.50500  0.89280  0.26113  Biso   1.000  C
  C196     1.0000 0.50760  0.82270  0.28053  Biso   1.000  C
  C197     1.0000 0.43450  0.75050  0.29653  Biso   1.000  C
  C198     1.0000 0.35870  0.74860  0.29313  Biso   1.000  C
  C199     1.0000 0.27830  0.37010  0.14303  Biso   1.000  C
  C200     1.0000 0.24590  0.34920  0.20553  Biso   1.000  C
  C201     1.0000 0.21070  0.26490  0.22543  Biso   1.000  C
  C202     1.0000 0.20930  0.20770  0.18723  Biso   1.000  C
  C203     1.0000 0.23640  0.22390  0.12553  Biso   1.000  C
  C204     1.0000 0.27050  0.30230  0.10643  Biso   1.000  C
  C205     1.0000 0.42630  0.51950  0.16023  Biso   1.000  C
  C206     1.0000 0.48140  0.59960  0.14913  Biso   1.000  C
  C207     1.0000 0.55870  0.64370  0.18003  Biso   1.000  C
  C208     1.0000 0.57790  0.60910  0.22643  Biso   1.000  C
  C209     1.0000 0.52180  0.52650  0.23513  Biso   1.000  C
  C210     1.0000 0.44340  0.47960  0.20593  Biso   1.000  C
  Br1      1.0000 0.83520  0.62391  0.03512  Biso   1.000  Br
  Br2      1.0000 0.78871  0.16480  0.36845  Biso   1.000  Br
  Br3      1.0000 0.37609  0.21129  0.70179  Biso   1.000  Br
  Br4      1.0000 0.21129  0.37609  0.96488  Biso   1.000  Br
  Br5      1.0000 0.62391  0.83520  0.63155  Biso   1.000  Br
  Br6      1.0000 0.16480  0.78871  0.29821  Biso   1.000  Br
  N1       1.0000 0.04830  0.57300  0.30280  Biso   1.000  N
  N2       1.0000 0.52470  0.95170  0.63613  Biso   1.000  N
  N3       1.0000 0.42700  0.47530  0.96947  Biso   1.000  N
  N4       1.0000 0.47530  0.42700  0.69720  Biso   1.000  N
  N5       1.0000 0.57300  0.04830  0.36387  Biso   1.000  N
  N6       1.0000 0.95170  0.52470  0.03053  Biso   1.000  N
