data_image0
_cell_length_a       18.41
_cell_length_b       18.41
_cell_length_c       21.321
_cell_angle_alpha    90
_cell_angle_beta     90
_cell_angle_gamma    120

_symmetry_space_group_name_H-M    P 1
_symmetry_int_tables_number       1

loop_
  _symmetry_equiv_pos_as_xyz
  'x, y, z'

loop_
  _atom_site_label
  _atom_site_occupancy
  _atom_site_fract_x
  _atom_site_fract_y
  _atom_site_fract_z
  _atom_site_thermal_displace_type
  _atom_site_B_iso_or_equiv
  _atom_site_type_symbol
  Cu1      1.0000 0.50740  0.66350  0.65819  Biso   1.000  Cu
  Cu2      1.0000 0.15610  0.49260  0.99152  Biso   1.000  Cu
  Cu3      1.0000 0.33650  0.84390  0.32486  Biso   1.000  Cu
  Cu4      1.0000 0.84390  0.33650  0.34181  Biso   1.000  Cu
  Cu5      1.0000 0.66350  0.50740  0.00848  Biso   1.000  Cu
  Cu6      1.0000 0.49260  0.15610  0.67514  Biso   1.000  Cu
  P1       1.0000 0.38030  0.64560  0.69325  Biso   1.000  P
  P2       1.0000 0.13900  0.47020  0.88651  Biso   1.000  P
  P3       1.0000 0.26530  0.61970  0.02658  Biso   1.000  P
  P4       1.0000 0.33120  0.86100  0.21984  Biso   1.000  P
  P5       1.0000 0.35440  0.73470  0.35992  Biso   1.000  P
  P6       1.0000 0.52980  0.66880  0.55318  Biso   1.000  P
  P7       1.0000 0.73470  0.35440  0.30675  Biso   1.000  P
  P8       1.0000 0.66880  0.52980  0.11349  Biso   1.000  P
  P9       1.0000 0.64560  0.38030  0.97342  Biso   1.000  P
  P10      1.0000 0.47020  0.13900  0.78016  Biso   1.000  P
  P11      1.0000 0.61970  0.26530  0.64008  Biso   1.000  P
  P12      1.0000 0.86100  0.33120  0.44682  Biso   1.000  P
  H1       1.0000 0.64720  0.64150  0.93550  Biso   1.000  H
  H2       1.0000 0.54660  0.65080  0.87910  Biso   1.000  H
  H3       1.0000 0.37200  0.42190  0.93460  Biso   1.000  H
  H4       1.0000 0.47870  0.41840  0.99350  Biso   1.000  H
  H5       1.0000 0.46220  0.61190  0.79040  Biso   1.000  H
  H6       1.0000 0.22270  0.55840  0.76610  Biso   1.000  H
  H7       1.0000 0.28760  0.47700  0.92110  Biso   1.000  H
  H8       1.0000 0.49150  0.81500  0.72730  Biso   1.000  H
  H9       1.0000 0.47870  0.93240  0.75020  Biso   1.000  H
  H10      1.0000 0.34830  0.92460  0.74100  Biso   1.000  H
  H11      1.0000 0.23070  0.79940  0.70900  Biso   1.000  H
  H12      1.0000 0.24350  0.68200  0.68610  Biso   1.000  H
  H13      1.0000 0.30400  0.66750  0.57960  Biso   1.000  H
  H14      1.0000 0.20480  0.57260  0.50890  Biso   1.000  H
  H15      1.0000 0.14280  0.43880  0.52320  Biso   1.000  H
  H16      1.0000 0.15290  0.37800  0.61780  Biso   1.000  H
  H17      1.0000 0.26590  0.46680  0.68680  Biso   1.000  H
  H18      1.0000 0.13050  0.38120  0.76680  Biso   1.000  H
  H19      1.0000 0.06120  0.24670  0.73460  Biso   1.000  H
  H20      1.0000 0.96620  0.13700  0.80360  Biso   1.000  H
  H21      1.0000 0.95560  0.17410  0.90700  Biso   1.000  H
  H22      1.0000 0.01660  0.30770  0.94060  Biso   1.000  H
  H23      1.0000 0.01380  0.41780  0.78240  Biso   1.000  H
  H24      1.0000 0.95880  0.48950  0.72740  Biso   1.000  H
  H25      1.0000 0.99980  0.62810  0.75390  Biso   1.000  H
  H26      1.0000 0.09570  0.69510  0.83530  Biso   1.000  H
  H27      1.0000 0.15060  0.62330  0.89030  Biso   1.000  H
  H28      1.0000 0.99430  0.35280  0.26883  Biso   1.000  H
  H29      1.0000 0.10420  0.45340  0.21243  Biso   1.000  H
  H30      1.0000 0.04990  0.62800  0.26793  Biso   1.000  H
  H31      1.0000 0.93970  0.52130  0.32683  Biso   1.000  H
  H32      1.0000 0.14970  0.53780  0.12373  Biso   1.000  H
  H33      1.0000 0.33570  0.77730  0.09943  Biso   1.000  H
  H34      1.0000 0.18940  0.71240  0.25443  Biso   1.000  H
  H35      1.0000 0.32350  0.50850  0.06063  Biso   1.000  H
  H36      1.0000 0.45370  0.52130  0.08353  Biso   1.000  H
  H37      1.0000 0.57630  0.65170  0.07433  Biso   1.000  H
  H38      1.0000 0.56870  0.76930  0.04233  Biso   1.000  H
  H39      1.0000 0.43850  0.75650  0.01943  Biso   1.000  H
  H40      1.0000 0.36350  0.69600  0.91293  Biso   1.000  H
  H41      1.0000 0.36780  0.79520  0.84223  Biso   1.000  H
  H42      1.0000 0.29600  0.85720  0.85653  Biso   1.000  H
  H43      1.0000 0.22510  0.84710  0.95113  Biso   1.000  H
  H44      1.0000 0.20090  0.73410  0.02013  Biso   1.000  H
  H45      1.0000 0.25070  0.86950  0.10013  Biso   1.000  H
  H46      1.0000 0.18550  0.93880  0.06793  Biso   1.000  H
  H47      1.0000 0.17080  0.03380  0.13693  Biso   1.000  H
  H48      1.0000 0.21850  0.04440  0.24033  Biso   1.000  H
  H49      1.0000 0.29110  0.98340  0.27393  Biso   1.000  H
  H50      1.0000 0.40400  0.98620  0.11573  Biso   1.000  H
  H51      1.0000 0.53070  0.04120  0.06073  Biso   1.000  H
  H52      1.0000 0.62830  0.00020  0.08723  Biso   1.000  H
  H53      1.0000 0.59940  0.90430  0.16863  Biso   1.000  H
  H54      1.0000 0.47270  0.84940  0.22363  Biso   1.000  H
  H55      1.0000 0.35850  0.00570  0.60217  Biso   1.000  H
  H56      1.0000 0.34920  0.89580  0.54577  Biso   1.000  H
  H57      1.0000 0.57810  0.95010  0.60127  Biso   1.000  H
  H58      1.0000 0.58160  0.06030  0.66017  Biso   1.000  H
  H59      1.0000 0.38810  0.85030  0.45707  Biso   1.000  H
  H60      1.0000 0.44160  0.66430  0.43277  Biso   1.000  H
  H61      1.0000 0.52300  0.81060  0.58777  Biso   1.000  H
  H62      1.0000 0.18500  0.67650  0.39397  Biso   1.000  H
  H63      1.0000 0.06760  0.54630  0.41687  Biso   1.000  H
  H64      1.0000 0.07540  0.42370  0.40767  Biso   1.000  H
  H65      1.0000 0.20060  0.43130  0.37567  Biso   1.000  H
  H66      1.0000 0.31800  0.56150  0.35277  Biso   1.000  H
  H67      1.0000 0.33250  0.63650  0.24627  Biso   1.000  H
  H68      1.0000 0.42740  0.63220  0.17557  Biso   1.000  H
  H69      1.0000 0.56120  0.70400  0.18987  Biso   1.000  H
  H70      1.0000 0.62200  0.77490  0.28447  Biso   1.000  H
  H71      1.0000 0.53320  0.79910  0.35347  Biso   1.000  H
  H72      1.0000 0.61880  0.74930  0.43347  Biso   1.000  H
  H73      1.0000 0.75330  0.81450  0.40127  Biso   1.000  H
  H74      1.0000 0.86300  0.82920  0.47027  Biso   1.000  H
  H75      1.0000 0.82590  0.78150  0.57367  Biso   1.000  H
  H76      1.0000 0.69230  0.70890  0.60727  Biso   1.000  H
  H77      1.0000 0.58220  0.59600  0.44907  Biso   1.000  H
  H78      1.0000 0.51050  0.46930  0.39407  Biso   1.000  H
  H79      1.0000 0.37190  0.37170  0.42057  Biso   1.000  H
  H80      1.0000 0.30490  0.40060  0.50197  Biso   1.000  H
  H81      1.0000 0.37670  0.52730  0.55697  Biso   1.000  H
  H82      1.0000 0.00570  0.35850  0.06450  Biso   1.000  H
  H83      1.0000 0.89580  0.34920  0.12090  Biso   1.000  H
  H84      1.0000 0.95010  0.57810  0.06540  Biso   1.000  H
  H85      1.0000 0.06030  0.58160  0.00650  Biso   1.000  H
  H86      1.0000 0.85030  0.38810  0.20960  Biso   1.000  H
  H87      1.0000 0.66430  0.44160  0.23390  Biso   1.000  H
  H88      1.0000 0.81060  0.52300  0.07890  Biso   1.000  H
  H89      1.0000 0.67650  0.18500  0.27270  Biso   1.000  H
  H90      1.0000 0.54630  0.06760  0.24980  Biso   1.000  H
  H91      1.0000 0.42370  0.07540  0.25900  Biso   1.000  H
  H92      1.0000 0.43130  0.20060  0.29100  Biso   1.000  H
  H93      1.0000 0.56150  0.31800  0.31390  Biso   1.000  H
  H94      1.0000 0.63650  0.33250  0.42040  Biso   1.000  H
  H95      1.0000 0.63220  0.42740  0.49110  Biso   1.000  H
  H96      1.0000 0.70400  0.56120  0.47680  Biso   1.000  H
  H97      1.0000 0.77490  0.62200  0.38220  Biso   1.000  H
  H98      1.0000 0.79910  0.53320  0.31320  Biso   1.000  H
  H99      1.0000 0.74930  0.61880  0.23320  Biso   1.000  H
  H100     1.0000 0.81450  0.75330  0.26540  Biso   1.000  H
  H101     1.0000 0.82920  0.86300  0.19640  Biso   1.000  H
  H102     1.0000 0.78150  0.82590  0.09300  Biso   1.000  H
  H103     1.0000 0.70890  0.69230  0.05940  Biso   1.000  H
  H104     1.0000 0.59600  0.58220  0.21760  Biso   1.000  H
  H105     1.0000 0.46930  0.51050  0.27260  Biso   1.000  H
  H106     1.0000 0.37170  0.37190  0.24610  Biso   1.000  H
  H107     1.0000 0.40060  0.30490  0.16470  Biso   1.000  H
  H108     1.0000 0.52730  0.37670  0.10970  Biso   1.000  H
  H109     1.0000 0.64150  0.64720  0.73117  Biso   1.000  H
  H110     1.0000 0.65080  0.54660  0.78757  Biso   1.000  H
  H111     1.0000 0.42190  0.37200  0.73207  Biso   1.000  H
  H112     1.0000 0.41840  0.47870  0.67317  Biso   1.000  H
  H113     1.0000 0.61190  0.46220  0.87627  Biso   1.000  H
  H114     1.0000 0.55840  0.22270  0.90057  Biso   1.000  H
  H115     1.0000 0.47700  0.28760  0.74557  Biso   1.000  H
  H116     1.0000 0.81500  0.49150  0.93937  Biso   1.000  H
  H117     1.0000 0.93240  0.47870  0.91647  Biso   1.000  H
  H118     1.0000 0.92460  0.34830  0.92567  Biso   1.000  H
  H119     1.0000 0.79940  0.23070  0.95767  Biso   1.000  H
  H120     1.0000 0.68200  0.24350  0.98057  Biso   1.000  H
  H121     1.0000 0.66750  0.30400  0.08707  Biso   1.000  H
  H122     1.0000 0.57260  0.20480  0.15777  Biso   1.000  H
  H123     1.0000 0.43880  0.14280  0.14347  Biso   1.000  H
  H124     1.0000 0.37800  0.15290  0.04887  Biso   1.000  H
  H125     1.0000 0.46680  0.26590  0.97987  Biso   1.000  H
  H126     1.0000 0.38120  0.13050  0.89987  Biso   1.000  H
  H127     1.0000 0.24670  0.06120  0.93207  Biso   1.000  H
  H128     1.0000 0.13700  0.96620  0.86307  Biso   1.000  H
  H129     1.0000 0.17410  0.95560  0.75967  Biso   1.000  H
  H130     1.0000 0.30770  0.01660  0.72607  Biso   1.000  H
  H131     1.0000 0.41780  0.01380  0.88427  Biso   1.000  H
  H132     1.0000 0.48950  0.95880  0.93927  Biso   1.000  H
  H133     1.0000 0.62810  0.99980  0.91277  Biso   1.000  H
  H134     1.0000 0.69510  0.09570  0.83137  Biso   1.000  H
  H135     1.0000 0.62330  0.15060  0.77637  Biso   1.000  H
  H136     1.0000 0.35280  0.99430  0.39783  Biso   1.000  H
  H137     1.0000 0.45340  0.10420  0.45423  Biso   1.000  H
  H138     1.0000 0.62800  0.04990  0.39873  Biso   1.000  H
  H139     1.0000 0.52130  0.93970  0.33983  Biso   1.000  H
  H140     1.0000 0.53780  0.14970  0.54293  Biso   1.000  H
  H141     1.0000 0.77730  0.33570  0.56723  Biso   1.000  H
  H142     1.0000 0.71240  0.18940  0.41223  Biso   1.000  H
  H143     1.0000 0.50850  0.32350  0.60603  Biso   1.000  H
  H144     1.0000 0.52130  0.45370  0.58313  Biso   1.000  H
  H145     1.0000 0.65170  0.57630  0.59233  Biso   1.000  H
  H146     1.0000 0.76930  0.56870  0.62433  Biso   1.000  H
  H147     1.0000 0.75650  0.43850  0.64723  Biso   1.000  H
  H148     1.0000 0.69600  0.36350  0.75373  Biso   1.000  H
  H149     1.0000 0.79520  0.36780  0.82443  Biso   1.000  H
  H150     1.0000 0.85720  0.29600  0.81013  Biso   1.000  H
  H151     1.0000 0.84710  0.22510  0.71553  Biso   1.000  H
  H152     1.0000 0.73410  0.20090  0.64653  Biso   1.000  H
  H153     1.0000 0.86950  0.25070  0.56653  Biso   1.000  H
  H154     1.0000 0.93880  0.18550  0.59873  Biso   1.000  H
  H155     1.0000 0.03380  0.17080  0.52973  Biso   1.000  H
  H156     1.0000 0.04440  0.21850  0.42633  Biso   1.000  H
  H157     1.0000 0.98340  0.29110  0.39273  Biso   1.000  H
  H158     1.0000 0.98620  0.40400  0.55093  Biso   1.000  H
  H159     1.0000 0.04120  0.53070  0.60593  Biso   1.000  H
  H160     1.0000 0.00020  0.62830  0.57943  Biso   1.000  H
  H161     1.0000 0.90430  0.59940  0.49803  Biso   1.000  H
  H162     1.0000 0.84940  0.47270  0.44303  Biso   1.000  H
  C1       1.0000 0.59200  0.59450  0.93510  Biso   1.000  C
  C2       1.0000 0.53030  0.60020  0.90130  Biso   1.000  C
  C3       1.0000 0.45040  0.54030  0.89760  Biso   1.000  C
  C4       1.0000 0.42800  0.46750  0.93340  Biso   1.000  C
  C5       1.0000 0.49410  0.46600  0.96770  Biso   1.000  C
  C6       1.0000 0.38470  0.54410  0.86230  Biso   1.000  C
  C7       1.0000 0.40610  0.58730  0.80520  Biso   1.000  C
  C8       1.0000 0.34790  0.59510  0.76980  Biso   1.000  C
  C9       1.0000 0.26410  0.55700  0.79190  Biso   1.000  C
  C10      1.0000 0.24080  0.51820  0.84920  Biso   1.000  C
  C11      1.0000 0.30310  0.50850  0.88330  Biso   1.000  C
  C12      1.0000 0.36870  0.73740  0.70460  Biso   1.000  C
  C13      1.0000 0.43850  0.81170  0.72360  Biso   1.000  C
  C14      1.0000 0.43090  0.88150  0.73720  Biso   1.000  C
  C15      1.0000 0.35350  0.87690  0.73180  Biso   1.000  C
  C16      1.0000 0.28370  0.80260  0.71270  Biso   1.000  C
  C17      1.0000 0.29120  0.73280  0.69910  Biso   1.000  C
  C18      1.0000 0.29420  0.57370  0.64240  Biso   1.000  C
  C19      1.0000 0.27640  0.60880  0.58700  Biso   1.000  C
  C20      1.0000 0.21730  0.55200  0.54570  Biso   1.000  C
  C21      1.0000 0.17950  0.47420  0.55500  Biso   1.000  C
  C22      1.0000 0.18800  0.43610  0.60960  Biso   1.000  C
  C23      1.0000 0.25240  0.48990  0.65190  Biso   1.000  C
  C24      1.0000 0.08840  0.36250  0.86060  Biso   1.000  C
  C25      1.0000 0.09520  0.33860  0.79560  Biso   1.000  C
  C26      1.0000 0.05360  0.25980  0.77640  Biso   1.000  C
  C27      1.0000 0.99720  0.19370  0.81730  Biso   1.000  C
  C28      1.0000 0.99030  0.21740  0.87850  Biso   1.000  C
  C29      1.0000 0.02860  0.29580  0.89980  Biso   1.000  C
  C30      1.0000 0.08740  0.51380  0.84150  Biso   1.000  C
  C31      1.0000 0.03040  0.47410  0.79320  Biso   1.000  C
  C32      1.0000 0.99770  0.51660  0.76050  Biso   1.000  C
  C33      1.0000 0.02210  0.59900  0.77620  Biso   1.000  C
  C34      1.0000 0.07900  0.63870  0.82460  Biso   1.000  C
  C35      1.0000 0.11170  0.59620  0.85720  Biso   1.000  C
  C36      1.0000 0.00250  0.40800  0.26843  Biso   1.000  C
  C37      1.0000 0.06990  0.46970  0.23463  Biso   1.000  C
  C38      1.0000 0.08990  0.54960  0.23093  Biso   1.000  C
  C39      1.0000 0.03950  0.57200  0.26673  Biso   1.000  C
  C40      1.0000 0.97190  0.50590  0.30103  Biso   1.000  C
  C41      1.0000 0.15940  0.61530  0.19563  Biso   1.000  C
  C42      1.0000 0.18120  0.59390  0.13853  Biso   1.000  C
  C43      1.0000 0.24720  0.65210  0.10313  Biso   1.000  C
  C44      1.0000 0.29290  0.73590  0.12523  Biso   1.000  C
  C45      1.0000 0.27740  0.75920  0.18253  Biso   1.000  C
  C46      1.0000 0.20540  0.69690  0.21663  Biso   1.000  C
  C47      1.0000 0.36870  0.63130  0.03793  Biso   1.000  C
  C48      1.0000 0.37320  0.56150  0.05693  Biso   1.000  C
  C49      1.0000 0.45060  0.56910  0.07053  Biso   1.000  C
  C50      1.0000 0.52340  0.64650  0.06513  Biso   1.000  C
  C51      1.0000 0.51890  0.71630  0.04603  Biso   1.000  C
  C52      1.0000 0.44160  0.70880  0.03243  Biso   1.000  C
  C53      1.0000 0.27950  0.70580  0.97573  Biso   1.000  C
  C54      1.0000 0.33240  0.72360  0.92033  Biso   1.000  C
  C55      1.0000 0.33470  0.78270  0.87903  Biso   1.000  C
  C56      1.0000 0.29470  0.82050  0.88833  Biso   1.000  C
  C57      1.0000 0.24810  0.81200  0.94293  Biso   1.000  C
  C58      1.0000 0.23750  0.74760  0.98523  Biso   1.000  C
  C59      1.0000 0.27410  0.91160  0.19393  Biso   1.000  C
  C60      1.0000 0.24340  0.90480  0.12893  Biso   1.000  C
  C61      1.0000 0.20620  0.94640  0.10973  Biso   1.000  C
  C62      1.0000 0.19650  0.00280  0.15063  Biso   1.000  C
  C63      1.0000 0.22710  0.00970  0.21183  Biso   1.000  C
  C64      1.0000 0.26720  0.97140  0.23313  Biso   1.000  C
  C65      1.0000 0.42640  0.91260  0.17483  Biso   1.000  C
  C66      1.0000 0.44370  0.96960  0.12653  Biso   1.000  C
  C67      1.0000 0.51890  0.00230  0.09383  Biso   1.000  C
  C68      1.0000 0.57690  0.97790  0.10953  Biso   1.000  C
  C69      1.0000 0.55970  0.92100  0.15793  Biso   1.000  C
  C70      1.0000 0.48450  0.88830  0.19053  Biso   1.000  C
  C71      1.0000 0.40550  0.99750  0.60177  Biso   1.000  C
  C72      1.0000 0.39980  0.93010  0.56797  Biso   1.000  C
  C73      1.0000 0.45970  0.91010  0.56427  Biso   1.000  C
  C74      1.0000 0.53250  0.96050  0.60007  Biso   1.000  C
  C75      1.0000 0.53400  0.02810  0.63437  Biso   1.000  C
  C76      1.0000 0.45590  0.84060  0.52897  Biso   1.000  C
  C77      1.0000 0.41270  0.81880  0.47187  Biso   1.000  C
  C78      1.0000 0.40490  0.75280  0.43647  Biso   1.000  C
  C79      1.0000 0.44300  0.70710  0.45857  Biso   1.000  C
  C80      1.0000 0.48180  0.72260  0.51587  Biso   1.000  C
  C81      1.0000 0.49150  0.79460  0.54997  Biso   1.000  C
  C82      1.0000 0.26260  0.63130  0.37127  Biso   1.000  C
  C83      1.0000 0.18830  0.62680  0.39027  Biso   1.000  C
  C84      1.0000 0.11850  0.54940  0.40387  Biso   1.000  C
  C85      1.0000 0.12310  0.47660  0.39847  Biso   1.000  C
  C86      1.0000 0.19740  0.48110  0.37937  Biso   1.000  C
  C87      1.0000 0.26720  0.55840  0.36577  Biso   1.000  C
  C88      1.0000 0.42630  0.72050  0.30907  Biso   1.000  C
  C89      1.0000 0.39120  0.66760  0.25367  Biso   1.000  C
  C90      1.0000 0.44800  0.66530  0.21237  Biso   1.000  C
  C91      1.0000 0.52580  0.70530  0.22167  Biso   1.000  C
  C92      1.0000 0.56390  0.75190  0.27627  Biso   1.000  C
  C93      1.0000 0.51010  0.76250  0.31857  Biso   1.000  C
  C94      1.0000 0.63750  0.72590  0.52727  Biso   1.000  C
  C95      1.0000 0.66140  0.75660  0.46227  Biso   1.000  C
  C96      1.0000 0.74020  0.79380  0.44307  Biso   1.000  C
  C97      1.0000 0.80630  0.80350  0.48397  Biso   1.000  C
  C98      1.0000 0.78260  0.77290  0.54517  Biso   1.000  C
  C99      1.0000 0.70420  0.73280  0.56647  Biso   1.000  C
  C100     1.0000 0.48620  0.57360  0.50817  Biso   1.000  C
  C101     1.0000 0.52590  0.55630  0.45987  Biso   1.000  C
  C102     1.0000 0.48340  0.48110  0.42717  Biso   1.000  C
  C103     1.0000 0.40100  0.42310  0.44287  Biso   1.000  C
  C104     1.0000 0.36130  0.44030  0.49127  Biso   1.000  C
  C105     1.0000 0.40380  0.51550  0.52387  Biso   1.000  C
  C106     1.0000 0.99750  0.40550  0.06490  Biso   1.000  C
  C107     1.0000 0.93010  0.39980  0.09870  Biso   1.000  C
  C108     1.0000 0.91010  0.45970  0.10240  Biso   1.000  C
  C109     1.0000 0.96050  0.53250  0.06660  Biso   1.000  C
  C110     1.0000 0.02810  0.53400  0.03230  Biso   1.000  C
  C111     1.0000 0.84060  0.45590  0.13770  Biso   1.000  C
  C112     1.0000 0.81880  0.41270  0.19480  Biso   1.000  C
  C113     1.0000 0.75280  0.40490  0.23020  Biso   1.000  C
  C114     1.0000 0.70710  0.44300  0.20810  Biso   1.000  C
  C115     1.0000 0.72260  0.48180  0.15080  Biso   1.000  C
  C116     1.0000 0.79460  0.49150  0.11670  Biso   1.000  C
  C117     1.0000 0.63130  0.26260  0.29540  Biso   1.000  C
  C118     1.0000 0.62680  0.18830  0.27640  Biso   1.000  C
  C119     1.0000 0.54940  0.11850  0.26280  Biso   1.000  C
  C120     1.0000 0.47660  0.12310  0.26820  Biso   1.000  C
  C121     1.0000 0.48110  0.19740  0.28730  Biso   1.000  C
  C122     1.0000 0.55840  0.26720  0.30090  Biso   1.000  C
  C123     1.0000 0.72050  0.42630  0.35760  Biso   1.000  C
  C124     1.0000 0.66760  0.39120  0.41300  Biso   1.000  C
  C125     1.0000 0.66530  0.44800  0.45430  Biso   1.000  C
  C126     1.0000 0.70530  0.52580  0.44500  Biso   1.000  C
  C127     1.0000 0.75190  0.56390  0.39040  Biso   1.000  C
  C128     1.0000 0.76250  0.51010  0.34810  Biso   1.000  C
  C129     1.0000 0.72590  0.63750  0.13940  Biso   1.000  C
  C130     1.0000 0.75660  0.66140  0.20440  Biso   1.000  C
  C131     1.0000 0.79380  0.74020  0.22360  Biso   1.000  C
  C132     1.0000 0.80350  0.80630  0.18270  Biso   1.000  C
  C133     1.0000 0.77290  0.78260  0.12150  Biso   1.000  C
  C134     1.0000 0.73280  0.70420  0.10020  Biso   1.000  C
  C135     1.0000 0.57360  0.48620  0.15850  Biso   1.000  C
  C136     1.0000 0.55630  0.52590  0.20680  Biso   1.000  C
  C137     1.0000 0.48110  0.48340  0.23950  Biso   1.000  C
  C138     1.0000 0.42310  0.40100  0.22380  Biso   1.000  C
  C139     1.0000 0.44030  0.36130  0.17540  Biso   1.000  C
  C140     1.0000 0.51550  0.40380  0.14280  Biso   1.000  C
  C141     1.0000 0.59450  0.59200  0.73157  Biso   1.000  C
  C142     1.0000 0.60020  0.53030  0.76537  Biso   1.000  C
  C143     1.0000 0.54030  0.45040  0.76907  Biso   1.000  C
  C144     1.0000 0.46750  0.42800  0.73327  Biso   1.000  C
  C145     1.0000 0.46600  0.49410  0.69897  Biso   1.000  C
  C146     1.0000 0.54410  0.38470  0.80437  Biso   1.000  C
  C147     1.0000 0.58730  0.40610  0.86147  Biso   1.000  C
  C148     1.0000 0.59510  0.34790  0.89687  Biso   1.000  C
  C149     1.0000 0.55700  0.26410  0.87477  Biso   1.000  C
  C150     1.0000 0.51820  0.24080  0.81747  Biso   1.000  C
  C151     1.0000 0.50850  0.30310  0.78337  Biso   1.000  C
  C152     1.0000 0.73740  0.36870  0.96207  Biso   1.000  C
  C153     1.0000 0.81170  0.43850  0.94307  Biso   1.000  C
  C154     1.0000 0.88150  0.43090  0.92947  Biso   1.000  C
  C155     1.0000 0.87690  0.35350  0.93487  Biso   1.000  C
  C156     1.0000 0.80260  0.28370  0.95397  Biso   1.000  C
  C157     1.0000 0.73280  0.29120  0.96757  Biso   1.000  C
  C158     1.0000 0.57370  0.29420  0.02427  Biso   1.000  C
  C159     1.0000 0.60880  0.27640  0.07967  Biso   1.000  C
  C160     1.0000 0.55200  0.21730  0.12097  Biso   1.000  C
  C161     1.0000 0.47420  0.17950  0.11167  Biso   1.000  C
  C162     1.0000 0.43610  0.18800  0.05707  Biso   1.000  C
  C163     1.0000 0.48990  0.25240  0.01477  Biso   1.000  C
  C164     1.0000 0.36250  0.08840  0.80607  Biso   1.000  C
  C165     1.0000 0.33860  0.09520  0.87107  Biso   1.000  C
  C166     1.0000 0.25980  0.05360  0.89027  Biso   1.000  C
  C167     1.0000 0.19370  0.99720  0.84937  Biso   1.000  C
  C168     1.0000 0.21740  0.99030  0.78817  Biso   1.000  C
  C169     1.0000 0.29580  0.02860  0.76687  Biso   1.000  C
  C170     1.0000 0.51380  0.08740  0.82517  Biso   1.000  C
  C171     1.0000 0.47410  0.03040  0.87347  Biso   1.000  C
  C172     1.0000 0.51660  0.99770  0.90617  Biso   1.000  C
  C173     1.0000 0.59900  0.02210  0.89047  Biso   1.000  C
  C174     1.0000 0.63870  0.07900  0.84207  Biso   1.000  C
  C175     1.0000 0.59620  0.11170  0.80947  Biso   1.000  C
  C176     1.0000 0.40800  0.00250  0.39823  Biso   1.000  C
  C177     1.0000 0.46970  0.06990  0.43203  Biso   1.000  C
  C178     1.0000 0.54960  0.08990  0.43573  Biso   1.000  C
  C179     1.0000 0.57200  0.03950  0.39993  Biso   1.000  C
  C180     1.0000 0.50590  0.97190  0.36563  Biso   1.000  C
  C181     1.0000 0.61530  0.15940  0.47103  Biso   1.000  C
  C182     1.0000 0.59390  0.18120  0.52813  Biso   1.000  C
  C183     1.0000 0.65210  0.24720  0.56353  Biso   1.000  C
  C184     1.0000 0.73590  0.29290  0.54143  Biso   1.000  C
  C185     1.0000 0.75920  0.27740  0.48413  Biso   1.000  C
  C186     1.0000 0.69690  0.20540  0.45003  Biso   1.000  C
  C187     1.0000 0.63130  0.36870  0.62873  Biso   1.000  C
  C188     1.0000 0.56150  0.37320  0.60973  Biso   1.000  C
  C189     1.0000 0.56910  0.45060  0.59613  Biso   1.000  C
  C190     1.0000 0.64650  0.52340  0.60153  Biso   1.000  C
  C191     1.0000 0.71630  0.51890  0.62063  Biso   1.000  C
  C192     1.0000 0.70880  0.44160  0.63423  Biso   1.000  C
  C193     1.0000 0.70580  0.27950  0.69093  Biso   1.000  C
  C194     1.0000 0.72360  0.33240  0.74633  Biso   1.000  C
  C195     1.0000 0.78270  0.33470  0.78763  Biso   1.000  C
  C196     1.0000 0.82050  0.29470  0.77833  Biso   1.000  C
  C197     1.0000 0.81200  0.24810  0.72373  Biso   1.000  C
  C198     1.0000 0.74760  0.23750  0.68143  Biso   1.000  C
  C199     1.0000 0.91160  0.27410  0.47273  Biso   1.000  C
  C200     1.0000 0.90480  0.24340  0.53773  Biso   1.000  C
  C201     1.0000 0.94640  0.20620  0.55693  Biso   1.000  C
  C202     1.0000 0.00280  0.19650  0.51603  Biso   1.000  C
  C203     1.0000 0.00970  0.22710  0.45483  Biso   1.000  C
  C204     1.0000 0.97140  0.26720  0.43353  Biso   1.000  C
  C205     1.0000 0.91260  0.42640  0.49183  Biso   1.000  C
  C206     1.0000 0.96960  0.44370  0.54013  Biso   1.000  C
  C207     1.0000 0.00230  0.51890  0.57283  Biso   1.000  C
  C208     1.0000 0.97790  0.57690  0.55713  Biso   1.000  C
  C209     1.0000 0.92100  0.55970  0.50873  Biso   1.000  C
  C210     1.0000 0.88830  0.48450  0.47613  Biso   1.000  C
  N1       1.0000 0.57710  0.52600  0.96710  Biso   1.000  N
  N2       1.0000 0.94890  0.42290  0.30043  Biso   1.000  N
  N3       1.0000 0.47400  0.05110  0.63377  Biso   1.000  N
  N4       1.0000 0.05110  0.47400  0.03290  Biso   1.000  N
  N5       1.0000 0.52600  0.57710  0.69957  Biso   1.000  N
  N6       1.0000 0.42290  0.94890  0.36623  Biso   1.000  N
  Cl1      1.0000 0.62130  0.78340  0.70590  Biso   1.000  Cl
  Cl2      1.0000 0.16210  0.37870  0.03923  Biso   1.000  Cl
  Cl3      1.0000 0.21660  0.83790  0.37257  Biso   1.000  Cl
  Cl4      1.0000 0.83790  0.21660  0.29410  Biso   1.000  Cl
  Cl5      1.0000 0.78340  0.62130  0.96077  Biso   1.000  Cl
  Cl6      1.0000 0.37870  0.16210  0.62743  Biso   1.000  Cl
