data_image0
_cell_length_a       9.5232
_cell_length_b       15.846
_cell_length_c       22.369
_cell_angle_alpha    90
_cell_angle_beta     90
_cell_angle_gamma    90

_symmetry_space_group_name_H-M    P 1
_symmetry_int_tables_number       1

loop_
  _symmetry_equiv_pos_as_xyz
  'x, y, z'

loop_
  _atom_site_label
  _atom_site_occupancy
  _atom_site_fract_x
  _atom_site_fract_y
  _atom_site_fract_z
  _atom_site_thermal_displace_type
  _atom_site_B_iso_or_equiv
  _atom_site_type_symbol
  Zn1      1.0000 0.80953  0.31174  0.51366  Biso   1.000  Zn
  Zn2      1.0000 0.69047  0.68826  0.01366  Biso   1.000  Zn
  Zn3      1.0000 0.19047  0.81174  0.98634  Biso   1.000  Zn
  Zn4      1.0000 0.30953  0.18826  0.48634  Biso   1.000  Zn
  H1       1.0000 0.80000  0.49200  0.49080  Biso   1.000  H
  H2       1.0000 0.66700  0.59000  0.44000  Biso   1.000  H
  H3       1.0000 0.41200  0.41400  0.39540  Biso   1.000  H
  H4       1.0000 0.55700  0.32100  0.44500  Biso   1.000  H
  H5       1.0000 0.44400  0.63300  0.38980  Biso   1.000  H
  H6       1.0000 0.35800  0.55200  0.36670  Biso   1.000  H
  H7       1.0000 0.58900  0.60400  0.31300  Biso   1.000  H
  H8       1.0000 0.51500  0.51400  0.29000  Biso   1.000  H
  H9       1.0000 0.38600  0.67400  0.28600  Biso   1.000  H
  H10      1.0000 0.30900  0.60300  0.26550  Biso   1.000  H
  H11      1.0000 0.41000  0.53000  0.16670  Biso   1.000  H
  H12      1.0000 0.52300  0.55100  0.07520  Biso   1.000  H
  H13      1.0000 0.67200  0.76800  0.12660  Biso   1.000  H
  H14      1.0000 0.55200  0.76200  0.22320  Biso   1.000  H
  H15      1.0000 0.70000  0.50800  0.99080  Biso   1.000  H
  H16      1.0000 0.83300  0.41000  0.94000  Biso   1.000  H
  H17      1.0000 0.08800  0.58600  0.89540  Biso   1.000  H
  H18      1.0000 0.94300  0.67900  0.94500  Biso   1.000  H
  H19      1.0000 0.05600  0.36700  0.88980  Biso   1.000  H
  H20      1.0000 0.14200  0.44800  0.86670  Biso   1.000  H
  H21      1.0000 0.91100  0.39600  0.81300  Biso   1.000  H
  H22      1.0000 0.98500  0.48600  0.79000  Biso   1.000  H
  H23      1.0000 0.11400  0.32600  0.78600  Biso   1.000  H
  H24      1.0000 0.19100  0.39700  0.76550  Biso   1.000  H
  H25      1.0000 0.09000  0.47000  0.66670  Biso   1.000  H
  H26      1.0000 0.97700  0.44900  0.57520  Biso   1.000  H
  H27      1.0000 0.82800  0.23200  0.62660  Biso   1.000  H
  H28      1.0000 0.94800  0.23800  0.72320  Biso   1.000  H
  H29      1.0000 0.20000  0.99200  0.00920  Biso   1.000  H
  H30      1.0000 0.33300  0.09000  0.06000  Biso   1.000  H
  H31      1.0000 0.58800  0.91400  0.10460  Biso   1.000  H
  H32      1.0000 0.44300  0.82100  0.05500  Biso   1.000  H
  H33      1.0000 0.55600  0.13300  0.11020  Biso   1.000  H
  H34      1.0000 0.64200  0.05200  0.13330  Biso   1.000  H
  H35      1.0000 0.41100  0.10400  0.18700  Biso   1.000  H
  H36      1.0000 0.48500  0.01400  0.21000  Biso   1.000  H
  H37      1.0000 0.61400  0.17400  0.21400  Biso   1.000  H
  H38      1.0000 0.69100  0.10300  0.23450  Biso   1.000  H
  H39      1.0000 0.59000  0.03000  0.33330  Biso   1.000  H
  H40      1.0000 0.47700  0.05100  0.42480  Biso   1.000  H
  H41      1.0000 0.32800  0.26800  0.37340  Biso   1.000  H
  H42      1.0000 0.44800  0.26200  0.27680  Biso   1.000  H
  H43      1.0000 0.30000  0.00800  0.50920  Biso   1.000  H
  H44      1.0000 0.16700  0.91000  0.56000  Biso   1.000  H
  H45      1.0000 0.91200  0.08600  0.60460  Biso   1.000  H
  H46      1.0000 0.05700  0.17900  0.55500  Biso   1.000  H
  H47      1.0000 0.94400  0.86700  0.61020  Biso   1.000  H
  H48      1.0000 0.85800  0.94800  0.63330  Biso   1.000  H
  H49      1.0000 0.08900  0.89600  0.68700  Biso   1.000  H
  H50      1.0000 0.01500  0.98600  0.71000  Biso   1.000  H
  H51      1.0000 0.88600  0.82600  0.71400  Biso   1.000  H
  H52      1.0000 0.80900  0.89700  0.73450  Biso   1.000  H
  H53      1.0000 0.91000  0.97000  0.83330  Biso   1.000  H
  H54      1.0000 0.02300  0.94900  0.92480  Biso   1.000  H
  H55      1.0000 0.17200  0.73200  0.87340  Biso   1.000  H
  H56      1.0000 0.05200  0.73800  0.77680  Biso   1.000  H
  C1       1.0000 0.72380  0.48090  0.47120  Biso   1.000  C
  C2       1.0000 0.64590  0.53880  0.43908  Biso   1.000  C
  C3       1.0000 0.52810  0.51400  0.40874  Biso   1.000  C
  C4       1.0000 0.49300  0.43010  0.41310  Biso   1.000  C
  C5       1.0000 0.57390  0.37580  0.44575  Biso   1.000  C
  C6       1.0000 0.44510  0.57370  0.37088  Biso   1.000  C
  C7       1.0000 0.50440  0.57820  0.30739  Biso   1.000  C
  C8       1.0000 0.40810  0.62810  0.26568  Biso   1.000  C
  C9       1.0000 0.47590  0.63980  0.20490  Biso   1.000  C
  C10      1.0000 0.46920  0.57840  0.16112  Biso   1.000  C
  C11      1.0000 0.53370  0.59150  0.10669  Biso   1.000  C
  C12      1.0000 0.61440  0.72000  0.13739  Biso   1.000  C
  C13      1.0000 0.55030  0.71200  0.19203  Biso   1.000  C
  C14      1.0000 0.77620  0.51910  0.97120  Biso   1.000  C
  C15      1.0000 0.85410  0.46120  0.93908  Biso   1.000  C
  C16      1.0000 0.97190  0.48600  0.90874  Biso   1.000  C
  C17      1.0000 0.00700  0.56990  0.91310  Biso   1.000  C
  C18      1.0000 0.92610  0.62420  0.94575  Biso   1.000  C
  C19      1.0000 0.05490  0.42630  0.87088  Biso   1.000  C
  C20      1.0000 0.99560  0.42180  0.80739  Biso   1.000  C
  C21      1.0000 0.09190  0.37190  0.76568  Biso   1.000  C
  C22      1.0000 0.02410  0.36020  0.70490  Biso   1.000  C
  C23      1.0000 0.03080  0.42160  0.66112  Biso   1.000  C
  C24      1.0000 0.96630  0.40850  0.60669  Biso   1.000  C
  C25      1.0000 0.88560  0.28000  0.63739  Biso   1.000  C
  C26      1.0000 0.94970  0.28800  0.69203  Biso   1.000  C
  C27      1.0000 0.27620  0.98090  0.02880  Biso   1.000  C
  C28      1.0000 0.35410  0.03880  0.06092  Biso   1.000  C
  C29      1.0000 0.47190  0.01400  0.09126  Biso   1.000  C
  C30      1.0000 0.50700  0.93010  0.08690  Biso   1.000  C
  C31      1.0000 0.42610  0.87580  0.05425  Biso   1.000  C
  C32      1.0000 0.55490  0.07370  0.12912  Biso   1.000  C
  C33      1.0000 0.49560  0.07820  0.19261  Biso   1.000  C
  C34      1.0000 0.59190  0.12810  0.23432  Biso   1.000  C
  C35      1.0000 0.52410  0.13980  0.29510  Biso   1.000  C
  C36      1.0000 0.53080  0.07840  0.33888  Biso   1.000  C
  C37      1.0000 0.46630  0.09150  0.39331  Biso   1.000  C
  C38      1.0000 0.38560  0.22000  0.36261  Biso   1.000  C
  C39      1.0000 0.44970  0.21200  0.30797  Biso   1.000  C
  C40      1.0000 0.22380  0.01910  0.52880  Biso   1.000  C
  C41      1.0000 0.14590  0.96120  0.56092  Biso   1.000  C
  C42      1.0000 0.02810  0.98600  0.59126  Biso   1.000  C
  C43      1.0000 0.99300  0.06990  0.58690  Biso   1.000  C
  C44      1.0000 0.07390  0.12420  0.55425  Biso   1.000  C
  C45      1.0000 0.94510  0.92630  0.62912  Biso   1.000  C
  C46      1.0000 0.00440  0.92180  0.69261  Biso   1.000  C
  C47      1.0000 0.90810  0.87190  0.73432  Biso   1.000  C
  C48      1.0000 0.97590  0.86020  0.79510  Biso   1.000  C
  C49      1.0000 0.96920  0.92160  0.83888  Biso   1.000  C
  C50      1.0000 0.03370  0.90850  0.89331  Biso   1.000  C
  C51      1.0000 0.11440  0.78000  0.86261  Biso   1.000  C
  C52      1.0000 0.05030  0.78800  0.80797  Biso   1.000  C
  S1       1.0000 0.06851  0.32047  0.44392  Biso   1.000  S
  S2       1.0000 0.43149  0.67953  0.94392  Biso   1.000  S
  S3       1.0000 0.93149  0.82047  0.05608  Biso   1.000  S
  S4       1.0000 0.56851  0.17953  0.55608  Biso   1.000  S
  N1       1.0000 0.69020  0.39946  0.47390  Biso   1.000  N
  N2       1.0000 0.60590  0.66165  0.09409  Biso   1.000  N
  N3       1.0000 0.80980  0.60054  0.97390  Biso   1.000  N
  N4       1.0000 0.89410  0.33835  0.59409  Biso   1.000  N
  N5       1.0000 0.30980  0.89946  0.02610  Biso   1.000  N
  N6       1.0000 0.39410  0.16165  0.40591  Biso   1.000  N
  N7       1.0000 0.19020  0.10054  0.52610  Biso   1.000  N
  N8       1.0000 0.10590  0.83835  0.90591  Biso   1.000  N
  O1       1.0000 0.95020  0.26254  0.45973  Biso   1.000  O
  O2       1.0000 0.19610  0.29018  0.47614  Biso   1.000  O
  O3       1.0000 0.09280  0.31610  0.38045  Biso   1.000  O
  O4       1.0000 0.03290  0.40386  0.46508  Biso   1.000  O
  O5       1.0000 0.54980  0.73746  0.95973  Biso   1.000  O
  O6       1.0000 0.30390  0.70982  0.97614  Biso   1.000  O
  O7       1.0000 0.40720  0.68390  0.88045  Biso   1.000  O
  O8       1.0000 0.46710  0.59614  0.96508  Biso   1.000  O
  O9       1.0000 0.04980  0.76254  0.04027  Biso   1.000  O
  O10      1.0000 0.80390  0.79018  0.02386  Biso   1.000  O
  O11      1.0000 0.90720  0.81610  0.11955  Biso   1.000  O
  O12      1.0000 0.96710  0.90386  0.03492  Biso   1.000  O
  O13      1.0000 0.45020  0.23746  0.54027  Biso   1.000  O
  O14      1.0000 0.69610  0.20982  0.52386  Biso   1.000  O
  O15      1.0000 0.59280  0.18390  0.61955  Biso   1.000  O
  O16      1.0000 0.53290  0.09614  0.53492  Biso   1.000  O
  Zn5      1.0000 0.19047  0.68826  0.48634  Biso   1.000  Zn
  Zn6      1.0000 0.30953  0.31174  0.98634  Biso   1.000  Zn
  Zn7      1.0000 0.80953  0.18826  0.01366  Biso   1.000  Zn
  Zn8      1.0000 0.69047  0.81174  0.51366  Biso   1.000  Zn
  H57      1.0000 0.20000  0.50800  0.50920  Biso   1.000  H
  H58      1.0000 0.33300  0.41000  0.56000  Biso   1.000  H
  H59      1.0000 0.58800  0.58600  0.60460  Biso   1.000  H
  H60      1.0000 0.44300  0.67900  0.55500  Biso   1.000  H
  H61      1.0000 0.55600  0.36700  0.61020  Biso   1.000  H
  H62      1.0000 0.64200  0.44800  0.63330  Biso   1.000  H
  H63      1.0000 0.41100  0.39600  0.68700  Biso   1.000  H
  H64      1.0000 0.48500  0.48600  0.71000  Biso   1.000  H
  H65      1.0000 0.61400  0.32600  0.71400  Biso   1.000  H
  H66      1.0000 0.69100  0.39700  0.73450  Biso   1.000  H
  H67      1.0000 0.59000  0.47000  0.83330  Biso   1.000  H
  H68      1.0000 0.47700  0.44900  0.92480  Biso   1.000  H
  H69      1.0000 0.32800  0.23200  0.87340  Biso   1.000  H
  H70      1.0000 0.44800  0.23800  0.77680  Biso   1.000  H
  H71      1.0000 0.30000  0.49200  0.00920  Biso   1.000  H
  H72      1.0000 0.16700  0.59000  0.06000  Biso   1.000  H
  H73      1.0000 0.91200  0.41400  0.10460  Biso   1.000  H
  H74      1.0000 0.05700  0.32100  0.05500  Biso   1.000  H
  H75      1.0000 0.94400  0.63300  0.11020  Biso   1.000  H
  H76      1.0000 0.85800  0.55200  0.13330  Biso   1.000  H
  H77      1.0000 0.08900  0.60400  0.18700  Biso   1.000  H
  H78      1.0000 0.01500  0.51400  0.21000  Biso   1.000  H
  H79      1.0000 0.88600  0.67400  0.21400  Biso   1.000  H
  H80      1.0000 0.80900  0.60300  0.23450  Biso   1.000  H
  H81      1.0000 0.91000  0.53000  0.33330  Biso   1.000  H
  H82      1.0000 0.02300  0.55100  0.42480  Biso   1.000  H
  H83      1.0000 0.17200  0.76800  0.37340  Biso   1.000  H
  H84      1.0000 0.05200  0.76200  0.27680  Biso   1.000  H
  H85      1.0000 0.80000  0.00800  0.99080  Biso   1.000  H
  H86      1.0000 0.66700  0.91000  0.94000  Biso   1.000  H
  H87      1.0000 0.41200  0.08600  0.89540  Biso   1.000  H
  H88      1.0000 0.55700  0.17900  0.94500  Biso   1.000  H
  H89      1.0000 0.44400  0.86700  0.88980  Biso   1.000  H
  H90      1.0000 0.35800  0.94800  0.86670  Biso   1.000  H
  H91      1.0000 0.58900  0.89600  0.81300  Biso   1.000  H
  H92      1.0000 0.51500  0.98600  0.79000  Biso   1.000  H
  H93      1.0000 0.38600  0.82600  0.78600  Biso   1.000  H
  H94      1.0000 0.30900  0.89700  0.76550  Biso   1.000  H
  H95      1.0000 0.41000  0.97000  0.66670  Biso   1.000  H
  H96      1.0000 0.52300  0.94900  0.57520  Biso   1.000  H
  H97      1.0000 0.67200  0.73200  0.62660  Biso   1.000  H
  H98      1.0000 0.55200  0.73800  0.72320  Biso   1.000  H
  H99      1.0000 0.70000  0.99200  0.49080  Biso   1.000  H
  H100     1.0000 0.83300  0.09000  0.44000  Biso   1.000  H
  H101     1.0000 0.08800  0.91400  0.39540  Biso   1.000  H
  H102     1.0000 0.94300  0.82100  0.44500  Biso   1.000  H
  H103     1.0000 0.05600  0.13300  0.38980  Biso   1.000  H
  H104     1.0000 0.14200  0.05200  0.36670  Biso   1.000  H
  H105     1.0000 0.91100  0.10400  0.31300  Biso   1.000  H
  H106     1.0000 0.98500  0.01400  0.29000  Biso   1.000  H
  H107     1.0000 0.11400  0.17400  0.28600  Biso   1.000  H
  H108     1.0000 0.19100  0.10300  0.26550  Biso   1.000  H
  H109     1.0000 0.09000  0.03000  0.16670  Biso   1.000  H
  H110     1.0000 0.97700  0.05100  0.07520  Biso   1.000  H
  H111     1.0000 0.82800  0.26800  0.12660  Biso   1.000  H
  H112     1.0000 0.94800  0.26200  0.22320  Biso   1.000  H
  C53      1.0000 0.27620  0.51910  0.52880  Biso   1.000  C
  C54      1.0000 0.35410  0.46120  0.56092  Biso   1.000  C
  C55      1.0000 0.47190  0.48600  0.59126  Biso   1.000  C
  C56      1.0000 0.50700  0.56990  0.58690  Biso   1.000  C
  C57      1.0000 0.42610  0.62420  0.55425  Biso   1.000  C
  C58      1.0000 0.55490  0.42630  0.62912  Biso   1.000  C
  C59      1.0000 0.49560  0.42180  0.69261  Biso   1.000  C
  C60      1.0000 0.59190  0.37190  0.73432  Biso   1.000  C
  C61      1.0000 0.52410  0.36020  0.79510  Biso   1.000  C
  C62      1.0000 0.53080  0.42160  0.83888  Biso   1.000  C
  C63      1.0000 0.46630  0.40850  0.89331  Biso   1.000  C
  C64      1.0000 0.38560  0.28000  0.86261  Biso   1.000  C
  C65      1.0000 0.44970  0.28800  0.80797  Biso   1.000  C
  C66      1.0000 0.22380  0.48090  0.02880  Biso   1.000  C
  C67      1.0000 0.14590  0.53880  0.06092  Biso   1.000  C
  C68      1.0000 0.02810  0.51400  0.09126  Biso   1.000  C
  C69      1.0000 0.99300  0.43010  0.08690  Biso   1.000  C
  C70      1.0000 0.07390  0.37580  0.05425  Biso   1.000  C
  C71      1.0000 0.94510  0.57370  0.12912  Biso   1.000  C
  C72      1.0000 0.00440  0.57820  0.19261  Biso   1.000  C
  C73      1.0000 0.90810  0.62810  0.23432  Biso   1.000  C
  C74      1.0000 0.97590  0.63980  0.29510  Biso   1.000  C
  C75      1.0000 0.96920  0.57840  0.33888  Biso   1.000  C
  C76      1.0000 0.03370  0.59150  0.39331  Biso   1.000  C
  C77      1.0000 0.11440  0.72000  0.36261  Biso   1.000  C
  C78      1.0000 0.05030  0.71200  0.30797  Biso   1.000  C
  C79      1.0000 0.72380  0.01910  0.97120  Biso   1.000  C
  C80      1.0000 0.64590  0.96120  0.93908  Biso   1.000  C
  C81      1.0000 0.52810  0.98600  0.90874  Biso   1.000  C
  C82      1.0000 0.49300  0.06990  0.91310  Biso   1.000  C
  C83      1.0000 0.57390  0.12420  0.94575  Biso   1.000  C
  C84      1.0000 0.44510  0.92630  0.87088  Biso   1.000  C
  C85      1.0000 0.50440  0.92180  0.80739  Biso   1.000  C
  C86      1.0000 0.40810  0.87190  0.76568  Biso   1.000  C
  C87      1.0000 0.47590  0.86020  0.70490  Biso   1.000  C
  C88      1.0000 0.46920  0.92160  0.66112  Biso   1.000  C
  C89      1.0000 0.53370  0.90850  0.60669  Biso   1.000  C
  C90      1.0000 0.61440  0.78000  0.63739  Biso   1.000  C
  C91      1.0000 0.55030  0.78800  0.69203  Biso   1.000  C
  C92      1.0000 0.77620  0.98090  0.47120  Biso   1.000  C
  C93      1.0000 0.85410  0.03880  0.43908  Biso   1.000  C
  C94      1.0000 0.97190  0.01400  0.40874  Biso   1.000  C
  C95      1.0000 0.00700  0.93010  0.41310  Biso   1.000  C
  C96      1.0000 0.92610  0.87580  0.44575  Biso   1.000  C
  C97      1.0000 0.05490  0.07370  0.37088  Biso   1.000  C
  C98      1.0000 0.99560  0.07820  0.30739  Biso   1.000  C
  C99      1.0000 0.09190  0.12810  0.26568  Biso   1.000  C
  C100     1.0000 0.02410  0.13980  0.20490  Biso   1.000  C
  C101     1.0000 0.03080  0.07840  0.16112  Biso   1.000  C
  C102     1.0000 0.96630  0.09150  0.10669  Biso   1.000  C
  C103     1.0000 0.88560  0.22000  0.13739  Biso   1.000  C
  C104     1.0000 0.94970  0.21200  0.19203  Biso   1.000  C
  S5       1.0000 0.93149  0.67953  0.55608  Biso   1.000  S
  S6       1.0000 0.56851  0.32047  0.05608  Biso   1.000  S
  S7       1.0000 0.06851  0.17953  0.94392  Biso   1.000  S
  S8       1.0000 0.43149  0.82047  0.44392  Biso   1.000  S
  N9       1.0000 0.30980  0.60054  0.52610  Biso   1.000  N
  N10      1.0000 0.39410  0.33835  0.90591  Biso   1.000  N
  N11      1.0000 0.19020  0.39946  0.02610  Biso   1.000  N
  N12      1.0000 0.10590  0.66165  0.40591  Biso   1.000  N
  N13      1.0000 0.69020  0.10054  0.97390  Biso   1.000  N
  N14      1.0000 0.60590  0.83835  0.59409  Biso   1.000  N
  N15      1.0000 0.80980  0.89946  0.47390  Biso   1.000  N
  N16      1.0000 0.89410  0.16165  0.09409  Biso   1.000  N
  O17      1.0000 0.04980  0.73746  0.54027  Biso   1.000  O
  O18      1.0000 0.80390  0.70982  0.52386  Biso   1.000  O
  O19      1.0000 0.90720  0.68390  0.61955  Biso   1.000  O
  O20      1.0000 0.96710  0.59614  0.53492  Biso   1.000  O
  O21      1.0000 0.45020  0.26254  0.04027  Biso   1.000  O
  O22      1.0000 0.69610  0.29018  0.02386  Biso   1.000  O
  O23      1.0000 0.59280  0.31610  0.11955  Biso   1.000  O
  O24      1.0000 0.53290  0.40386  0.03492  Biso   1.000  O
  O25      1.0000 0.95020  0.23746  0.95973  Biso   1.000  O
  O26      1.0000 0.19610  0.20982  0.97614  Biso   1.000  O
  O27      1.0000 0.09280  0.18390  0.88045  Biso   1.000  O
  O28      1.0000 0.03290  0.09614  0.96508  Biso   1.000  O
  O29      1.0000 0.54980  0.76254  0.45973  Biso   1.000  O
  O30      1.0000 0.30390  0.79018  0.47614  Biso   1.000  O
  O31      1.0000 0.40720  0.81610  0.38045  Biso   1.000  O
  O32      1.0000 0.46710  0.90386  0.46508  Biso   1.000  O
