data_image0
_cell_length_a       9.0659
_cell_length_b       9.0659
_cell_length_c       21.7273
_cell_angle_alpha    90
_cell_angle_beta     90
_cell_angle_gamma    120

_symmetry_space_group_name_H-M    P 1
_symmetry_int_tables_number       1

loop_
  _symmetry_equiv_pos_as_xyz
  'x, y, z'

loop_
  _atom_site_label
  _atom_site_occupancy
  _atom_site_fract_x
  _atom_site_fract_y
  _atom_site_fract_z
  _atom_site_thermal_displace_type
  _atom_site_B_iso_or_equiv
  _atom_site_type_symbol
  Mn1      1.0000 0.02195  0.03919  0.91706  Biso   1.000  Mn
  Mn2      1.0000 0.01724  0.97805  0.58373  Biso   1.000  Mn
  Mn3      1.0000 0.96081  0.98276  0.25039  Biso   1.000  Mn
  Mn4      1.0000 0.98276  0.96081  0.08294  Biso   1.000  Mn
  Mn5      1.0000 0.03919  0.02195  0.41627  Biso   1.000  Mn
  Mn6      1.0000 0.97805  0.01724  0.74961  Biso   1.000  Mn
  H1       1.0000 0.36400  0.13200  0.86760  Biso   1.000  H
  H2       1.0000 0.10100  0.37400  0.96950  Biso   1.000  H
  H3       1.0000 0.58120  0.08510  0.91130  Biso   1.000  H
  H4       1.0000 0.06120  0.59580  0.92430  Biso   1.000  H
  H5       1.0000 0.76800  0.63600  0.53427  Biso   1.000  H
  H6       1.0000 0.27300  0.89900  0.63617  Biso   1.000  H
  H7       1.0000 0.50390  0.41880  0.57797  Biso   1.000  H
  H8       1.0000 0.53460  0.93880  0.59097  Biso   1.000  H
  H9       1.0000 0.86800  0.23200  0.20093  Biso   1.000  H
  H10      1.0000 0.62600  0.72700  0.30283  Biso   1.000  H
  H11      1.0000 0.91490  0.49610  0.24463  Biso   1.000  H
  H12      1.0000 0.40420  0.46540  0.25763  Biso   1.000  H
  H13      1.0000 0.23200  0.86800  0.13240  Biso   1.000  H
  H14      1.0000 0.72700  0.62600  0.03050  Biso   1.000  H
  H15      1.0000 0.49610  0.91490  0.08870  Biso   1.000  H
  H16      1.0000 0.46540  0.40420  0.07570  Biso   1.000  H
  H17      1.0000 0.13200  0.36400  0.46573  Biso   1.000  H
  H18      1.0000 0.37400  0.10100  0.36383  Biso   1.000  H
  H19      1.0000 0.08510  0.58120  0.42203  Biso   1.000  H
  H20      1.0000 0.59580  0.06120  0.40903  Biso   1.000  H
  H21      1.0000 0.63600  0.76800  0.79907  Biso   1.000  H
  H22      1.0000 0.89900  0.27300  0.69717  Biso   1.000  H
  H23      1.0000 0.41880  0.50390  0.75537  Biso   1.000  H
  H24      1.0000 0.93880  0.53460  0.74237  Biso   1.000  H
  C1       1.0000 0.36220  0.05500  0.94849  Biso   1.000  C
  C2       1.0000 0.51260  0.05210  0.94734  Biso   1.000  C
  C3       1.0000 0.04160  0.38130  0.88668  Biso   1.000  C
  C4       1.0000 0.03800  0.53190  0.88740  Biso   1.000  C
  C5       1.0000 0.69280  0.63780  0.61516  Biso   1.000  C
  C6       1.0000 0.53950  0.48740  0.61401  Biso   1.000  C
  C7       1.0000 0.33970  0.95840  0.55335  Biso   1.000  C
  C8       1.0000 0.49390  0.96200  0.55407  Biso   1.000  C
  C9       1.0000 0.94500  0.30720  0.28182  Biso   1.000  C
  C10      1.0000 0.94790  0.46050  0.28067  Biso   1.000  C
  C11      1.0000 0.61870  0.66030  0.22001  Biso   1.000  C
  C12      1.0000 0.46810  0.50610  0.22073  Biso   1.000  C
  C13      1.0000 0.30720  0.94500  0.05151  Biso   1.000  C
  C14      1.0000 0.46050  0.94790  0.05266  Biso   1.000  C
  C15      1.0000 0.66030  0.61870  0.11332  Biso   1.000  C
  C16      1.0000 0.50610  0.46810  0.11260  Biso   1.000  C
  C17      1.0000 0.05500  0.36220  0.38484  Biso   1.000  C
  C18      1.0000 0.05210  0.51260  0.38599  Biso   1.000  C
  C19      1.0000 0.38130  0.04160  0.44665  Biso   1.000  C
  C20      1.0000 0.53190  0.03800  0.44593  Biso   1.000  C
  C21      1.0000 0.63780  0.69280  0.71818  Biso   1.000  C
  C22      1.0000 0.48740  0.53950  0.71933  Biso   1.000  C
  C23      1.0000 0.95840  0.33970  0.77999  Biso   1.000  C
  C24      1.0000 0.96200  0.49390  0.77927  Biso   1.000  C
  C25      1.0000 0.25570  0.00000  0.00000  Biso   1.000  C
  C26      1.0000 0.72570  0.00000  0.00000  Biso   1.000  C
  C27      1.0000 0.56300  0.00000  0.00000  Biso   1.000  C
  C28      1.0000 0.74430  0.74430  0.66667  Biso   1.000  C
  C29      1.0000 0.27430  0.27430  0.66667  Biso   1.000  C
  C30      1.0000 0.43700  0.43700  0.66667  Biso   1.000  C
  C31      1.0000 0.00000  0.25570  0.33333  Biso   1.000  C
  C32      1.0000 0.00000  0.72570  0.33333  Biso   1.000  C
  C33      1.0000 0.00000  0.56300  0.33333  Biso   1.000  C
  C34      1.0000 0.00000  0.28270  0.83333  Biso   1.000  C
  C35      1.0000 0.00000  0.75270  0.83333  Biso   1.000  C
  C36      1.0000 0.00000  0.58910  0.83333  Biso   1.000  C
  C37      1.0000 0.28270  0.00000  0.50000  Biso   1.000  C
  C38      1.0000 0.75270  0.00000  0.50000  Biso   1.000  C
  C39      1.0000 0.58910  0.00000  0.50000  Biso   1.000  C
  C40      1.0000 0.71730  0.71730  0.16667  Biso   1.000  C
  C41      1.0000 0.24730  0.24730  0.16667  Biso   1.000  C
  C42      1.0000 0.41090  0.41090  0.16667  Biso   1.000  C
  O1       1.0000 0.30160  0.10960  0.90024  Biso   1.000  O
  O2       1.0000 0.77100  0.95920  0.95048  Biso   1.000  O
  O3       1.0000 0.08320  0.31460  0.93632  Biso   1.000  O
  O4       1.0000 0.94810  0.79190  0.88141  Biso   1.000  O
  O5       1.0000 0.80800  0.69840  0.56691  Biso   1.000  O
  O6       1.0000 0.18820  0.22900  0.61715  Biso   1.000  O
  O7       1.0000 0.23140  0.91680  0.60299  Biso   1.000  O
  O8       1.0000 0.84380  0.05190  0.54808  Biso   1.000  O
  O9       1.0000 0.89040  0.19200  0.23357  Biso   1.000  O
  O10      1.0000 0.04080  0.81180  0.28381  Biso   1.000  O
  O11      1.0000 0.68540  0.76860  0.26965  Biso   1.000  O
  O12      1.0000 0.20810  0.15620  0.21474  Biso   1.000  O
  O13      1.0000 0.19200  0.89040  0.09976  Biso   1.000  O
  O14      1.0000 0.81180  0.04080  0.04952  Biso   1.000  O
  O15      1.0000 0.76860  0.68540  0.06368  Biso   1.000  O
  O16      1.0000 0.15620  0.20810  0.11859  Biso   1.000  O
  O17      1.0000 0.10960  0.30160  0.43309  Biso   1.000  O
  O18      1.0000 0.95920  0.77100  0.38285  Biso   1.000  O
  O19      1.0000 0.31460  0.08320  0.39701  Biso   1.000  O
  O20      1.0000 0.79190  0.94810  0.45192  Biso   1.000  O
  O21      1.0000 0.69840  0.80800  0.76643  Biso   1.000  O
  O22      1.0000 0.22900  0.18820  0.71619  Biso   1.000  O
  O23      1.0000 0.91680  0.23140  0.73035  Biso   1.000  O
  O24      1.0000 0.05190  0.84380  0.78526  Biso   1.000  O
  O25      1.0000 0.10900  0.00000  0.00000  Biso   1.000  O
  O26      1.0000 0.89100  0.89100  0.66667  Biso   1.000  O
  O27      1.0000 0.00000  0.10900  0.33333  Biso   1.000  O
  O28      1.0000 0.00000  0.13510  0.83333  Biso   1.000  O
  O29      1.0000 0.13510  0.00000  0.50000  Biso   1.000  O
  O30      1.0000 0.86490  0.86490  0.16667  Biso   1.000  O
