data_image0
_cell_length_a       8.824
_cell_length_b       8.824
_cell_length_c       10.644
_cell_angle_alpha    90
_cell_angle_beta     90
_cell_angle_gamma    120

_symmetry_space_group_name_H-M    P 1
_symmetry_int_tables_number       1

loop_
  _symmetry_equiv_pos_as_xyz
  'x, y, z'

loop_
  _atom_site_label
  _atom_site_occupancy
  _atom_site_fract_x
  _atom_site_fract_y
  _atom_site_fract_z
  _atom_site_thermal_displace_type
  _atom_site_B_iso_or_equiv
  _atom_site_type_symbol
  Ni1      1.0000 1.00000  0.95806  0.83333  Biso   1.000  Ni
  Ni2      1.0000 0.95806  0.00000  0.50000  Biso   1.000  Ni
  Ni3      1.0000 0.04194  0.04194  0.16667  Biso   1.000  Ni
  H1       1.0000 0.21100  0.86400  0.72900  Biso   1.000  H
  H2       1.0000 0.51200  0.90400  0.83100  Biso   1.000  H
  H3       1.0000 0.65300  0.78900  0.39567  Biso   1.000  H
  H4       1.0000 0.39200  0.48800  0.49767  Biso   1.000  H
  H5       1.0000 0.13600  0.34700  0.06233  Biso   1.000  H
  H6       1.0000 0.09600  0.60800  0.16433  Biso   1.000  H
  H7       1.0000 0.34700  0.13600  0.27100  Biso   1.000  H
  H8       1.0000 0.60800  0.09600  0.16900  Biso   1.000  H
  H9       1.0000 0.86400  0.21100  0.60433  Biso   1.000  H
  H10      1.0000 0.90400  0.51200  0.50233  Biso   1.000  H
  H11      1.0000 0.78900  0.65300  0.93767  Biso   1.000  H
  H12      1.0000 0.48800  0.39200  0.83567  Biso   1.000  H
  C1       1.0000 0.47280  0.94450  0.89330  Biso   1.000  C
  C2       1.0000 0.31480  0.94260  0.89440  Biso   1.000  C
  C3       1.0000 0.47170  0.52720  0.55997  Biso   1.000  C
  C4       1.0000 0.62780  0.68520  0.56107  Biso   1.000  C
  C5       1.0000 0.05550  0.52830  0.22663  Biso   1.000  C
  C6       1.0000 0.05740  0.37220  0.22773  Biso   1.000  C
  C7       1.0000 0.52830  0.05550  0.10670  Biso   1.000  C
  C8       1.0000 0.37220  0.05740  0.10560  Biso   1.000  C
  C9       1.0000 0.94450  0.47280  0.44003  Biso   1.000  C
  C10      1.0000 0.94260  0.31480  0.43893  Biso   1.000  C
  C11      1.0000 0.52720  0.47170  0.77337  Biso   1.000  C
  C12      1.0000 0.68520  0.62780  0.77227  Biso   1.000  C
  C13      1.0000 0.26330  0.00000  0.00000  Biso   1.000  C
  C14      1.0000 0.74740  0.00000  0.00000  Biso   1.000  C
  C15      1.0000 0.57910  0.00000  0.00000  Biso   1.000  C
  C16      1.0000 0.73670  0.73670  0.66667  Biso   1.000  C
  C17      1.0000 0.25260  0.25260  0.66667  Biso   1.000  C
  C18      1.0000 0.42090  0.42090  0.66667  Biso   1.000  C
  C19      1.0000 0.00000  0.26330  0.33333  Biso   1.000  C
  C20      1.0000 1.00000  0.74740  0.33333  Biso   1.000  C
  C21      1.0000 1.00000  0.57910  0.33333  Biso   1.000  C
  O1       1.0000 0.19590  0.88550  0.79820  Biso   1.000  O
  O2       1.0000 0.82900  0.03210  0.89690  Biso   1.000  O
  O3       1.0000 0.68960  0.80410  0.46487  Biso   1.000  O
  O4       1.0000 0.20310  0.17100  0.56357  Biso   1.000  O
  O5       1.0000 0.11450  0.31040  0.13153  Biso   1.000  O
  O6       1.0000 0.96790  0.79690  0.23023  Biso   1.000  O
  O7       1.0000 0.31040  0.11450  0.20180  Biso   1.000  O
  O8       1.0000 0.79690  0.96790  0.10310  Biso   1.000  O
  O9       1.0000 0.88550  0.19590  0.53513  Biso   1.000  O
  O10      1.0000 0.03210  0.82900  0.43643  Biso   1.000  O
  O11      1.0000 0.80410  0.68960  0.86847  Biso   1.000  O
  O12      1.0000 0.17100  0.20310  0.76977  Biso   1.000  O
  O13      1.0000 0.11330  0.00000  0.00000  Biso   1.000  O
  O14      1.0000 0.88670  0.88670  0.66667  Biso   1.000  O
  O15      1.0000 0.00000  0.11330  0.33333  Biso   1.000  O
