data_image0
_cell_length_a       9.063
_cell_length_b       9.063
_cell_length_c       10.947
_cell_angle_alpha    90
_cell_angle_beta     90
_cell_angle_gamma    120

_symmetry_space_group_name_H-M    P 1
_symmetry_int_tables_number       1

loop_
  _symmetry_equiv_pos_as_xyz
  'x, y, z'

loop_
  _atom_site_label
  _atom_site_occupancy
  _atom_site_fract_x
  _atom_site_fract_y
  _atom_site_fract_z
  _atom_site_thermal_displace_type
  _atom_site_B_iso_or_equiv
  _atom_site_type_symbol
  Mn1      1.0000 0.02779  0.02779  0.33333  Biso   1.000  Mn
  Mn2      1.0000 1.00000  0.97221  0.66667  Biso   1.000  Mn
  Mn3      1.0000 0.97221  0.00000  0.00000  Biso   1.000  Mn
  H1       1.0000 0.37000  0.14300  0.25000  Biso   1.000  H
  H2       1.0000 0.59700  0.09100  0.33200  Biso   1.000  H
  H3       1.0000 0.77300  0.63000  0.58333  Biso   1.000  H
  H4       1.0000 0.49400  0.40300  0.66533  Biso   1.000  H
  H5       1.0000 0.85700  0.22700  0.91667  Biso   1.000  H
  H6       1.0000 0.90900  0.50600  0.99867  Biso   1.000  H
  H7       1.0000 0.22700  0.85700  0.75000  Biso   1.000  H
  H8       1.0000 0.50600  0.90900  0.66800  Biso   1.000  H
  H9       1.0000 0.14300  0.37000  0.41667  Biso   1.000  H
  H10      1.0000 0.09100  0.59700  0.33467  Biso   1.000  H
  H11      1.0000 0.63000  0.77300  0.08333  Biso   1.000  H
  H12      1.0000 0.40300  0.49400  0.00133  Biso   1.000  H
  C1       1.0000 0.52120  0.04540  0.39490  Biso   1.000  C
  C2       1.0000 0.37170  0.04920  0.39590  Biso   1.000  C
  C3       1.0000 0.52420  0.47880  0.72823  Biso   1.000  C
  C4       1.0000 0.67750  0.62830  0.72923  Biso   1.000  C
  C5       1.0000 0.95460  0.47580  0.06157  Biso   1.000  C
  C6       1.0000 0.95080  0.32250  0.06257  Biso   1.000  C
  C7       1.0000 0.47580  0.95460  0.60510  Biso   1.000  C
  C8       1.0000 0.32250  0.95080  0.60410  Biso   1.000  C
  C9       1.0000 0.04540  0.52120  0.27177  Biso   1.000  C
  C10      1.0000 0.04920  0.37170  0.27077  Biso   1.000  C
  C11      1.0000 0.47880  0.52420  0.93843  Biso   1.000  C
  C12      1.0000 0.62830  0.67750  0.93743  Biso   1.000  C
  C13      1.0000 0.73870  0.00000  0.50000  Biso   1.000  C
  C14      1.0000 0.26710  0.00000  0.50000  Biso   1.000  C
  C15      1.0000 0.57460  0.00000  0.50000  Biso   1.000  C
  C16      1.0000 0.26130  0.26130  0.83333  Biso   1.000  C
  C17      1.0000 0.73290  0.73290  0.83333  Biso   1.000  C
  C18      1.0000 0.42540  0.42540  0.83333  Biso   1.000  C
  C19      1.0000 0.00000  0.73870  0.16667  Biso   1.000  C
  C20      1.0000 0.00000  0.26710  0.16667  Biso   1.000  C
  C21      1.0000 0.00000  0.57460  0.16667  Biso   1.000  C
  O1       1.0000 0.30710  0.09660  0.29969  Biso   1.000  O
  O2       1.0000 0.78120  0.95450  0.40323  Biso   1.000  O
  O3       1.0000 0.78950  0.69290  0.63302  Biso   1.000  O
  O4       1.0000 0.17330  0.21880  0.73656  Biso   1.000  O
  O5       1.0000 0.90340  0.21050  0.96636  Biso   1.000  O
  O6       1.0000 0.04550  0.82670  0.06990  Biso   1.000  O
  O7       1.0000 0.21050  0.90340  0.70031  Biso   1.000  O
  O8       1.0000 0.82670  0.04550  0.59677  Biso   1.000  O
  O9       1.0000 0.09660  0.30710  0.36698  Biso   1.000  O
  O10      1.0000 0.95450  0.78120  0.26344  Biso   1.000  O
  O11      1.0000 0.69290  0.78950  0.03364  Biso   1.000  O
  O12      1.0000 0.21880  0.17330  0.93010  Biso   1.000  O
  O13      1.0000 0.12060  0.00000  0.50000  Biso   1.000  O
  O14      1.0000 0.87940  0.87940  0.83333  Biso   1.000  O
  O15      1.0000 0.00000  0.12060  0.16667  Biso   1.000  O
