data_image0
_cell_length_a       9.0553
_cell_length_b       9.0553
_cell_length_c       10.8872
_cell_angle_alpha    90
_cell_angle_beta     90
_cell_angle_gamma    120

_symmetry_space_group_name_H-M    P 1
_symmetry_int_tables_number       1

loop_
  _symmetry_equiv_pos_as_xyz
  'x, y, z'

loop_
  _atom_site_label
  _atom_site_occupancy
  _atom_site_fract_x
  _atom_site_fract_y
  _atom_site_fract_z
  _atom_site_thermal_displace_type
  _atom_site_B_iso_or_equiv
  _atom_site_type_symbol
  Mn1      1.0000 0.03000  1.00000  0.50000  Biso   1.000  Mn
  Mn2      1.0000 0.97000  0.97000  0.83333  Biso   1.000  Mn
  Mn3      1.0000 0.00000  0.03000  0.16667  Biso   1.000  Mn
  H1       1.0000 0.37400  0.24700  0.59700  Biso   1.000  H
  H2       1.0000 0.58880  0.51450  0.51050  Biso   1.000  H
  H3       1.0000 0.87300  0.62600  0.93033  Biso   1.000  H
  H4       1.0000 0.92570  0.41120  0.84383  Biso   1.000  H
  H5       1.0000 0.75300  0.12700  0.26367  Biso   1.000  H
  H6       1.0000 0.48550  0.07430  0.17717  Biso   1.000  H
  H7       1.0000 0.12700  0.75300  0.40300  Biso   1.000  H
  H8       1.0000 0.07430  0.48550  0.48950  Biso   1.000  H
  H9       1.0000 0.24700  0.37400  0.06967  Biso   1.000  H
  H10      1.0000 0.51450  0.58880  0.15617  Biso   1.000  H
  H11      1.0000 0.62600  0.87300  0.73633  Biso   1.000  H
  H12      1.0000 0.41120  0.92570  0.82283  Biso   1.000  H
  C1       1.0000 0.37280  0.32350  0.43754  Biso   1.000  C
  C2       1.0000 0.52330  0.47720  0.43935  Biso   1.000  C
  C3       1.0000 0.95070  0.62720  0.77087  Biso   1.000  C
  C4       1.0000 0.95390  0.47670  0.77268  Biso   1.000  C
  C5       1.0000 0.67650  0.04930  0.10421  Biso   1.000  C
  C6       1.0000 0.52280  0.04610  0.10602  Biso   1.000  C
  C7       1.0000 0.04930  0.67650  0.56246  Biso   1.000  C
  C8       1.0000 0.04610  0.52280  0.56065  Biso   1.000  C
  C9       1.0000 0.32350  0.37280  0.22913  Biso   1.000  C
  C10      1.0000 0.47720  0.52330  0.22732  Biso   1.000  C
  C11      1.0000 0.62720  0.95070  0.89579  Biso   1.000  C
  C12      1.0000 0.47670  0.95390  0.89398  Biso   1.000  C
  C13      1.0000 0.74020  0.74020  0.33333  Biso   1.000  C
  C14      1.0000 0.26930  0.26930  0.33333  Biso   1.000  C
  C15      1.0000 0.57550  0.57550  0.33333  Biso   1.000  C
  C16      1.0000 0.00000  0.25980  0.66667  Biso   1.000  C
  C17      1.0000 0.00000  0.73070  0.66667  Biso   1.000  C
  C18      1.0000 0.00000  0.42450  0.66667  Biso   1.000  C
  C19      1.0000 0.25980  0.00000  0.00000  Biso   1.000  C
  C20      1.0000 0.73070  0.00000  0.00000  Biso   1.000  C
  C21      1.0000 0.42450  1.00000  0.00000  Biso   1.000  C
  O1       1.0000 0.78270  0.82770  0.43051  Biso   1.000  O
  O2       1.0000 0.30970  0.21130  0.53484  Biso   1.000  O
  O3       1.0000 0.04500  0.21730  0.76384  Biso   1.000  O
  O4       1.0000 0.90160  0.69030  0.86817  Biso   1.000  O
  O5       1.0000 0.17230  0.95500  0.09718  Biso   1.000  O
  O6       1.0000 0.78870  0.09840  0.20151  Biso   1.000  O
  O7       1.0000 0.95500  0.17230  0.56949  Biso   1.000  O
  O8       1.0000 0.09840  0.78870  0.46516  Biso   1.000  O
  O9       1.0000 0.82770  0.78270  0.23616  Biso   1.000  O
  O10      1.0000 0.21130  0.30970  0.13183  Biso   1.000  O
  O11      1.0000 0.21730  0.04500  0.90282  Biso   1.000  O
  O12      1.0000 0.69030  0.90160  0.79849  Biso   1.000  O
  O13      1.0000 0.12270  0.12270  0.33333  Biso   1.000  O
  O14      1.0000 0.00000  0.87730  0.66667  Biso   1.000  O
  O15      1.0000 0.87730  0.00000  0.00000  Biso   1.000  O
