data_image0
_cell_length_a       14.865
_cell_length_b       14.983
_cell_length_c       14.983
_cell_angle_alpha    120
_cell_angle_beta     90
_cell_angle_gamma    90

_symmetry_space_group_name_H-M    P 1
_symmetry_int_tables_number       1

loop_
  _symmetry_equiv_pos_as_xyz
  'x, y, z'

loop_
  _atom_site_label
  _atom_site_occupancy
  _atom_site_fract_x
  _atom_site_fract_y
  _atom_site_fract_z
  _atom_site_thermal_displace_type
  _atom_site_B_iso_or_equiv
  _atom_site_type_symbol
  Sm1      1.0000 0.75000  0.33333  0.66666  Biso   1.000  Sm
  Sm2      1.0000 0.75000  0.66667  0.33334  Biso   1.000  Sm
  Sm3      1.0000 0.25000  0.66667  0.33334  Biso   1.000  Sm
  Sm4      1.0000 0.25000  0.33333  0.66666  Biso   1.000  Sm
  Cu1      1.0000 0.00000  0.50000  0.50000  Biso   1.000  Cu
  Cu2      1.0000 0.00000  0.00000  0.50000  Biso   1.000  Cu
  Cu3      1.0000 0.00000  0.50000  0.00000  Biso   1.000  Cu
  Cu4      1.0000 0.50000  0.00000  0.50000  Biso   1.000  Cu
  Cu5      1.0000 0.50000  0.50000  0.50000  Biso   1.000  Cu
  Cu6      1.0000 0.50000  0.50000  0.00000  Biso   1.000  Cu
  H1       1.0000 0.83910  0.63260  0.79050  Biso   1.000  H
  H2       1.0000 0.76270  0.62420  0.71410  Biso   1.000  H
  H3       1.0000 0.83910  0.15790  0.36740  Biso   1.000  H
  H4       1.0000 0.76270  0.08990  0.37580  Biso   1.000  H
  H5       1.0000 0.83910  0.20950  0.84210  Biso   1.000  H
  H6       1.0000 0.76270  0.28590  0.91010  Biso   1.000  H
  H7       1.0000 0.83910  0.36740  0.20950  Biso   1.000  H
  H8       1.0000 0.76270  0.37580  0.28590  Biso   1.000  H
  H9       1.0000 0.83910  0.84210  0.63260  Biso   1.000  H
  H10      1.0000 0.76270  0.91010  0.62420  Biso   1.000  H
  H11      1.0000 0.83910  0.79050  0.15790  Biso   1.000  H
  H12      1.0000 0.76270  0.71410  0.08990  Biso   1.000  H
  H13      1.0000 0.66090  0.84210  0.20950  Biso   1.000  H
  H14      1.0000 0.73730  0.91010  0.28590  Biso   1.000  H
  H15      1.0000 0.66090  0.79050  0.63260  Biso   1.000  H
  H16      1.0000 0.73730  0.71410  0.62420  Biso   1.000  H
  H17      1.0000 0.66090  0.36740  0.15790  Biso   1.000  H
  H18      1.0000 0.73730  0.37580  0.08990  Biso   1.000  H
  H19      1.0000 0.66090  0.15790  0.79050  Biso   1.000  H
  H20      1.0000 0.73730  0.08990  0.71410  Biso   1.000  H
  H21      1.0000 0.66090  0.20950  0.36740  Biso   1.000  H
  H22      1.0000 0.73730  0.28590  0.37580  Biso   1.000  H
  H23      1.0000 0.66090  0.63260  0.84210  Biso   1.000  H
  H24      1.0000 0.73730  0.62420  0.91010  Biso   1.000  H
  H25      1.0000 0.16090  0.36740  0.20950  Biso   1.000  H
  H26      1.0000 0.23730  0.37580  0.28590  Biso   1.000  H
  H27      1.0000 0.16090  0.84210  0.63260  Biso   1.000  H
  H28      1.0000 0.23730  0.91010  0.62420  Biso   1.000  H
  H29      1.0000 0.16090  0.79050  0.15790  Biso   1.000  H
  H30      1.0000 0.23730  0.71410  0.08990  Biso   1.000  H
  H31      1.0000 0.16090  0.63260  0.79050  Biso   1.000  H
  H32      1.0000 0.23730  0.62420  0.71410  Biso   1.000  H
  H33      1.0000 0.16090  0.15790  0.36740  Biso   1.000  H
  H34      1.0000 0.23730  0.08990  0.37580  Biso   1.000  H
  H35      1.0000 0.16090  0.20950  0.84210  Biso   1.000  H
  H36      1.0000 0.23730  0.28590  0.91010  Biso   1.000  H
  H37      1.0000 0.33910  0.15790  0.79050  Biso   1.000  H
  H38      1.0000 0.26270  0.08990  0.71410  Biso   1.000  H
  H39      1.0000 0.33910  0.20950  0.36740  Biso   1.000  H
  H40      1.0000 0.26270  0.28590  0.37580  Biso   1.000  H
  H41      1.0000 0.33910  0.63260  0.84210  Biso   1.000  H
  H42      1.0000 0.26270  0.62420  0.91010  Biso   1.000  H
  H43      1.0000 0.33910  0.84210  0.20950  Biso   1.000  H
  H44      1.0000 0.26270  0.91010  0.28590  Biso   1.000  H
  H45      1.0000 0.33910  0.79050  0.63260  Biso   1.000  H
  H46      1.0000 0.26270  0.71410  0.62420  Biso   1.000  H
  H47      1.0000 0.33910  0.36740  0.15790  Biso   1.000  H
  H48      1.0000 0.26270  0.37580  0.08990  Biso   1.000  H
  C1       1.0000 0.86000  0.51400  0.64350  Biso   1.000  C
  C2       1.0000 0.80170  0.58470  0.73350  Biso   1.000  C
  C3       1.0000 0.86000  0.12950  0.48600  Biso   1.000  C
  C4       1.0000 0.80170  0.14880  0.41530  Biso   1.000  C
  C5       1.0000 0.86000  0.35650  0.87050  Biso   1.000  C
  C6       1.0000 0.80170  0.26650  0.85120  Biso   1.000  C
  C7       1.0000 0.86000  0.48600  0.35650  Biso   1.000  C
  C8       1.0000 0.80170  0.41530  0.26650  Biso   1.000  C
  C9       1.0000 0.86000  0.87050  0.51400  Biso   1.000  C
  C10      1.0000 0.80170  0.85120  0.58470  Biso   1.000  C
  C11      1.0000 0.86000  0.64350  0.12950  Biso   1.000  C
  C12      1.0000 0.80170  0.73350  0.14880  Biso   1.000  C
  C13      1.0000 0.64000  0.87050  0.35650  Biso   1.000  C
  C14      1.0000 0.69830  0.85120  0.26650  Biso   1.000  C
  C15      1.0000 0.64000  0.64350  0.51400  Biso   1.000  C
  C16      1.0000 0.69830  0.73350  0.58470  Biso   1.000  C
  C17      1.0000 0.64000  0.48600  0.12950  Biso   1.000  C
  C18      1.0000 0.69830  0.41530  0.14880  Biso   1.000  C
  C19      1.0000 0.64000  0.12950  0.64350  Biso   1.000  C
  C20      1.0000 0.69830  0.14880  0.73350  Biso   1.000  C
  C21      1.0000 0.64000  0.35650  0.48600  Biso   1.000  C
  C22      1.0000 0.69830  0.26650  0.41530  Biso   1.000  C
  C23      1.0000 0.64000  0.51400  0.87050  Biso   1.000  C
  C24      1.0000 0.69830  0.58470  0.85120  Biso   1.000  C
  C25      1.0000 0.14000  0.48600  0.35650  Biso   1.000  C
  C26      1.0000 0.19830  0.41530  0.26650  Biso   1.000  C
  C27      1.0000 0.14000  0.87050  0.51400  Biso   1.000  C
  C28      1.0000 0.19830  0.85120  0.58470  Biso   1.000  C
  C29      1.0000 0.14000  0.64350  0.12950  Biso   1.000  C
  C30      1.0000 0.19830  0.73350  0.14880  Biso   1.000  C
  C31      1.0000 0.14000  0.51400  0.64350  Biso   1.000  C
  C32      1.0000 0.19830  0.58470  0.73350  Biso   1.000  C
  C33      1.0000 0.14000  0.12950  0.48600  Biso   1.000  C
  C34      1.0000 0.19830  0.14880  0.41530  Biso   1.000  C
  C35      1.0000 0.14000  0.35650  0.87050  Biso   1.000  C
  C36      1.0000 0.19830  0.26650  0.85120  Biso   1.000  C
  C37      1.0000 0.36000  0.12950  0.64350  Biso   1.000  C
  C38      1.0000 0.30170  0.14880  0.73350  Biso   1.000  C
  C39      1.0000 0.36000  0.35650  0.48600  Biso   1.000  C
  C40      1.0000 0.30170  0.26650  0.41530  Biso   1.000  C
  C41      1.0000 0.36000  0.51400  0.87050  Biso   1.000  C
  C42      1.0000 0.30170  0.58470  0.85120  Biso   1.000  C
  C43      1.0000 0.36000  0.87050  0.35650  Biso   1.000  C
  C44      1.0000 0.30170  0.85120  0.26650  Biso   1.000  C
  C45      1.0000 0.36000  0.64350  0.51400  Biso   1.000  C
  C46      1.0000 0.30170  0.73350  0.58470  Biso   1.000  C
  C47      1.0000 0.36000  0.48600  0.12950  Biso   1.000  C
  C48      1.0000 0.30170  0.41530  0.14880  Biso   1.000  C
  O1       1.0000 0.90760  0.55680  0.60740  Biso   1.000  O
  O2       1.0000 0.85730  0.41960  0.61320  Biso   1.000  O
  O3       1.0000 0.90760  0.05060  0.44320  Biso   1.000  O
  O4       1.0000 0.85730  0.19360  0.58040  Biso   1.000  O
  O5       1.0000 0.90760  0.39260  0.94940  Biso   1.000  O
  O6       1.0000 0.85730  0.38680  0.80640  Biso   1.000  O
  O7       1.0000 0.90760  0.44320  0.39260  Biso   1.000  O
  O8       1.0000 0.85730  0.58040  0.38680  Biso   1.000  O
  O9       1.0000 0.90760  0.94940  0.55680  Biso   1.000  O
  O10      1.0000 0.85730  0.80640  0.41960  Biso   1.000  O
  O11      1.0000 0.90760  0.60740  0.05060  Biso   1.000  O
  O12      1.0000 0.85730  0.61320  0.19360  Biso   1.000  O
  O13      1.0000 0.59240  0.94940  0.39260  Biso   1.000  O
  O14      1.0000 0.64270  0.80640  0.38680  Biso   1.000  O
  O15      1.0000 0.59240  0.60740  0.55680  Biso   1.000  O
  O16      1.0000 0.64270  0.61320  0.41960  Biso   1.000  O
  O17      1.0000 0.59240  0.44320  0.05060  Biso   1.000  O
  O18      1.0000 0.64270  0.58040  0.19360  Biso   1.000  O
  O19      1.0000 0.59240  0.05060  0.60740  Biso   1.000  O
  O20      1.0000 0.64270  0.19360  0.61320  Biso   1.000  O
  O21      1.0000 0.59240  0.39260  0.44320  Biso   1.000  O
  O22      1.0000 0.64270  0.38680  0.58040  Biso   1.000  O
  O23      1.0000 0.59240  0.55680  0.94940  Biso   1.000  O
  O24      1.0000 0.64270  0.41960  0.80640  Biso   1.000  O
  O25      1.0000 0.09240  0.44320  0.39260  Biso   1.000  O
  O26      1.0000 0.14270  0.58040  0.38680  Biso   1.000  O
  O27      1.0000 0.09240  0.94940  0.55680  Biso   1.000  O
  O28      1.0000 0.14270  0.80640  0.41960  Biso   1.000  O
  O29      1.0000 0.09240  0.60740  0.05060  Biso   1.000  O
  O30      1.0000 0.14270  0.61320  0.19360  Biso   1.000  O
  O31      1.0000 0.09240  0.55680  0.60740  Biso   1.000  O
  O32      1.0000 0.14270  0.41960  0.61320  Biso   1.000  O
  O33      1.0000 0.09240  0.05060  0.44320  Biso   1.000  O
  O34      1.0000 0.14270  0.19360  0.58040  Biso   1.000  O
  O35      1.0000 0.09240  0.39260  0.94940  Biso   1.000  O
  O36      1.0000 0.14270  0.38680  0.80640  Biso   1.000  O
  O37      1.0000 0.40760  0.05060  0.60740  Biso   1.000  O
  O38      1.0000 0.35730  0.19360  0.61320  Biso   1.000  O
  O39      1.0000 0.40760  0.39260  0.44320  Biso   1.000  O
  O40      1.0000 0.35730  0.38680  0.58040  Biso   1.000  O
  O41      1.0000 0.40760  0.55680  0.94940  Biso   1.000  O
  O42      1.0000 0.35730  0.41960  0.80640  Biso   1.000  O
  O43      1.0000 0.40760  0.94940  0.39260  Biso   1.000  O
  O44      1.0000 0.35730  0.80640  0.38680  Biso   1.000  O
  O45      1.0000 0.40760  0.60740  0.55680  Biso   1.000  O
  O46      1.0000 0.35730  0.61320  0.41960  Biso   1.000  O
  O47      1.0000 0.40760  0.44320  0.05060  Biso   1.000  O
  O48      1.0000 0.35730  0.58040  0.19360  Biso   1.000  O
  O49      1.0000 0.75000  0.52710  0.76355  Biso   1.000  O
  O50      1.0000 0.75000  0.23645  0.47290  Biso   1.000  O
  O51      1.0000 0.75000  0.23645  0.76355  Biso   1.000  O
  O52      1.0000 0.75000  0.47290  0.23645  Biso   1.000  O
  O53      1.0000 0.75000  0.76355  0.52710  Biso   1.000  O
  O54      1.0000 0.75000  0.76355  0.23645  Biso   1.000  O
  O55      1.0000 0.25000  0.47290  0.23645  Biso   1.000  O
  O56      1.0000 0.25000  0.76355  0.52710  Biso   1.000  O
  O57      1.0000 0.25000  0.76355  0.23645  Biso   1.000  O
  O58      1.0000 0.25000  0.52710  0.76355  Biso   1.000  O
  O59      1.0000 0.25000  0.23645  0.47290  Biso   1.000  O
  O60      1.0000 0.25000  0.23645  0.76355  Biso   1.000  O
