data_GERWOR_charged
_audit_creation_date              2014-07-02
_audit_creation_method            'Materials Studio'
_symmetry_space_group_name_H-M    'P1'
_symmetry_Int_Tables_number       1
_symmetry_cell_setting            triclinic
loop_
_symmetry_equiv_pos_as_xyz
  x,y,z
_cell_length_a                    14.9879
_cell_length_b                    14.9879
_cell_length_c                    26.1120
_cell_angle_alpha                 82.7315
_cell_angle_beta                  82.7315
_cell_angle_gamma                 78.7053
loop_
_atom_site_label
_atom_site_type_symbol
_atom_site_fract_x
_atom_site_fract_y
_atom_site_fract_z
_atom_site_U_iso_or_equiv
_atom_site_adp_type
_atom_site_occupancy
Cd1    Cd    0.25893   0.90494   0.58881   0.01267  Uiso   1.00
Cd2    Cd    0.09506   0.74107   0.91119   0.01267  Uiso   1.00
Cd3    Cd    0.74107   0.09506   0.41119   0.01267  Uiso   1.00
Cd4    Cd    0.90494   0.25893   0.08881   0.01267  Uiso   1.00
Cd5    Cd    0.35538   0.64462   0.25000   0.01267  Uiso   1.00
Cd6    Cd    0.64462   0.35538   0.75000   0.01267  Uiso   1.00
Si1    Si    0.24364   0.16499   0.31990   0.01267  Uiso   1.00
Si2    Si    0.83501   0.75636   0.18010   0.01267  Uiso   1.00
Si3    Si    0.75636   0.83501   0.68010   0.01267  Uiso   1.00
Si4    Si    0.16499   0.24364   0.81990   0.01267  Uiso   1.00
H1     H     0.32210   0.79850   0.40200   0.01267  Uiso   1.00
H2     H     0.25650   0.06430   0.42010   0.01267  Uiso   1.00
H3     H     0.28730   0.98310   0.27800   0.01267  Uiso   1.00
H4     H     0.92520   0.32060   0.43680   0.01267  Uiso   1.00
H5     H     0.18630   0.31970   0.38250   0.01267  Uiso   1.00
H6     H     0.05870   0.13010   0.34640   0.01267  Uiso   1.00
H7     H     0.42280   0.11620   0.36360   0.01267  Uiso   1.00
H8     H     0.28330   0.34770   0.29600   0.01267  Uiso   1.00
H9     H     0.52410   0.34690   0.34600   0.01267  Uiso   1.00
H10    H     0.36560   0.16420   0.22680   0.01267  Uiso   1.00
H11    H     0.09500   0.19920   0.24990   0.01267  Uiso   1.00
H12    H     0.21760   0.19960   0.10620   0.01267  Uiso   1.00
H13    H     0.20150   0.67790   0.09800   0.01267  Uiso   1.00
H14    H     0.93570   0.74350   0.07990   0.01267  Uiso   1.00
H15    H     0.01690   0.71270   0.22200   0.01267  Uiso   1.00
H16    H     0.67940   0.07480   0.06320   0.01267  Uiso   1.00
H17    H     0.68030   0.81370   0.11750   0.01267  Uiso   1.00
H18    H     0.86990   0.94130   0.15360   0.01267  Uiso   1.00
H19    H     0.88380   0.57720   0.13640   0.01267  Uiso   1.00
H20    H     0.65230   0.71670   0.20400   0.01267  Uiso   1.00
H21    H     0.65310   0.47590   0.15400   0.01267  Uiso   1.00
H22    H     0.83580   0.63440   0.27320   0.01267  Uiso   1.00
H23    H     0.80080   0.90500   0.25010   0.01267  Uiso   1.00
H24    H     0.80040   0.78240   0.39380   0.01267  Uiso   1.00
H25    H     0.67790   0.20150   0.59800   0.01267  Uiso   1.00
H26    H     0.74350   0.93570   0.57990   0.01267  Uiso   1.00
H27    H     0.71270   0.01690   0.72200   0.01267  Uiso   1.00
H28    H     0.07480   0.67940   0.56320   0.01267  Uiso   1.00
H29    H     0.81370   0.68030   0.61750   0.01267  Uiso   1.00
H30    H     0.94130   0.86990   0.65360   0.01267  Uiso   1.00
H31    H     0.57720   0.88380   0.63640   0.01267  Uiso   1.00
H32    H     0.71670   0.65230   0.70400   0.01267  Uiso   1.00
H33    H     0.47590   0.65310   0.65400   0.01267  Uiso   1.00
H34    H     0.63440   0.83580   0.77320   0.01267  Uiso   1.00
H35    H     0.90500   0.80080   0.75010   0.01267  Uiso   1.00
H36    H     0.78240   0.80040   0.89380   0.01267  Uiso   1.00
H37    H     0.79850   0.32210   0.90200   0.01267  Uiso   1.00
H38    H     0.06430   0.25650   0.92010   0.01267  Uiso   1.00
H39    H     0.98310   0.28730   0.77800   0.01267  Uiso   1.00
H40    H     0.32060   0.92520   0.93680   0.01267  Uiso   1.00
H41    H     0.31970   0.18630   0.88250   0.01267  Uiso   1.00
H42    H     0.13010   0.05870   0.84640   0.01267  Uiso   1.00
H43    H     0.11620   0.42280   0.86360   0.01267  Uiso   1.00
H44    H     0.34770   0.28330   0.79600   0.01267  Uiso   1.00
H45    H     0.34690   0.52410   0.84600   0.01267  Uiso   1.00
H46    H     0.16420   0.36560   0.72680   0.01267  Uiso   1.00
H47    H     0.19920   0.09500   0.74990   0.01267  Uiso   1.00
H48    H     0.19960   0.21760   0.60620   0.01267  Uiso   1.00
C1     C     0.32209   0.80253   0.30006   0.01267  Uiso   1.00
C2     C     0.30637   0.87887   0.33462   0.01267  Uiso   1.00
C3     C     0.30878   0.85906   0.38783   0.01267  Uiso   1.00
C4     C     0.29164   0.92826   0.41997   0.01267  Uiso   1.00
C5     C     0.27060   0.01780   0.39832   0.01267  Uiso   1.00
C6     C     0.26991   0.04079   0.34498   0.01267  Uiso   1.00
C7     C     0.28777   0.96963   0.31376   0.01267  Uiso   1.00
C8     C     0.29185   0.90629   0.47847   0.01267  Uiso   1.00
C9     C     0.89395   0.17611   0.39796   0.01267  Uiso   1.00
C10    C     0.97850   0.21912   0.39226   0.01267  Uiso   1.00
C11    C     0.97833   0.29481   0.41753   0.01267  Uiso   1.00
C12    C     0.05606   0.33282   0.41454   0.01267  Uiso   1.00
C13    C     0.13414   0.29390   0.38486   0.01267  Uiso   1.00
C14    C     0.13780   0.21784   0.35851   0.01267  Uiso   1.00
C15    C     0.05850   0.18134   0.36317   0.01267  Uiso   1.00
C16    C     0.05725   0.41183   0.44279   0.01267  Uiso   1.00
C17    C     0.57349   0.17295   0.37888   0.01267  Uiso   1.00
C18    C     0.48732   0.22404   0.35714   0.01267  Uiso   1.00
C19    C     0.41740   0.17796   0.35166   0.01267  Uiso   1.00
C20    C     0.33977   0.22267   0.32863   0.01267  Uiso   1.00
C21    C     0.33412   0.31648   0.31200   0.01267  Uiso   1.00
C22    C     0.40167   0.36349   0.31865   0.01267  Uiso   1.00
C23    C     0.47810   0.31590   0.34134   0.01267  Uiso   1.00
C24    C     0.39318   0.46478   0.30150   0.01267  Uiso   1.00
C25    C     0.39490   0.17852   0.12590   0.01267  Uiso   1.00
C26    C     0.30541   0.18203   0.16046   0.01267  Uiso   1.00
C27    C     0.30894   0.17338   0.21414   0.01267  Uiso   1.00
C28    C     0.23084   0.17792   0.24908   0.01267  Uiso   1.00
C29    C     0.14900   0.19370   0.22769   0.01267  Uiso   1.00
C30    C     0.14329   0.20189   0.17459   0.01267  Uiso   1.00
C31    C     0.22096   0.19526   0.14176   0.01267  Uiso   1.00
C32    C     0.05185   0.22005   0.15262   0.01267  Uiso   1.00
C33    C     0.19747   0.67791   0.19994   0.01267  Uiso   1.00
C34    C     0.12113   0.69363   0.16538   0.01267  Uiso   1.00
C35    C     0.14094   0.69122   0.11217   0.01267  Uiso   1.00
C36    C     0.07174   0.70836   0.08003   0.01267  Uiso   1.00
C37    C     0.98220   0.72940   0.10168   0.01267  Uiso   1.00
C38    C     0.95921   0.73009   0.15502   0.01267  Uiso   1.00
C39    C     0.03037   0.71223   0.18624   0.01267  Uiso   1.00
C40    C     0.09371   0.70815   0.02153   0.01267  Uiso   1.00
C41    C     0.82389   0.10605   0.10204   0.01267  Uiso   1.00
C42    C     0.78088   0.02150   0.10774   0.01267  Uiso   1.00
C43    C     0.70519   0.02167   0.08247   0.01267  Uiso   1.00
C44    C     0.66718   0.94394   0.08546   0.01267  Uiso   1.00
C45    C     0.70610   0.86586   0.11514   0.01267  Uiso   1.00
C46    C     0.78216   0.86220   0.14149   0.01267  Uiso   1.00
C47    C     0.81866   0.94150   0.13683   0.01267  Uiso   1.00
C48    C     0.58817   0.94275   0.05721   0.01267  Uiso   1.00
C49    C     0.82705   0.42651   0.12112   0.01267  Uiso   1.00
C50    C     0.77596   0.51268   0.14286   0.01267  Uiso   1.00
C51    C     0.82204   0.58260   0.14834   0.01267  Uiso   1.00
C52    C     0.77733   0.66023   0.17137   0.01267  Uiso   1.00
C53    C     0.68352   0.66588   0.18800   0.01267  Uiso   1.00
C54    C     0.63651   0.59833   0.18135   0.01267  Uiso   1.00
C55    C     0.68410   0.52190   0.15866   0.01267  Uiso   1.00
C56    C     0.53522   0.60682   0.19850   0.01267  Uiso   1.00
C57    C     0.82148   0.60510   0.37410   0.01267  Uiso   1.00
C58    C     0.81797   0.69459   0.33954   0.01267  Uiso   1.00
C59    C     0.82662   0.69106   0.28586   0.01267  Uiso   1.00
C60    C     0.82208   0.76916   0.25092   0.01267  Uiso   1.00
C61    C     0.80630   0.85100   0.27231   0.01267  Uiso   1.00
C62    C     0.79811   0.85671   0.32541   0.01267  Uiso   1.00
C63    C     0.80474   0.77904   0.35824   0.01267  Uiso   1.00
C64    C     0.77995   0.94815   0.34738   0.01267  Uiso   1.00
C65    C     0.67791   0.19747   0.69994   0.01267  Uiso   1.00
C66    C     0.69363   0.12113   0.66538   0.01267  Uiso   1.00
C67    C     0.69122   0.14094   0.61217   0.01267  Uiso   1.00
C68    C     0.70836   0.07174   0.58003   0.01267  Uiso   1.00
C69    C     0.72940   0.98220   0.60168   0.01267  Uiso   1.00
C70    C     0.73009   0.95921   0.65502   0.01267  Uiso   1.00
C71    C     0.71223   0.03037   0.68624   0.01267  Uiso   1.00
C72    C     0.70815   0.09371   0.52153   0.01267  Uiso   1.00
C73    C     0.10605   0.82389   0.60204   0.01267  Uiso   1.00
C74    C     0.02150   0.78088   0.60774   0.01267  Uiso   1.00
C75    C     0.02167   0.70519   0.58247   0.01267  Uiso   1.00
C76    C     0.94394   0.66718   0.58546   0.01267  Uiso   1.00
C77    C     0.86586   0.70610   0.61514   0.01267  Uiso   1.00
C78    C     0.86220   0.78216   0.64149   0.01267  Uiso   1.00
C79    C     0.94150   0.81866   0.63683   0.01267  Uiso   1.00
C80    C     0.94275   0.58817   0.55721   0.01267  Uiso   1.00
C81    C     0.42651   0.82705   0.62112   0.01267  Uiso   1.00
C82    C     0.51268   0.77596   0.64286   0.01267  Uiso   1.00
C83    C     0.58260   0.82204   0.64834   0.01267  Uiso   1.00
C84    C     0.66023   0.77733   0.67137   0.01267  Uiso   1.00
C85    C     0.66588   0.68352   0.68800   0.01267  Uiso   1.00
C86    C     0.59833   0.63651   0.68135   0.01267  Uiso   1.00
C87    C     0.52190   0.68410   0.65866   0.01267  Uiso   1.00
C88    C     0.60682   0.53522   0.69850   0.01267  Uiso   1.00
C89    C     0.60510   0.82148   0.87410   0.01267  Uiso   1.00
C90    C     0.69459   0.81797   0.83954   0.01267  Uiso   1.00
C91    C     0.69106   0.82662   0.78586   0.01267  Uiso   1.00
C92    C     0.76916   0.82208   0.75092   0.01267  Uiso   1.00
C93    C     0.85100   0.80630   0.77231   0.01267  Uiso   1.00
C94    C     0.85671   0.79811   0.82541   0.01267  Uiso   1.00
C95    C     0.77904   0.80474   0.85824   0.01267  Uiso   1.00
C96    C     0.94815   0.77995   0.84738   0.01267  Uiso   1.00
C97    C     0.80253   0.32209   0.80006   0.01267  Uiso   1.00
C98    C     0.87887   0.30637   0.83462   0.01267  Uiso   1.00
C99    C     0.85906   0.30878   0.88783   0.01267  Uiso   1.00
C100   C     0.92826   0.29164   0.91997   0.01267  Uiso   1.00
C101   C     0.01780   0.27060   0.89832   0.01267  Uiso   1.00
C102   C     0.04079   0.26991   0.84498   0.01267  Uiso   1.00
C103   C     0.96963   0.28777   0.81376   0.01267  Uiso   1.00
C104   C     0.90629   0.29185   0.97847   0.01267  Uiso   1.00
C105   C     0.17611   0.89395   0.89796   0.01267  Uiso   1.00
C106   C     0.21912   0.97850   0.89226   0.01267  Uiso   1.00
C107   C     0.29481   0.97833   0.91753   0.01267  Uiso   1.00
C108   C     0.33282   0.05606   0.91454   0.01267  Uiso   1.00
C109   C     0.29390   0.13414   0.88486   0.01267  Uiso   1.00
C110   C     0.21784   0.13780   0.85851   0.01267  Uiso   1.00
C111   C     0.18134   0.05850   0.86317   0.01267  Uiso   1.00
C112   C     0.41183   0.05725   0.94279   0.01267  Uiso   1.00
C113   C     0.17295   0.57349   0.87888   0.01267  Uiso   1.00
C114   C     0.22404   0.48732   0.85714   0.01267  Uiso   1.00
C115   C     0.17796   0.41740   0.85166   0.01267  Uiso   1.00
C116   C     0.22267   0.33977   0.82863   0.01267  Uiso   1.00
C117   C     0.31648   0.33412   0.81200   0.01267  Uiso   1.00
C118   C     0.36349   0.40167   0.81865   0.01267  Uiso   1.00
C119   C     0.31590   0.47810   0.84134   0.01267  Uiso   1.00
C120   C     0.46478   0.39318   0.80150   0.01267  Uiso   1.00
C121   C     0.17852   0.39490   0.62590   0.01267  Uiso   1.00
C122   C     0.18203   0.30541   0.66046   0.01267  Uiso   1.00
C123   C     0.17338   0.30894   0.71414   0.01267  Uiso   1.00
C124   C     0.17792   0.23084   0.74908   0.01267  Uiso   1.00
C125   C     0.19370   0.14900   0.72769   0.01267  Uiso   1.00
C126   C     0.20189   0.14329   0.67459   0.01267  Uiso   1.00
C127   C     0.19526   0.22096   0.64176   0.01267  Uiso   1.00
C128   C     0.22005   0.05185   0.65262   0.01267  Uiso   1.00
O1     O     0.32022   0.82108   0.25276   0.01267  Uiso   1.00
O2     O     0.33853   0.72207   0.32110   0.01267  Uiso   1.00
O3     O     0.32541   0.83053   0.49614   0.01267  Uiso   1.00
O4     O     0.26033   0.96667   0.50589   0.01267  Uiso   1.00
O5     O     0.89935   0.10017   0.38768   0.01267  Uiso   1.00
O6     O     0.82230   0.21726   0.41238   0.01267  Uiso   1.00
O7     O     0.12573   0.44651   0.43749   0.01267  Uiso   1.00
O8     O     0.98825   0.43921   0.47306   0.01267  Uiso   1.00
O9     O     0.32905   0.50149   0.27525   0.01267  Uiso   1.00
O10    O     0.45004   0.50708   0.31367   0.01267  Uiso   1.00
O11    O     0.64296   0.20784   0.37086   0.01267  Uiso   1.00
O12    O     0.57403   0.09679   0.40361   0.01267  Uiso   1.00
O13    O     0.46906   0.16098   0.14283   0.01267  Uiso   1.00
O14    O     0.38218   0.19686   0.07721   0.01267  Uiso   1.00
O15    O     0.05344   0.22654   0.10424   0.01267  Uiso   1.00
O16    O     0.97991   0.22763   0.18274   0.01267  Uiso   1.00
O17    O     0.17892   0.67978   0.24724   0.01267  Uiso   1.00
O18    O     0.27793   0.66147   0.17890   0.01267  Uiso   1.00
O19    O     0.16947   0.67459   0.00386   0.01267  Uiso   1.00
O20    O     0.03333   0.73967   0.99411   0.01267  Uiso   1.00
O21    O     0.89983   0.10065   0.11232   0.01267  Uiso   1.00
O22    O     0.78274   0.17770   0.08762   0.01267  Uiso   1.00
O23    O     0.55349   0.87427   0.06251   0.01267  Uiso   1.00
O24    O     0.56079   0.01175   0.02694   0.01267  Uiso   1.00
O25    O     0.49851   0.67095   0.22475   0.01267  Uiso   1.00
O26    O     0.49292   0.54996   0.18633   0.01267  Uiso   1.00
O27    O     0.79216   0.35704   0.12914   0.01267  Uiso   1.00
O28    O     0.90321   0.42597   0.09639   0.01267  Uiso   1.00
O29    O     0.83902   0.53094   0.35717   0.01267  Uiso   1.00
O30    O     0.80314   0.61782   0.42279   0.01267  Uiso   1.00
O31    O     0.77346   0.94656   0.39576   0.01267  Uiso   1.00
O32    O     0.77237   0.02009   0.31726   0.01267  Uiso   1.00
O33    O     0.67978   0.17892   0.74724   0.01267  Uiso   1.00
O34    O     0.66147   0.27793   0.67890   0.01267  Uiso   1.00
O35    O     0.67459   0.16947   0.50386   0.01267  Uiso   1.00
O36    O     0.73967   0.03333   0.49411   0.01267  Uiso   1.00
O37    O     0.10065   0.89983   0.61232   0.01267  Uiso   1.00
O38    O     0.17770   0.78274   0.58762   0.01267  Uiso   1.00
O39    O     0.87427   0.55349   0.56251   0.01267  Uiso   1.00
O40    O     0.01175   0.56079   0.52694   0.01267  Uiso   1.00
O41    O     0.67095   0.49851   0.72475   0.01267  Uiso   1.00
O42    O     0.54996   0.49292   0.68633   0.01267  Uiso   1.00
O43    O     0.35704   0.79216   0.62914   0.01267  Uiso   1.00
O44    O     0.42597   0.90321   0.59639   0.01267  Uiso   1.00
O45    O     0.53094   0.83902   0.85717   0.01267  Uiso   1.00
O46    O     0.61782   0.80314   0.92279   0.01267  Uiso   1.00
O47    O     0.94656   0.77346   0.89576   0.01267  Uiso   1.00
O48    O     0.02009   0.77237   0.81726   0.01267  Uiso   1.00
O49    O     0.82108   0.32022   0.75276   0.01267  Uiso   1.00
O50    O     0.72207   0.33853   0.82110   0.01267  Uiso   1.00
O51    O     0.83053   0.32541   0.99614   0.01267  Uiso   1.00
O52    O     0.96667   0.26033   0.00589   0.01267  Uiso   1.00
O53    O     0.10017   0.89935   0.88768   0.01267  Uiso   1.00
O54    O     0.21726   0.82230   0.91238   0.01267  Uiso   1.00
O55    O     0.44651   0.12573   0.93749   0.01267  Uiso   1.00
O56    O     0.43921   0.98825   0.97306   0.01267  Uiso   1.00
O57    O     0.50149   0.32905   0.77525   0.01267  Uiso   1.00
O58    O     0.50708   0.45004   0.81367   0.01267  Uiso   1.00
O59    O     0.20784   0.64296   0.87086   0.01267  Uiso   1.00
O60    O     0.09679   0.57403   0.90361   0.01267  Uiso   1.00
O61    O     0.16098   0.46906   0.64283   0.01267  Uiso   1.00
O62    O     0.19686   0.38218   0.57721   0.01267  Uiso   1.00
O63    O     0.22654   0.05344   0.60424   0.01267  Uiso   1.00
O64    O     0.22763   0.97991   0.68274   0.01267  Uiso   1.00
H49    H     0.41360   0.35100   0.20000   0.01267  Uiso   1.00
H50    H     0.48780   0.38460   0.15810   0.01267  Uiso   1.00
H51    H     0.42020   0.32740   0.14260   0.01267  Uiso   1.00
H52    H     0.34200   0.57720   0.09980   0.01267  Uiso   1.00
H53    H     0.37450   0.48730   0.07260   0.01267  Uiso   1.00
H54    H     0.44380   0.52620   0.09980   0.01267  Uiso   1.00
H55    H     0.30200   0.44940   0.14890   0.01267  Uiso   1.00
H56    H     0.35120   0.49920   0.17640   0.01267  Uiso   1.00
C129   C     0.42640   0.37280   0.16410   0.01267  Uiso   1.00
C130   C     0.38140   0.51840   0.10140   0.01267  Uiso   1.00
N1     N     0.35704   0.46384   0.15033   0.01267  Uiso   1.00
H57    H     0.49970   0.85630   0.23500   0.01267  Uiso   1.00
H58    H     0.57830   0.90610   0.20750   0.01267  Uiso   1.00
H59    H     0.47940   0.96220   0.21930   0.01267  Uiso   1.00
H60    H     0.60430   0.05150   0.27610   0.01267  Uiso   1.00
H61    H     0.52660   0.05280   0.24100   0.01267  Uiso   1.00
H62    H     0.62540   0.99900   0.22650   0.01267  Uiso   1.00
H63    H     0.60230   0.87330   0.30560   0.01267  Uiso   1.00
H64    H     0.50750   0.92430   0.32080   0.01267  Uiso   1.00
C131   C     0.52415   0.91155   0.23169   0.01267  Uiso   1.00
C132   C     0.58026   0.01646   0.25464   0.01267  Uiso   1.00
N2     N     0.55415   0.91509   0.29555   0.01267  Uiso   1.00
H65    H     0.85730   0.86290   0.46350   0.01267  Uiso   1.00
H66    H     0.89950   0.90390   0.50510   0.01267  Uiso   1.00
H67    H     0.94190   0.80570   0.48960   0.01267  Uiso   1.00
H68    H     0.06460   0.98020   0.44360   0.01267  Uiso   1.00
H69    H     0.06240   0.89400   0.48430   0.01267  Uiso   1.00
H70    H     0.98360   0.97960   0.48790   0.01267  Uiso   1.00
H71    H     0.01420   0.86440   0.41530   0.01267  Uiso   1.00
H72    H     0.94770   0.95090   0.41180   0.01267  Uiso   1.00
H73    H     0.14270   0.13710   0.53650   0.01267  Uiso   1.00
H74    H     0.10050   0.09610   0.49490   0.01267  Uiso   1.00
H75    H     0.05810   0.19430   0.51040   0.01267  Uiso   1.00
H76    H     0.93540   0.01980   0.55640   0.01267  Uiso   1.00
H77    H     0.93760   0.10600   0.51570   0.01267  Uiso   1.00
H78    H     0.01640   0.02040   0.51210   0.01267  Uiso   1.00
H79    H     0.98580   0.13560   0.58470   0.01267  Uiso   1.00
H80    H     0.05230   0.04910   0.58820   0.01267  Uiso   1.00
C133   C     0.91300   0.86600   0.47710   0.01267  Uiso   1.00
C134   C     0.02570   0.94290   0.46460   0.01267  Uiso   1.00
C135   C     0.08700   0.13400   0.52290   0.01267  Uiso   1.00
C136   C     0.97430   0.05710   0.53540   0.01267  Uiso   1.00
N3     N     0.97820   0.90740   0.43350   0.01267  Uiso   1.00
N4     N     0.02180   0.09260   0.56650   0.01267  Uiso   1.00
H81    H     0.64900   0.58640   0.30000   0.01267  Uiso   1.00
H82    H     0.61540   0.51220   0.34190   0.01267  Uiso   1.00
H83    H     0.67260   0.57980   0.35740   0.01267  Uiso   1.00
H84    H     0.42280   0.65800   0.40020   0.01267  Uiso   1.00
H85    H     0.51270   0.62550   0.42740   0.01267  Uiso   1.00
H86    H     0.47380   0.55620   0.40020   0.01267  Uiso   1.00
H87    H     0.55060   0.69800   0.35110   0.01267  Uiso   1.00
H88    H     0.50080   0.64880   0.32360   0.01267  Uiso   1.00
C137   C     0.62720   0.57360   0.33590   0.01267  Uiso   1.00
C138   C     0.48160   0.61860   0.39860   0.01267  Uiso   1.00
N5     N     0.53616   0.64296   0.34967   0.01267  Uiso   1.00
H89    H     0.14370   0.50030   0.26500   0.01267  Uiso   1.00
H90    H     0.09390   0.42170   0.29250   0.01267  Uiso   1.00
H91    H     0.03780   0.52060   0.28070   0.01267  Uiso   1.00
H92    H     0.94850   0.39570   0.22390   0.01267  Uiso   1.00
H93    H     0.94720   0.47340   0.25900   0.01267  Uiso   1.00
H94    H     0.00100   0.37460   0.27350   0.01267  Uiso   1.00
H95    H     0.12670   0.39770   0.19440   0.01267  Uiso   1.00
H96    H     0.07570   0.49250   0.17920   0.01267  Uiso   1.00
C139   C     0.08845   0.47585   0.26831   0.01267  Uiso   1.00
C140   C     0.98354   0.41974   0.24536   0.01267  Uiso   1.00
N6     N     0.08491   0.44585   0.20445   0.01267  Uiso   1.00
H97    H     0.13710   0.14270   0.03650   0.01267  Uiso   1.00
H98    H     0.09610   0.10050   0.99490   0.01267  Uiso   1.00
H99    H     0.19430   0.05810   0.01040   0.01267  Uiso   1.00
H100   H     0.01980   0.93540   0.05640   0.01267  Uiso   1.00
H101   H     0.10600   0.93760   0.01570   0.01267  Uiso   1.00
H102   H     0.02040   0.01640   0.01210   0.01267  Uiso   1.00
H103   H     0.13560   0.98580   0.08470   0.01267  Uiso   1.00
H104   H     0.04910   0.05230   0.08820   0.01267  Uiso   1.00
H105   H     0.86290   0.85730   0.96350   0.01267  Uiso   1.00
H106   H     0.90390   0.89950   0.00510   0.01267  Uiso   1.00
H107   H     0.80570   0.94190   0.98960   0.01267  Uiso   1.00
H108   H     0.98020   0.06460   0.94360   0.01267  Uiso   1.00
H109   H     0.89400   0.06240   0.98430   0.01267  Uiso   1.00
H110   H     0.97960   0.98360   0.98790   0.01267  Uiso   1.00
H111   H     0.86440   0.01420   0.91530   0.01267  Uiso   1.00
H112   H     0.95090   0.94770   0.91180   0.01267  Uiso   1.00
C141   C     0.13400   0.08700   0.02290   0.01267  Uiso   1.00
C142   C     0.05710   0.97430   0.03540   0.01267  Uiso   1.00
C143   C     0.86600   0.91300   0.97710   0.01267  Uiso   1.00
C144   C     0.94290   0.02570   0.96460   0.01267  Uiso   1.00
N7     N     0.09260   0.02180   0.06650   0.01267  Uiso   1.00
N8     N     0.90740   0.97820   0.93350   0.01267  Uiso   1.00
H113   H     0.58640   0.64900   0.80000   0.01267  Uiso   1.00
H114   H     0.51220   0.61540   0.84190   0.01267  Uiso   1.00
H115   H     0.57980   0.67260   0.85740   0.01267  Uiso   1.00
H116   H     0.65800   0.42280   0.90020   0.01267  Uiso   1.00
H117   H     0.62550   0.51270   0.92740   0.01267  Uiso   1.00
H118   H     0.55620   0.47380   0.90020   0.01267  Uiso   1.00
H119   H     0.69800   0.55060   0.85110   0.01267  Uiso   1.00
H120   H     0.64880   0.50080   0.82360   0.01267  Uiso   1.00
C145   C     0.57360   0.62720   0.83590   0.01267  Uiso   1.00
C146   C     0.61860   0.48160   0.89860   0.01267  Uiso   1.00
N9     N     0.64296   0.53616   0.84967   0.01267  Uiso   1.00
H121   H     0.50030   0.14370   0.76500   0.01267  Uiso   1.00
H122   H     0.42170   0.09390   0.79250   0.01267  Uiso   1.00
H123   H     0.52060   0.03780   0.78070   0.01267  Uiso   1.00
H124   H     0.39570   0.94850   0.72390   0.01267  Uiso   1.00
H125   H     0.47340   0.94720   0.75900   0.01267  Uiso   1.00
H126   H     0.37460   0.00100   0.77350   0.01267  Uiso   1.00
H127   H     0.39770   0.12670   0.69440   0.01267  Uiso   1.00
H128   H     0.49250   0.07570   0.67920   0.01267  Uiso   1.00
C147   C     0.47585   0.08845   0.76831   0.01267  Uiso   1.00
C148   C     0.41974   0.98354   0.74536   0.01267  Uiso   1.00
N10    N     0.44585   0.08491   0.70445   0.01267  Uiso   1.00
H129   H     0.35100   0.41360   0.70000   0.01267  Uiso   1.00
H130   H     0.38460   0.48780   0.65810   0.01267  Uiso   1.00
H131   H     0.32740   0.42020   0.64260   0.01267  Uiso   1.00
H132   H     0.57720   0.34200   0.59980   0.01267  Uiso   1.00
H133   H     0.48730   0.37450   0.57260   0.01267  Uiso   1.00
H134   H     0.52620   0.44380   0.59980   0.01267  Uiso   1.00
H135   H     0.44940   0.30200   0.64890   0.01267  Uiso   1.00
H136   H     0.49920   0.35120   0.67640   0.01267  Uiso   1.00
C149   C     0.37280   0.42640   0.66410   0.01267  Uiso   1.00
C150   C     0.51840   0.38140   0.60140   0.01267  Uiso   1.00
N11    N     0.46384   0.35704   0.65033   0.01267  Uiso   1.00
H137   H     0.85630   0.49970   0.73500   0.01267  Uiso   1.00
H138   H     0.90610   0.57830   0.70750   0.01267  Uiso   1.00
H139   H     0.96220   0.47940   0.71930   0.01267  Uiso   1.00
H140   H     0.05150   0.60430   0.77610   0.01267  Uiso   1.00
H141   H     0.05280   0.52660   0.74100   0.01267  Uiso   1.00
H142   H     0.99900   0.62540   0.72650   0.01267  Uiso   1.00
H143   H     0.87330   0.60230   0.80560   0.01267  Uiso   1.00
H144   H     0.92430   0.50750   0.82080   0.01267  Uiso   1.00
C151   C     0.91155   0.52415   0.73169   0.01267  Uiso   1.00
C152   C     0.01646   0.58026   0.75464   0.01267  Uiso   1.00
N12    N     0.91509   0.55415   0.79555   0.01267  Uiso   1.00
