data_GERWIL_charged
_audit_creation_date              2014-07-02
_audit_creation_method            'Materials Studio'
_symmetry_space_group_name_H-M    'P1'
_symmetry_Int_Tables_number       1
_symmetry_cell_setting            triclinic
loop_
_symmetry_equiv_pos_as_xyz
  x,y,z
_cell_length_a                    14.8600
_cell_length_b                    14.8600
_cell_length_c                    25.4830
_cell_angle_alpha                 80.8519
_cell_angle_beta                  80.8519
_cell_angle_gamma                 77.5623
loop_
_atom_site_label
_atom_site_type_symbol
_atom_site_fract_x
_atom_site_fract_y
_atom_site_fract_z
_atom_site_U_iso_or_equiv
_atom_site_adp_type
_atom_site_occupancy
Zn1    Zn    0.26593   0.91067   0.07913   0.01267  Uiso   1.00
Zn2    Zn    0.12691   0.47841   0.00712   0.01267  Uiso   1.00
Zn3    Zn    0.08933   0.73407   0.42087   0.01267  Uiso   1.00
Zn4    Zn    0.52159   0.87309   0.49288   0.01267  Uiso   1.00
Zn5    Zn    0.73407   0.08933   0.92087   0.01267  Uiso   1.00
Zn6    Zn    0.87309   0.52159   0.99288   0.01267  Uiso   1.00
Zn7    Zn    0.91067   0.26593   0.57913   0.01267  Uiso   1.00
Zn8    Zn    0.47841   0.12691   0.50712   0.01267  Uiso   1.00
Zn9    Zn    0.36275   0.63725   0.75000   0.01267  Uiso   1.00
Zn10   Zn    0.63725   0.36275   0.25000   0.01267  Uiso   1.00
Si1    Si    0.24772   0.16608   0.81216   0.01267  Uiso   1.00
Si2    Si    0.83392   0.75228   0.68784   0.01267  Uiso   1.00
Si3    Si    0.75228   0.83392   0.18784   0.01267  Uiso   1.00
Si4    Si    0.16608   0.24772   0.31216   0.01267  Uiso   1.00
H1     H     0.26820   0.05500   0.91500   0.01267  Uiso   1.00
H2     H     0.28760   0.98620   0.76650   0.01267  Uiso   1.00
H3     H     0.33770   0.78770   0.89050   0.01267  Uiso   1.00
H4     H     0.17370   0.31410   0.88330   0.01267  Uiso   1.00
H5     H     0.06970   0.11650   0.83690   0.01267  Uiso   1.00
H6     H     0.91180   0.28220   0.93890   0.01267  Uiso   1.00
H7     H     0.52720   0.33140   0.85630   0.01267  Uiso   1.00
H8     H     0.29430   0.35330   0.79200   0.01267  Uiso   1.00
H9     H     0.41680   0.10740   0.86160   0.01267  Uiso   1.00
H10    H     0.20670   0.18550   0.59560   0.01267  Uiso   1.00
H11    H     0.09210   0.21390   0.74730   0.01267  Uiso   1.00
H12    H     0.36830   0.15250   0.71100   0.01267  Uiso   1.00
H13    H     0.94500   0.73180   0.58500   0.01267  Uiso   1.00
H14    H     0.01380   0.71240   0.73350   0.01267  Uiso   1.00
H15    H     0.21230   0.66230   0.60950   0.01267  Uiso   1.00
H16    H     0.68590   0.82630   0.61670   0.01267  Uiso   1.00
H17    H     0.88350   0.93030   0.66310   0.01267  Uiso   1.00
H18    H     0.71780   0.08820   0.56110   0.01267  Uiso   1.00
H19    H     0.66860   0.47280   0.64370   0.01267  Uiso   1.00
H20    H     0.64670   0.70570   0.70800   0.01267  Uiso   1.00
H21    H     0.89260   0.58320   0.63840   0.01267  Uiso   1.00
H22    H     0.81450   0.79330   0.90440   0.01267  Uiso   1.00
H23    H     0.78610   0.90790   0.75270   0.01267  Uiso   1.00
H24    H     0.84750   0.63170   0.78900   0.01267  Uiso   1.00
H25    H     0.73180   0.94500   0.08500   0.01267  Uiso   1.00
H26    H     0.71240   0.01380   0.23350   0.01267  Uiso   1.00
H27    H     0.66230   0.21230   0.10950   0.01267  Uiso   1.00
H28    H     0.82630   0.68590   0.11670   0.01267  Uiso   1.00
H29    H     0.93030   0.88350   0.16310   0.01267  Uiso   1.00
H30    H     0.08820   0.71780   0.06110   0.01267  Uiso   1.00
H31    H     0.47280   0.66860   0.14370   0.01267  Uiso   1.00
H32    H     0.70570   0.64670   0.20800   0.01267  Uiso   1.00
H33    H     0.58320   0.89260   0.13840   0.01267  Uiso   1.00
H34    H     0.79330   0.81450   0.40440   0.01267  Uiso   1.00
H35    H     0.90790   0.78610   0.25270   0.01267  Uiso   1.00
H36    H     0.63170   0.84750   0.28900   0.01267  Uiso   1.00
H37    H     0.05500   0.26820   0.41500   0.01267  Uiso   1.00
H38    H     0.98620   0.28760   0.26650   0.01267  Uiso   1.00
H39    H     0.78770   0.33770   0.39050   0.01267  Uiso   1.00
H40    H     0.31410   0.17370   0.38330   0.01267  Uiso   1.00
H41    H     0.11650   0.06970   0.33690   0.01267  Uiso   1.00
H42    H     0.28220   0.91180   0.43890   0.01267  Uiso   1.00
H43    H     0.33140   0.52720   0.35630   0.01267  Uiso   1.00
H44    H     0.35330   0.29430   0.29200   0.01267  Uiso   1.00
H45    H     0.10740   0.41680   0.36160   0.01267  Uiso   1.00
H46    H     0.18550   0.20670   0.09560   0.01267  Uiso   1.00
H47    H     0.21390   0.09210   0.24730   0.01267  Uiso   1.00
H48    H     0.15250   0.36830   0.21100   0.01267  Uiso   1.00
C1     C     0.31180   0.88880   0.97030   0.01267  Uiso   1.00
C2     C     0.30570   0.91690   0.91199   0.01267  Uiso   1.00
C3     C     0.28135   0.01035   0.89170   0.01267  Uiso   1.00
C4     C     0.27622   0.03882   0.83621   0.01267  Uiso   1.00
C5     C     0.29182   0.96962   0.80292   0.01267  Uiso   1.00
C6     C     0.31355   0.87595   0.82346   0.01267  Uiso   1.00
C7     C     0.32149   0.85029   0.87730   0.01267  Uiso   1.00
C8     C     0.32685   0.80405   0.78540   0.01267  Uiso   1.00
C9     C     0.03150   0.38610   0.95010   0.01267  Uiso   1.00
C10    C     0.04180   0.31100   0.91659   0.01267  Uiso   1.00
C11    C     0.12497   0.28337   0.88454   0.01267  Uiso   1.00
C12    C     0.13678   0.21118   0.85449   0.01267  Uiso   1.00
C13    C     0.06250   0.16550   0.85682   0.01267  Uiso   1.00
C14    C     0.97910   0.19190   0.88810   0.01267  Uiso   1.00
C15    C     0.96800   0.26420   0.91790   0.01267  Uiso   1.00
C16    C     0.90130   0.13670   0.88980   0.01267  Uiso   1.00
C17    C     0.55910   0.15150   0.89390   0.01267  Uiso   1.00
C18    C     0.48453   0.20993   0.86320   0.01267  Uiso   1.00
C19    C     0.48110   0.30410   0.84840   0.01267  Uiso   1.00
C20    C     0.40982   0.35762   0.82202   0.01267  Uiso   1.00
C21    C     0.34196   0.31676   0.81003   0.01267  Uiso   1.00
C22    C     0.34288   0.22208   0.82424   0.01267  Uiso   1.00
C23    C     0.41503   0.17063   0.85124   0.01267  Uiso   1.00
C24    C     0.40780   0.46080   0.80760   0.01267  Uiso   1.00
C25    C     0.38660   0.14740   0.60710   0.01267  Uiso   1.00
C26    C     0.30080   0.16600   0.64713   0.01267  Uiso   1.00
C27    C     0.21330   0.18570   0.63130   0.01267  Uiso   1.00
C28    C     0.13420   0.20600   0.66871   0.01267  Uiso   1.00
C29    C     0.14478   0.20258   0.72234   0.01267  Uiso   1.00
C30    C     0.23344   0.18224   0.73980   0.01267  Uiso   1.00
C31    C     0.30900   0.16520   0.70082   0.01267  Uiso   1.00
C32    C     0.03890   0.23110   0.65150   0.01267  Uiso   1.00
C33    C     0.11120   0.68820   0.52970   0.01267  Uiso   1.00
C34    C     0.08310   0.69430   0.58801   0.01267  Uiso   1.00
C35    C     0.98965   0.71865   0.60830   0.01267  Uiso   1.00
C36    C     0.96118   0.72378   0.66379   0.01267  Uiso   1.00
C37    C     0.03038   0.70818   0.69708   0.01267  Uiso   1.00
C38    C     0.12405   0.68645   0.67654   0.01267  Uiso   1.00
C39    C     0.14971   0.67851   0.62270   0.01267  Uiso   1.00
C40    C     0.19595   0.67315   0.71460   0.01267  Uiso   1.00
C41    C     0.61390   0.96850   0.54990   0.01267  Uiso   1.00
C42    C     0.68900   0.95820   0.58341   0.01267  Uiso   1.00
C43    C     0.71663   0.87503   0.61546   0.01267  Uiso   1.00
C44    C     0.78882   0.86322   0.64551   0.01267  Uiso   1.00
C45    C     0.83450   0.93750   0.64318   0.01267  Uiso   1.00
C46    C     0.80810   0.02090   0.61190   0.01267  Uiso   1.00
C47    C     0.73580   0.03200   0.58210   0.01267  Uiso   1.00
C48    C     0.86330   0.09870   0.61020   0.01267  Uiso   1.00
C49    C     0.84850   0.44090   0.60610   0.01267  Uiso   1.00
C50    C     0.79007   0.51547   0.63680   0.01267  Uiso   1.00
C51    C     0.69590   0.51890   0.65160   0.01267  Uiso   1.00
C52    C     0.64238   0.59018   0.67798   0.01267  Uiso   1.00
C53    C     0.68324   0.65804   0.68997   0.01267  Uiso   1.00
C54    C     0.77792   0.65712   0.67576   0.01267  Uiso   1.00
C55    C     0.82937   0.58497   0.64876   0.01267  Uiso   1.00
C56    C     0.53920   0.59220   0.69240   0.01267  Uiso   1.00
C57    C     0.85260   0.61340   0.89290   0.01267  Uiso   1.00
C58    C     0.83400   0.69920   0.85287   0.01267  Uiso   1.00
C59    C     0.81430   0.78670   0.86870   0.01267  Uiso   1.00
C60    C     0.79400   0.86580   0.83129   0.01267  Uiso   1.00
C61    C     0.79742   0.85522   0.77766   0.01267  Uiso   1.00
C62    C     0.81776   0.76656   0.76020   0.01267  Uiso   1.00
C63    C     0.83480   0.69100   0.79918   0.01267  Uiso   1.00
C64    C     0.76890   0.96110   0.84850   0.01267  Uiso   1.00
C65    C     0.68820   0.11120   0.02970   0.01267  Uiso   1.00
C66    C     0.69430   0.08310   0.08801   0.01267  Uiso   1.00
C67    C     0.71865   0.98965   0.10830   0.01267  Uiso   1.00
C68    C     0.72378   0.96118   0.16379   0.01267  Uiso   1.00
C69    C     0.70818   0.03038   0.19708   0.01267  Uiso   1.00
C70    C     0.68645   0.12405   0.17654   0.01267  Uiso   1.00
C71    C     0.67851   0.14971   0.12270   0.01267  Uiso   1.00
C72    C     0.67315   0.19595   0.21460   0.01267  Uiso   1.00
C73    C     0.96850   0.61390   0.04990   0.01267  Uiso   1.00
C74    C     0.95820   0.68900   0.08341   0.01267  Uiso   1.00
C75    C     0.87503   0.71663   0.11546   0.01267  Uiso   1.00
C76    C     0.86322   0.78882   0.14551   0.01267  Uiso   1.00
C77    C     0.93750   0.83450   0.14318   0.01267  Uiso   1.00
C78    C     0.02090   0.80810   0.11190   0.01267  Uiso   1.00
C79    C     0.03200   0.73580   0.08210   0.01267  Uiso   1.00
C80    C     0.09870   0.86330   0.11020   0.01267  Uiso   1.00
C81    C     0.44090   0.84850   0.10610   0.01267  Uiso   1.00
C82    C     0.51547   0.79007   0.13680   0.01267  Uiso   1.00
C83    C     0.51890   0.69590   0.15160   0.01267  Uiso   1.00
C84    C     0.59018   0.64238   0.17798   0.01267  Uiso   1.00
C85    C     0.65804   0.68324   0.18997   0.01267  Uiso   1.00
C86    C     0.65712   0.77792   0.17576   0.01267  Uiso   1.00
C87    C     0.58497   0.82937   0.14876   0.01267  Uiso   1.00
C88    C     0.59220   0.53920   0.19240   0.01267  Uiso   1.00
C89    C     0.61340   0.85260   0.39290   0.01267  Uiso   1.00
C90    C     0.69920   0.83400   0.35287   0.01267  Uiso   1.00
C91    C     0.78670   0.81430   0.36870   0.01267  Uiso   1.00
C92    C     0.86580   0.79400   0.33129   0.01267  Uiso   1.00
C93    C     0.85522   0.79742   0.27766   0.01267  Uiso   1.00
C94    C     0.76656   0.81776   0.26020   0.01267  Uiso   1.00
C95    C     0.69100   0.83480   0.29918   0.01267  Uiso   1.00
C96    C     0.96110   0.76890   0.34850   0.01267  Uiso   1.00
C97    C     0.88880   0.31180   0.47030   0.01267  Uiso   1.00
C98    C     0.91690   0.30570   0.41199   0.01267  Uiso   1.00
C99    C     0.01035   0.28135   0.39170   0.01267  Uiso   1.00
C100   C     0.03882   0.27622   0.33621   0.01267  Uiso   1.00
C101   C     0.96962   0.29182   0.30292   0.01267  Uiso   1.00
C102   C     0.87595   0.31355   0.32346   0.01267  Uiso   1.00
C103   C     0.85029   0.32149   0.37730   0.01267  Uiso   1.00
C104   C     0.80405   0.32685   0.28540   0.01267  Uiso   1.00
C105   C     0.38610   0.03150   0.45010   0.01267  Uiso   1.00
C106   C     0.31100   0.04180   0.41659   0.01267  Uiso   1.00
C107   C     0.28337   0.12497   0.38454   0.01267  Uiso   1.00
C108   C     0.21118   0.13678   0.35449   0.01267  Uiso   1.00
C109   C     0.16550   0.06250   0.35682   0.01267  Uiso   1.00
C110   C     0.19190   0.97910   0.38810   0.01267  Uiso   1.00
C111   C     0.26420   0.96800   0.41790   0.01267  Uiso   1.00
C112   C     0.13670   0.90130   0.38980   0.01267  Uiso   1.00
C113   C     0.15150   0.55910   0.39390   0.01267  Uiso   1.00
C114   C     0.20993   0.48453   0.36320   0.01267  Uiso   1.00
C115   C     0.30410   0.48110   0.34840   0.01267  Uiso   1.00
C116   C     0.35762   0.40982   0.32202   0.01267  Uiso   1.00
C117   C     0.31676   0.34196   0.31003   0.01267  Uiso   1.00
C118   C     0.22208   0.34288   0.32424   0.01267  Uiso   1.00
C119   C     0.17063   0.41503   0.35124   0.01267  Uiso   1.00
C120   C     0.46080   0.40780   0.30760   0.01267  Uiso   1.00
C121   C     0.14740   0.38660   0.10710   0.01267  Uiso   1.00
C122   C     0.16600   0.30080   0.14713   0.01267  Uiso   1.00
C123   C     0.18570   0.21330   0.13130   0.01267  Uiso   1.00
C124   C     0.20600   0.13420   0.16871   0.01267  Uiso   1.00
C125   C     0.20258   0.14478   0.22234   0.01267  Uiso   1.00
C126   C     0.18224   0.23344   0.23980   0.01267  Uiso   1.00
C127   C     0.16520   0.30900   0.20082   0.01267  Uiso   1.00
C128   C     0.23110   0.03890   0.15150   0.01267  Uiso   1.00
O1     O     0.28833   0.95261   0.00053   0.01267  Uiso   1.00
O2     O     0.33706   0.80606   0.98717   0.01267  Uiso   1.00
O3     O     0.34178   0.71832   0.80755   0.01267  Uiso   1.00
O4     O     0.32264   0.82792   0.73732   0.01267  Uiso   1.00
O5     O     0.09822   0.42822   0.94552   0.01267  Uiso   1.00
O6     O     0.95543   0.40353   0.98130   0.01267  Uiso   1.00
O7     O     0.82928   0.16508   0.91374   0.01267  Uiso   1.00
O8     O     0.92050   0.06730   0.86720   0.01267  Uiso   1.00
O9     O     0.97103   0.23823   0.68579   0.01267  Uiso   1.00
O10    O     0.03542   0.24350   0.60050   0.01267  Uiso   1.00
O11    O     0.37113   0.13333   0.56072   0.01267  Uiso   1.00
O12    O     0.46460   0.14580   0.61873   0.01267  Uiso   1.00
O13    O     0.35284   0.50548   0.77522   0.01267  Uiso   1.00
O14    O     0.45879   0.49619   0.82780   0.01267  Uiso   1.00
O15    O     0.63659   0.17743   0.88625   0.01267  Uiso   1.00
O16    O     0.53976   0.08236   0.92595   0.01267  Uiso   1.00
O17    O     0.24760   0.52100   0.98260   0.01267  Uiso   1.00
O18    O     0.04739   0.71167   0.49947   0.01267  Uiso   1.00
O19    O     0.19394   0.66294   0.51283   0.01267  Uiso   1.00
O20    O     0.28168   0.65822   0.69245   0.01267  Uiso   1.00
O21    O     0.17208   0.67736   0.76268   0.01267  Uiso   1.00
O22    O     0.57178   0.90178   0.55448   0.01267  Uiso   1.00
O23    O     0.59647   0.04457   0.51870   0.01267  Uiso   1.00
O24    O     0.83492   0.17072   0.58626   0.01267  Uiso   1.00
O25    O     0.93270   0.07950   0.63280   0.01267  Uiso   1.00
O26    O     0.76177   0.02897   0.81421   0.01267  Uiso   1.00
O27    O     0.75650   0.96458   0.89950   0.01267  Uiso   1.00
O28    O     0.86667   0.62887   0.93928   0.01267  Uiso   1.00
O29    O     0.85420   0.53540   0.88127   0.01267  Uiso   1.00
O30    O     0.49452   0.64716   0.72478   0.01267  Uiso   1.00
O31    O     0.50381   0.54121   0.67220   0.01267  Uiso   1.00
O32    O     0.82257   0.36341   0.61375   0.01267  Uiso   1.00
O33    O     0.91764   0.46024   0.57405   0.01267  Uiso   1.00
O34    O     0.47900   0.75240   0.51740   0.01267  Uiso   1.00
O35    O     0.71167   0.04739   0.99947   0.01267  Uiso   1.00
O36    O     0.66294   0.19394   0.01283   0.01267  Uiso   1.00
O37    O     0.65822   0.28168   0.19245   0.01267  Uiso   1.00
O38    O     0.67736   0.17208   0.26268   0.01267  Uiso   1.00
O39    O     0.90178   0.57178   0.05448   0.01267  Uiso   1.00
O40    O     0.04457   0.59647   0.01870   0.01267  Uiso   1.00
O41    O     0.17072   0.83492   0.08626   0.01267  Uiso   1.00
O42    O     0.07950   0.93270   0.13280   0.01267  Uiso   1.00
O43    O     0.02897   0.76177   0.31421   0.01267  Uiso   1.00
O44    O     0.96458   0.75650   0.39950   0.01267  Uiso   1.00
O45    O     0.62887   0.86667   0.43928   0.01267  Uiso   1.00
O46    O     0.53540   0.85420   0.38127   0.01267  Uiso   1.00
O47    O     0.64716   0.49452   0.22478   0.01267  Uiso   1.00
O48    O     0.54121   0.50381   0.17220   0.01267  Uiso   1.00
O49    O     0.36341   0.82257   0.11375   0.01267  Uiso   1.00
O50    O     0.46024   0.91764   0.07405   0.01267  Uiso   1.00
O51    O     0.75240   0.47900   0.01740   0.01267  Uiso   1.00
O52    O     0.95261   0.28833   0.50053   0.01267  Uiso   1.00
O53    O     0.80606   0.33706   0.48717   0.01267  Uiso   1.00
O54    O     0.71832   0.34178   0.30755   0.01267  Uiso   1.00
O55    O     0.82792   0.32264   0.23732   0.01267  Uiso   1.00
O56    O     0.42822   0.09822   0.44552   0.01267  Uiso   1.00
O57    O     0.40353   0.95543   0.48130   0.01267  Uiso   1.00
O58    O     0.16508   0.82928   0.41374   0.01267  Uiso   1.00
O59    O     0.06730   0.92050   0.36720   0.01267  Uiso   1.00
O60    O     0.23823   0.97103   0.18579   0.01267  Uiso   1.00
O61    O     0.24350   0.03542   0.10050   0.01267  Uiso   1.00
O62    O     0.13333   0.37113   0.06072   0.01267  Uiso   1.00
O63    O     0.14580   0.46460   0.11873   0.01267  Uiso   1.00
O64    O     0.50548   0.35284   0.27522   0.01267  Uiso   1.00
O65    O     0.49619   0.45879   0.32780   0.01267  Uiso   1.00
O66    O     0.17743   0.63659   0.38625   0.01267  Uiso   1.00
O67    O     0.08236   0.53976   0.42595   0.01267  Uiso   1.00
O68    O     0.52100   0.24760   0.48260   0.01267  Uiso   1.00
H49    H     0.39110   0.88590   0.60650   0.01267  Uiso   1.00
H50    H     0.34100   0.95480   0.64750   0.01267  Uiso   1.00
H51    H     0.31230   0.96950   0.58970   0.01267  Uiso   1.00
H52    H     0.11260   0.89200   0.67910   0.01267  Uiso   1.00
H53    H     0.13290   0.98170   0.64170   0.01267  Uiso   1.00
H54    H     0.16870   0.95650   0.69780   0.01267  Uiso   1.00
H55    H     0.28620   0.81880   0.66190   0.01267  Uiso   1.00
H56    H     0.25230   0.84110   0.60990   0.01267  Uiso   1.00
C129   C     0.33300   0.92400   0.61870   0.01267  Uiso   1.00
C130   C     0.15710   0.93170   0.66760   0.01267  Uiso   1.00
N1     N     0.26370   0.86570   0.63760   0.01267  Uiso   1.00
H57    H     0.48320   0.09380   0.06540   0.01267  Uiso   1.00
H58    H     0.39420   0.16820   0.08000   0.01267  Uiso   1.00
H59    H     0.46950   0.19330   0.03260   0.01267  Uiso   1.00
H60    H     0.28950   0.16790   0.96430   0.01267  Uiso   1.00
H61    H     0.34780   0.24040   0.97140   0.01267  Uiso   1.00
H62    H     0.27130   0.21330   0.01740   0.01267  Uiso   1.00
H63    H     0.36110   0.06670   0.03090   0.01267  Uiso   1.00
H64    H     0.43130   0.08950   0.98690   0.01267  Uiso   1.00
C131   C     0.43840   0.14480   0.05120   0.01267  Uiso   1.00
C132   C     0.31790   0.19070   0.98940   0.01267  Uiso   1.00
N2     N     0.38950   0.11270   0.01340   0.01267  Uiso   1.00
H65    H     0.64680   0.58780   0.79820   0.01267  Uiso   1.00
H66    H     0.63440   0.51660   0.85000   0.01267  Uiso   1.00
H67    H     0.67240   0.60620   0.85240   0.01267  Uiso   1.00
H68    H     0.43940   0.65760   0.91330   0.01267  Uiso   1.00
H69    H     0.54100   0.64960   0.92570   0.01267  Uiso   1.00
H70    H     0.50440   0.55980   0.92200   0.01267  Uiso   1.00
H71    H     0.49760   0.60920   0.83300   0.01267  Uiso   1.00
H72    H     0.53300   0.69160   0.83660   0.01267  Uiso   1.00
C133   C     0.63040   0.58120   0.83640   0.01267  Uiso   1.00
C134   C     0.50220   0.62400   0.90780   0.01267  Uiso   1.00
N3     N     0.53600   0.63120   0.84960   0.01267  Uiso   1.00
H73    H     0.11410   0.60890   0.89350   0.01267  Uiso   1.00
H74    H     0.04520   0.65900   0.85250   0.01267  Uiso   1.00
H75    H     0.03050   0.68770   0.91030   0.01267  Uiso   1.00
H76    H     0.10800   0.88740   0.82090   0.01267  Uiso   1.00
H77    H     0.01830   0.86710   0.85830   0.01267  Uiso   1.00
H78    H     0.04350   0.83130   0.80220   0.01267  Uiso   1.00
H79    H     0.18120   0.71380   0.83810   0.01267  Uiso   1.00
H80    H     0.15890   0.74770   0.89010   0.01267  Uiso   1.00
C135   C     0.07600   0.66700   0.88130   0.01267  Uiso   1.00
C136   C     0.06830   0.84290   0.83240   0.01267  Uiso   1.00
N4     N     0.13430   0.73630   0.86240   0.01267  Uiso   1.00
H81    H     0.90620   0.51680   0.43460   0.01267  Uiso   1.00
H82    H     0.83180   0.60580   0.42000   0.01267  Uiso   1.00
H83    H     0.80670   0.53050   0.46740   0.01267  Uiso   1.00
H84    H     0.83210   0.71050   0.53570   0.01267  Uiso   1.00
H85    H     0.75960   0.65220   0.52860   0.01267  Uiso   1.00
H86    H     0.78670   0.72870   0.48260   0.01267  Uiso   1.00
H87    H     0.93330   0.63890   0.46910   0.01267  Uiso   1.00
H88    H     0.91050   0.56870   0.51310   0.01267  Uiso   1.00
C137   C     0.85520   0.56160   0.44880   0.01267  Uiso   1.00
C138   C     0.80930   0.68210   0.51060   0.01267  Uiso   1.00
N5     N     0.88730   0.61050   0.48660   0.01267  Uiso   1.00
H89    H     0.41220   0.35320   0.70180   0.01267  Uiso   1.00
H90    H     0.48340   0.36560   0.65000   0.01267  Uiso   1.00
H91    H     0.39380   0.32760   0.64760   0.01267  Uiso   1.00
H92    H     0.34240   0.56060   0.58670   0.01267  Uiso   1.00
H93    H     0.35040   0.45900   0.57430   0.01267  Uiso   1.00
H94    H     0.44020   0.49560   0.57800   0.01267  Uiso   1.00
H95    H     0.39080   0.50240   0.66700   0.01267  Uiso   1.00
H96    H     0.30840   0.46700   0.66340   0.01267  Uiso   1.00
C139   C     0.41880   0.36960   0.66360   0.01267  Uiso   1.00
C140   C     0.37600   0.49780   0.59220   0.01267  Uiso   1.00
N6     N     0.36880   0.46400   0.65040   0.01267  Uiso   1.00
H97    H     0.60890   0.11410   0.39350   0.01267  Uiso   1.00
H98    H     0.65900   0.04520   0.35250   0.01267  Uiso   1.00
H99    H     0.68770   0.03050   0.41030   0.01267  Uiso   1.00
H100   H     0.88740   0.10800   0.32090   0.01267  Uiso   1.00
H101   H     0.86710   0.01830   0.35830   0.01267  Uiso   1.00
H102   H     0.83130   0.04350   0.30220   0.01267  Uiso   1.00
H103   H     0.71380   0.18120   0.33810   0.01267  Uiso   1.00
H104   H     0.74770   0.15890   0.39010   0.01267  Uiso   1.00
C141   C     0.66700   0.07600   0.38130   0.01267  Uiso   1.00
C142   C     0.84290   0.06830   0.33240   0.01267  Uiso   1.00
N7     N     0.73630   0.13430   0.36240   0.01267  Uiso   1.00
H105   H     0.51680   0.90620   0.93460   0.01267  Uiso   1.00
H106   H     0.60580   0.83180   0.92000   0.01267  Uiso   1.00
H107   H     0.53050   0.80670   0.96740   0.01267  Uiso   1.00
H108   H     0.71050   0.83210   0.03570   0.01267  Uiso   1.00
H109   H     0.65220   0.75960   0.02860   0.01267  Uiso   1.00
H110   H     0.72870   0.78670   0.98260   0.01267  Uiso   1.00
H111   H     0.63890   0.93330   0.96910   0.01267  Uiso   1.00
H112   H     0.56870   0.91050   0.01310   0.01267  Uiso   1.00
C143   C     0.56160   0.85520   0.94880   0.01267  Uiso   1.00
C144   C     0.68210   0.80930   0.01060   0.01267  Uiso   1.00
N8     N     0.61050   0.88730   0.98660   0.01267  Uiso   1.00
H113   H     0.35320   0.41220   0.20180   0.01267  Uiso   1.00
H114   H     0.36560   0.48340   0.15000   0.01267  Uiso   1.00
H115   H     0.32760   0.39380   0.14760   0.01267  Uiso   1.00
H116   H     0.56060   0.34240   0.08670   0.01267  Uiso   1.00
H117   H     0.45900   0.35040   0.07430   0.01267  Uiso   1.00
H118   H     0.49560   0.44020   0.07800   0.01267  Uiso   1.00
H119   H     0.50240   0.39080   0.16700   0.01267  Uiso   1.00
H120   H     0.46700   0.30840   0.16340   0.01267  Uiso   1.00
C145   C     0.36960   0.41880   0.16360   0.01267  Uiso   1.00
C146   C     0.49780   0.37600   0.09220   0.01267  Uiso   1.00
N9     N     0.46400   0.36880   0.15040   0.01267  Uiso   1.00
H121   H     0.88590   0.39110   0.10650   0.01267  Uiso   1.00
H122   H     0.95480   0.34100   0.14750   0.01267  Uiso   1.00
H123   H     0.96950   0.31230   0.08970   0.01267  Uiso   1.00
H124   H     0.89200   0.11260   0.17910   0.01267  Uiso   1.00
H125   H     0.98170   0.13290   0.14170   0.01267  Uiso   1.00
H126   H     0.95650   0.16870   0.19780   0.01267  Uiso   1.00
H127   H     0.81880   0.28620   0.16190   0.01267  Uiso   1.00
H128   H     0.84110   0.25230   0.10990   0.01267  Uiso   1.00
C147   C     0.92400   0.33300   0.11870   0.01267  Uiso   1.00
C148   C     0.93170   0.15710   0.16760   0.01267  Uiso   1.00
N10    N     0.86570   0.26370   0.13760   0.01267  Uiso   1.00
H129   H     0.09380   0.48320   0.56540   0.01267  Uiso   1.00
H130   H     0.16820   0.39420   0.58000   0.01267  Uiso   1.00
H131   H     0.19330   0.46950   0.53260   0.01267  Uiso   1.00
H132   H     0.16790   0.28950   0.46430   0.01267  Uiso   1.00
H133   H     0.24040   0.34780   0.47140   0.01267  Uiso   1.00
H134   H     0.21330   0.27130   0.51740   0.01267  Uiso   1.00
H135   H     0.06670   0.36110   0.53090   0.01267  Uiso   1.00
H136   H     0.08950   0.43130   0.48690   0.01267  Uiso   1.00
C149   C     0.14480   0.43840   0.55120   0.01267  Uiso   1.00
C150   C     0.19070   0.31790   0.48940   0.01267  Uiso   1.00
N11    N     0.11270   0.38950   0.51340   0.01267  Uiso   1.00
H137   H     0.58780   0.64680   0.29820   0.01267  Uiso   1.00
H138   H     0.51660   0.63440   0.35000   0.01267  Uiso   1.00
H139   H     0.60620   0.67240   0.35240   0.01267  Uiso   1.00
H140   H     0.65760   0.43940   0.41330   0.01267  Uiso   1.00
H141   H     0.64960   0.54100   0.42570   0.01267  Uiso   1.00
H142   H     0.55980   0.50440   0.42200   0.01267  Uiso   1.00
H143   H     0.60920   0.49760   0.33300   0.01267  Uiso   1.00
H144   H     0.69160   0.53300   0.33660   0.01267  Uiso   1.00
C151   C     0.58120   0.63040   0.33640   0.01267  Uiso   1.00
C152   C     0.62400   0.50220   0.40780   0.01267  Uiso   1.00
N12    N     0.63120   0.53600   0.34960   0.01267  Uiso   1.00
