data_image0
_cell_length_a       9.105
_cell_length_b       17.492
_cell_length_c       17.492
_cell_angle_alpha    90
_cell_angle_beta     90
_cell_angle_gamma    90

_symmetry_space_group_name_H-M    P 1
_symmetry_int_tables_number       1

loop_
  _symmetry_equiv_pos_as_xyz
  'x, y, z'

loop_
  _atom_site_label
  _atom_site_occupancy
  _atom_site_fract_x
  _atom_site_fract_y
  _atom_site_fract_z
  _atom_site_thermal_displace_type
  _atom_site_B_iso_or_equiv
  _atom_site_type_symbol
  Cu1      1.0000 0.41513  0.95628  0.54372  Biso   1.000  Cu
  Cu2      1.0000 0.41513  0.54372  0.95628  Biso   1.000  Cu
  Cu3      1.0000 0.41513  0.95628  0.95628  Biso   1.000  Cu
  Cu4      1.0000 0.41513  0.54372  0.54372  Biso   1.000  Cu
  Cu5      1.0000 0.58487  0.04372  0.04372  Biso   1.000  Cu
  Cu6      1.0000 0.58487  0.45628  0.45628  Biso   1.000  Cu
  Cu7      1.0000 0.58487  0.04372  0.45628  Biso   1.000  Cu
  Cu8      1.0000 0.58487  0.45628  0.04372  Biso   1.000  Cu
  Si1      1.0000 0.00000  0.75000  0.25000  Biso   1.000  Si
  Si2      1.0000 0.00000  0.25000  0.75000  Biso   1.000  Si
  H1       1.0000 0.86010  0.86480  0.34830  Biso   1.000  H
  H2       1.0000 0.86010  0.63520  0.15170  Biso   1.000  H
  H3       1.0000 0.86010  0.15170  0.86480  Biso   1.000  H
  H4       1.0000 0.86010  0.34830  0.63520  Biso   1.000  H
  H5       1.0000 0.13990  0.13520  0.84830  Biso   1.000  H
  H6       1.0000 0.13990  0.36480  0.65170  Biso   1.000  H
  H7       1.0000 0.13990  0.84830  0.36480  Biso   1.000  H
  H8       1.0000 0.13990  0.65170  0.13520  Biso   1.000  H
  H9       1.0000 0.13990  0.13520  0.65170  Biso   1.000  H
  H10      1.0000 0.13990  0.36480  0.84830  Biso   1.000  H
  H11      1.0000 0.13990  0.84830  0.13520  Biso   1.000  H
  H12      1.0000 0.13990  0.65170  0.36480  Biso   1.000  H
  H13      1.0000 0.86010  0.86480  0.15170  Biso   1.000  H
  H14      1.0000 0.86010  0.63520  0.34830  Biso   1.000  H
  H15      1.0000 0.86010  0.15170  0.63520  Biso   1.000  H
  H16      1.0000 0.86010  0.34830  0.86480  Biso   1.000  H
  H17      1.0000 0.61040  0.75000  0.49780  Biso   1.000  H
  H18      1.0000 0.61040  0.75000  0.00220  Biso   1.000  H
  H19      1.0000 0.61040  0.00220  0.75000  Biso   1.000  H
  H20      1.0000 0.61040  0.49780  0.75000  Biso   1.000  H
  H21      1.0000 0.38960  0.25000  0.99780  Biso   1.000  H
  H22      1.0000 0.38960  0.25000  0.50220  Biso   1.000  H
  H23      1.0000 0.38960  0.99780  0.25000  Biso   1.000  H
  H24      1.0000 0.38960  0.50220  0.25000  Biso   1.000  H
  C1       1.0000 0.82690  0.81855  0.36810  Biso   1.000  C
  C2       1.0000 0.72520  0.81870  0.42770  Biso   1.000  C
  C3       1.0000 0.65880  0.89050  0.45840  Biso   1.000  C
  C4       1.0000 0.82690  0.68145  0.13190  Biso   1.000  C
  C5       1.0000 0.72520  0.68130  0.07230  Biso   1.000  C
  C6       1.0000 0.65880  0.60950  0.04160  Biso   1.000  C
  C7       1.0000 0.82690  0.13190  0.81855  Biso   1.000  C
  C8       1.0000 0.72520  0.07230  0.81870  Biso   1.000  C
  C9       1.0000 0.65880  0.04160  0.89050  Biso   1.000  C
  C10      1.0000 0.82690  0.36810  0.68145  Biso   1.000  C
  C11      1.0000 0.72520  0.42770  0.68130  Biso   1.000  C
  C12      1.0000 0.65880  0.45840  0.60950  Biso   1.000  C
  C13      1.0000 0.17310  0.18145  0.86810  Biso   1.000  C
  C14      1.0000 0.27480  0.18130  0.92770  Biso   1.000  C
  C15      1.0000 0.34120  0.10950  0.95840  Biso   1.000  C
  C16      1.0000 0.17310  0.31855  0.63190  Biso   1.000  C
  C17      1.0000 0.27480  0.31870  0.57230  Biso   1.000  C
  C18      1.0000 0.34120  0.39050  0.54160  Biso   1.000  C
  C19      1.0000 0.17310  0.86810  0.31855  Biso   1.000  C
  C20      1.0000 0.27480  0.92770  0.31870  Biso   1.000  C
  C21      1.0000 0.34120  0.95840  0.39050  Biso   1.000  C
  C22      1.0000 0.17310  0.63190  0.18145  Biso   1.000  C
  C23      1.0000 0.27480  0.57230  0.18130  Biso   1.000  C
  C24      1.0000 0.34120  0.54160  0.10950  Biso   1.000  C
  C25      1.0000 0.17310  0.18145  0.63190  Biso   1.000  C
  C26      1.0000 0.27480  0.18130  0.57230  Biso   1.000  C
  C27      1.0000 0.34120  0.10950  0.54160  Biso   1.000  C
  C28      1.0000 0.17310  0.31855  0.86810  Biso   1.000  C
  C29      1.0000 0.27480  0.31870  0.92770  Biso   1.000  C
  C30      1.0000 0.34120  0.39050  0.95840  Biso   1.000  C
  C31      1.0000 0.17310  0.86810  0.18145  Biso   1.000  C
  C32      1.0000 0.27480  0.92770  0.18130  Biso   1.000  C
  C33      1.0000 0.34120  0.95840  0.10950  Biso   1.000  C
  C34      1.0000 0.17310  0.63190  0.31855  Biso   1.000  C
  C35      1.0000 0.27480  0.57230  0.31870  Biso   1.000  C
  C36      1.0000 0.34120  0.54160  0.39050  Biso   1.000  C
  C37      1.0000 0.82690  0.81855  0.13190  Biso   1.000  C
  C38      1.0000 0.72520  0.81870  0.07230  Biso   1.000  C
  C39      1.0000 0.65880  0.89050  0.04160  Biso   1.000  C
  C40      1.0000 0.82690  0.68145  0.36810  Biso   1.000  C
  C41      1.0000 0.72520  0.68130  0.42770  Biso   1.000  C
  C42      1.0000 0.65880  0.60950  0.45840  Biso   1.000  C
  C43      1.0000 0.82690  0.13190  0.68145  Biso   1.000  C
  C44      1.0000 0.72520  0.07230  0.68130  Biso   1.000  C
  C45      1.0000 0.65880  0.04160  0.60950  Biso   1.000  C
  C46      1.0000 0.82690  0.36810  0.81855  Biso   1.000  C
  C47      1.0000 0.72520  0.42770  0.81870  Biso   1.000  C
  C48      1.0000 0.65880  0.45840  0.89050  Biso   1.000  C
  C49      1.0000 0.87950  0.75000  0.33750  Biso   1.000  C
  C50      1.0000 0.67670  0.75000  0.45730  Biso   1.000  C
  C51      1.0000 0.87950  0.75000  0.16250  Biso   1.000  C
  C52      1.0000 0.67670  0.75000  0.04270  Biso   1.000  C
  C53      1.0000 0.87950  0.16250  0.75000  Biso   1.000  C
  C54      1.0000 0.67670  0.04270  0.75000  Biso   1.000  C
  C55      1.0000 0.87950  0.33750  0.75000  Biso   1.000  C
  C56      1.0000 0.67670  0.45730  0.75000  Biso   1.000  C
  C57      1.0000 0.12050  0.25000  0.83750  Biso   1.000  C
  C58      1.0000 0.32330  0.25000  0.95730  Biso   1.000  C
  C59      1.0000 0.12050  0.25000  0.66250  Biso   1.000  C
  C60      1.0000 0.32330  0.25000  0.54270  Biso   1.000  C
  C61      1.0000 0.12050  0.83750  0.25000  Biso   1.000  C
  C62      1.0000 0.32330  0.95730  0.25000  Biso   1.000  C
  C63      1.0000 0.12050  0.66250  0.25000  Biso   1.000  C
  C64      1.0000 0.32330  0.54270  0.25000  Biso   1.000  C
  O1       1.0000 0.55890  0.88220  0.50621  Biso   1.000  O
  O2       1.0000 0.70450  0.95300  0.43250  Biso   1.000  O
  O3       1.0000 0.55890  0.61780  0.99379  Biso   1.000  O
  O4       1.0000 0.70450  0.54700  0.06750  Biso   1.000  O
  O5       1.0000 0.55890  0.99379  0.88220  Biso   1.000  O
  O6       1.0000 0.70450  0.06750  0.95300  Biso   1.000  O
  O7       1.0000 0.55890  0.50621  0.61780  Biso   1.000  O
  O8       1.0000 0.70450  0.43250  0.54700  Biso   1.000  O
  O9       1.0000 0.44110  0.11780  0.00621  Biso   1.000  O
  O10      1.0000 0.29550  0.04700  0.93250  Biso   1.000  O
  O11      1.0000 0.44110  0.38220  0.49379  Biso   1.000  O
  O12      1.0000 0.29550  0.45300  0.56750  Biso   1.000  O
  O13      1.0000 0.44110  0.00621  0.38220  Biso   1.000  O
  O14      1.0000 0.29550  0.93250  0.45300  Biso   1.000  O
  O15      1.0000 0.44110  0.49379  0.11780  Biso   1.000  O
  O16      1.0000 0.29550  0.56750  0.04700  Biso   1.000  O
  O17      1.0000 0.44110  0.11780  0.49379  Biso   1.000  O
  O18      1.0000 0.29550  0.04700  0.56750  Biso   1.000  O
  O19      1.0000 0.44110  0.38220  0.00621  Biso   1.000  O
  O20      1.0000 0.29550  0.45300  0.93250  Biso   1.000  O
  O21      1.0000 0.44110  0.00621  0.11780  Biso   1.000  O
  O22      1.0000 0.29550  0.93250  0.04700  Biso   1.000  O
  O23      1.0000 0.44110  0.49379  0.38220  Biso   1.000  O
  O24      1.0000 0.29550  0.56750  0.45300  Biso   1.000  O
  O25      1.0000 0.55890  0.88220  0.99379  Biso   1.000  O
  O26      1.0000 0.70450  0.95300  0.06750  Biso   1.000  O
  O27      1.0000 0.55890  0.61780  0.50621  Biso   1.000  O
  O28      1.0000 0.70450  0.54700  0.43250  Biso   1.000  O
  O29      1.0000 0.55890  0.99379  0.61780  Biso   1.000  O
  O30      1.0000 0.70450  0.06750  0.54700  Biso   1.000  O
  O31      1.0000 0.55890  0.50621  0.88220  Biso   1.000  O
  O32      1.0000 0.70450  0.43250  0.95300  Biso   1.000  O
  O33      1.0000 0.30910  0.87846  0.62154  Biso   1.000  O
  O34      1.0000 0.30910  0.62154  0.87846  Biso   1.000  O
  O35      1.0000 0.30910  0.87846  0.87846  Biso   1.000  O
  O36      1.0000 0.30910  0.62154  0.62154  Biso   1.000  O
  O37      1.0000 0.69090  0.12154  0.12154  Biso   1.000  O
  O38      1.0000 0.69090  0.37846  0.37846  Biso   1.000  O
  O39      1.0000 0.69090  0.12154  0.37846  Biso   1.000  O
  O40      1.0000 0.69090  0.37846  0.12154  Biso   1.000  O
