data_image0
_cell_length_a       8.1455
_cell_length_b       13.1869
_cell_length_c       19.3665
_cell_angle_alpha    109.905
_cell_angle_beta     99.4392
_cell_angle_gamma    90

_symmetry_space_group_name_H-M    P 1
_symmetry_int_tables_number       1

loop_
  _symmetry_equiv_pos_as_xyz
  'x, y, z'

loop_
  _atom_site_label
  _atom_site_occupancy
  _atom_site_fract_x
  _atom_site_fract_y
  _atom_site_fract_z
  _atom_site_thermal_displace_type
  _atom_site_B_iso_or_equiv
  _atom_site_type_symbol
  Co1      1.0000 0.00000  0.00000  0.00000  Biso   1.000  Co
  Co2      1.0000 0.50000  0.00000  0.00000  Biso   1.000  Co
  H1       1.0000 0.99560  0.91190  0.09960  Biso   1.000  H
  H2       1.0000 0.82980  0.92550  0.07440  Biso   1.000  H
  H3       1.0000 0.04500  0.64370  0.75060  Biso   1.000  H
  H4       1.0000 0.89680  0.54560  0.63600  Biso   1.000  H
  H5       1.0000 0.51370  0.73200  0.67860  Biso   1.000  H
  H6       1.0000 0.66310  0.83130  0.79340  Biso   1.000  H
  H7       1.0000 0.65590  0.43950  0.65440  Biso   1.000  H
  H8       1.0000 0.80890  0.32630  0.69380  Biso   1.000  H
  H9       1.0000 0.65950  0.34160  0.73740  Biso   1.000  H
  H10      1.0000 0.76170  0.23810  0.72580  Biso   1.000  H
  H11      1.0000 0.40860  0.05880  0.40240  Biso   1.000  H
  H12      1.0000 0.32940  0.98820  0.44060  Biso   1.000  H
  H13      1.0000 0.23980  0.08900  0.43100  Biso   1.000  H
  H14      1.0000 0.34400  0.23890  0.42580  Biso   1.000  H
  H15      1.0000 0.50440  0.81230  0.90040  Biso   1.000  H
  H16      1.0000 0.67020  0.85110  0.92560  Biso   1.000  H
  H17      1.0000 0.45500  0.89310  0.24940  Biso   1.000  H
  H18      1.0000 0.60320  0.90960  0.36400  Biso   1.000  H
  H19      1.0000 0.98630  0.05340  0.32140  Biso   1.000  H
  H20      1.0000 0.83690  0.03790  0.20660  Biso   1.000  H
  H21      1.0000 0.84410  0.78510  0.34560  Biso   1.000  H
  H22      1.0000 0.69110  0.63250  0.30620  Biso   1.000  H
  H23      1.0000 0.84050  0.60420  0.26260  Biso   1.000  H
  H24      1.0000 0.73830  0.51230  0.27420  Biso   1.000  H
  H25      1.0000 0.09140  0.65640  0.59760  Biso   1.000  H
  H26      1.0000 0.17060  0.54760  0.55940  Biso   1.000  H
  H27      1.0000 0.26020  0.65800  0.56900  Biso   1.000  H
  H28      1.0000 0.15600  0.81310  0.57420  Biso   1.000  H
  H29      1.0000 0.00440  0.08810  0.90040  Biso   1.000  H
  H30      1.0000 0.17020  0.07450  0.92560  Biso   1.000  H
  H31      1.0000 0.95500  0.35630  0.24940  Biso   1.000  H
  H32      1.0000 0.10320  0.45440  0.36400  Biso   1.000  H
  H33      1.0000 0.48630  0.26800  0.32140  Biso   1.000  H
  H34      1.0000 0.33690  0.16870  0.20660  Biso   1.000  H
  H35      1.0000 0.34410  0.56050  0.34560  Biso   1.000  H
  H36      1.0000 0.19110  0.67370  0.30620  Biso   1.000  H
  H37      1.0000 0.34050  0.65840  0.26260  Biso   1.000  H
  H38      1.0000 0.23830  0.76190  0.27420  Biso   1.000  H
  H39      1.0000 0.59140  0.94120  0.59760  Biso   1.000  H
  H40      1.0000 0.67060  0.01180  0.55940  Biso   1.000  H
  H41      1.0000 0.76020  0.91100  0.56900  Biso   1.000  H
  H42      1.0000 0.65600  0.76110  0.57420  Biso   1.000  H
  H43      1.0000 0.49560  0.18770  0.09960  Biso   1.000  H
  H44      1.0000 0.32980  0.14890  0.07440  Biso   1.000  H
  H45      1.0000 0.54500  0.10690  0.75060  Biso   1.000  H
  H46      1.0000 0.39680  0.09040  0.63600  Biso   1.000  H
  H47      1.0000 0.01370  0.94660  0.67860  Biso   1.000  H
  H48      1.0000 0.16310  0.96210  0.79340  Biso   1.000  H
  H49      1.0000 0.15590  0.21490  0.65440  Biso   1.000  H
  H50      1.0000 0.30890  0.36750  0.69380  Biso   1.000  H
  H51      1.0000 0.15950  0.39580  0.73740  Biso   1.000  H
  H52      1.0000 0.26170  0.48770  0.72580  Biso   1.000  H
  H53      1.0000 0.90860  0.34360  0.40240  Biso   1.000  H
  H54      1.0000 0.82940  0.45240  0.44060  Biso   1.000  H
  H55      1.0000 0.73980  0.34200  0.43100  Biso   1.000  H
  H56      1.0000 0.84400  0.18690  0.42580  Biso   1.000  H
  C1       1.0000 0.96610  0.80846  0.86012  Biso   1.000  C
  C2       1.0000 0.86920  0.74657  0.78494  Biso   1.000  C
  C3       1.0000 0.93730  0.66143  0.73646  Biso   1.000  C
  C4       1.0000 0.84850  0.60274  0.66768  Biso   1.000  C
  C5       1.0000 0.68920  0.62712  0.64484  Biso   1.000  C
  C6       1.0000 0.62100  0.71386  0.69312  Biso   1.000  C
  C7       1.0000 0.71010  0.77300  0.76200  Biso   1.000  C
  C8       1.0000 0.59300  0.56193  0.57046  Biso   1.000  C
  C9       1.0000 0.54840  0.45294  0.55488  Biso   1.000  C
  C10      1.0000 0.59720  0.39967  0.60734  Biso   1.000  C
  C11      1.0000 0.56100  0.29365  0.59090  Biso   1.000  C
  C12      1.0000 0.71850  0.28986  0.70372  Biso   1.000  C
  C13      1.0000 0.46460  0.23135  0.52050  Biso   1.000  C
  C14      1.0000 0.34600  0.06026  0.44052  Biso   1.000  C
  C15      1.0000 0.41110  0.27926  0.47052  Biso   1.000  C
  C16      1.0000 0.45400  0.39041  0.48382  Biso   1.000  C
  C17      1.0000 0.53390  0.94834  0.13988  Biso   1.000  C
  C18      1.0000 0.63080  0.96163  0.21506  Biso   1.000  C
  C19      1.0000 0.56270  0.92497  0.26354  Biso   1.000  C
  C20      1.0000 0.65150  0.93506  0.33232  Biso   1.000  C
  C21      1.0000 0.81080  0.98228  0.35516  Biso   1.000  C
  C22      1.0000 0.87900  0.02074  0.30688  Biso   1.000  C
  C23      1.0000 0.78990  0.01100  0.23800  Biso   1.000  C
  C24      1.0000 0.90700  0.99147  0.42954  Biso   1.000  C
  C25      1.0000 0.95160  0.89806  0.44512  Biso   1.000  C
  C26      1.0000 0.90280  0.79233  0.39266  Biso   1.000  C
  C27      1.0000 0.93900  0.70275  0.40910  Biso   1.000  C
  C28      1.0000 0.78150  0.58614  0.29628  Biso   1.000  C
  C29      1.0000 0.03540  0.71085  0.47950  Biso   1.000  C
  C30      1.0000 0.15400  0.61974  0.55948  Biso   1.000  C
  C31      1.0000 0.08890  0.80874  0.52948  Biso   1.000  C
  C32      1.0000 0.04600  0.90659  0.51618  Biso   1.000  C
  C33      1.0000 0.03390  0.19154  0.13988  Biso   1.000  C
  C34      1.0000 0.13080  0.25343  0.21506  Biso   1.000  C
  C35      1.0000 0.06270  0.33857  0.26354  Biso   1.000  C
  C36      1.0000 0.15150  0.39726  0.33232  Biso   1.000  C
  C37      1.0000 0.31080  0.37288  0.35516  Biso   1.000  C
  C38      1.0000 0.37900  0.28614  0.30688  Biso   1.000  C
  C39      1.0000 0.28990  0.22700  0.23800  Biso   1.000  C
  C40      1.0000 0.40700  0.43807  0.42954  Biso   1.000  C
  C41      1.0000 0.45160  0.54706  0.44512  Biso   1.000  C
  C42      1.0000 0.40280  0.60033  0.39266  Biso   1.000  C
  C43      1.0000 0.43900  0.70635  0.40910  Biso   1.000  C
  C44      1.0000 0.28150  0.71014  0.29628  Biso   1.000  C
  C45      1.0000 0.53540  0.76865  0.47950  Biso   1.000  C
  C46      1.0000 0.65400  0.93974  0.55948  Biso   1.000  C
  C47      1.0000 0.58890  0.72074  0.52948  Biso   1.000  C
  C48      1.0000 0.54600  0.60959  0.51618  Biso   1.000  C
  C49      1.0000 0.46610  0.05166  0.86012  Biso   1.000  C
  C50      1.0000 0.36920  0.03837  0.78494  Biso   1.000  C
  C51      1.0000 0.43730  0.07503  0.73646  Biso   1.000  C
  C52      1.0000 0.34850  0.06494  0.66768  Biso   1.000  C
  C53      1.0000 0.18920  0.01772  0.64484  Biso   1.000  C
  C54      1.0000 0.12100  0.97926  0.69312  Biso   1.000  C
  C55      1.0000 0.21010  0.98900  0.76200  Biso   1.000  C
  C56      1.0000 0.09300  0.00853  0.57046  Biso   1.000  C
  C57      1.0000 0.04840  0.10194  0.55488  Biso   1.000  C
  C58      1.0000 0.09720  0.20767  0.60734  Biso   1.000  C
  C59      1.0000 0.06100  0.29725  0.59090  Biso   1.000  C
  C60      1.0000 0.21850  0.41386  0.70372  Biso   1.000  C
  C61      1.0000 0.96460  0.28915  0.52050  Biso   1.000  C
  C62      1.0000 0.84600  0.38026  0.44052  Biso   1.000  C
  C63      1.0000 0.91110  0.19126  0.47052  Biso   1.000  C
  C64      1.0000 0.95400  0.09341  0.48382  Biso   1.000  C
  O1       1.0000 0.92020  0.91634  0.06198  Biso   1.000  O
  O2       1.0000 0.89240  0.87955  0.90484  Biso   1.000  O
  O3       1.0000 0.11270  0.78798  0.87576  Biso   1.000  O
  O4       1.0000 0.60900  0.23628  0.63666  Biso   1.000  O
  O5       1.0000 0.43520  0.12646  0.51108  Biso   1.000  O
  O6       1.0000 0.57980  0.85436  0.93802  Biso   1.000  O
  O7       1.0000 0.60760  0.97471  0.09516  Biso   1.000  O
  O8       1.0000 0.38730  0.91222  0.12424  Biso   1.000  O
  O9       1.0000 0.89100  0.59962  0.36334  Biso   1.000  O
  O10      1.0000 0.06480  0.61538  0.48892  Biso   1.000  O
  O11      1.0000 0.07980  0.08366  0.93802  Biso   1.000  O
  O12      1.0000 0.10760  0.12045  0.09516  Biso   1.000  O
  O13      1.0000 0.88730  0.21202  0.12424  Biso   1.000  O
  O14      1.0000 0.39100  0.76372  0.36334  Biso   1.000  O
  O15      1.0000 0.56480  0.87354  0.48892  Biso   1.000  O
  O16      1.0000 0.42020  0.14564  0.06198  Biso   1.000  O
  O17      1.0000 0.39240  0.02529  0.90484  Biso   1.000  O
  O18      1.0000 0.61270  0.08778  0.87576  Biso   1.000  O
  O19      1.0000 0.10900  0.40038  0.63666  Biso   1.000  O
  O20      1.0000 0.93520  0.38462  0.51108  Biso   1.000  O
  O21      1.0000 0.75000  0.06660  1.00000  Biso   1.000  O
  O22      1.0000 0.25000  0.93340  0.00000  Biso   1.000  O
