data_image0
_cell_length_a       7.39602
_cell_length_b       15.666
_cell_length_c       17.5706
_cell_angle_alpha    110.896
_cell_angle_beta     102.15
_cell_angle_gamma    90

_symmetry_space_group_name_H-M    P 1
_symmetry_int_tables_number       1

loop_
  _symmetry_equiv_pos_as_xyz
  'x, y, z'

loop_
  _atom_site_label
  _atom_site_occupancy
  _atom_site_fract_x
  _atom_site_fract_y
  _atom_site_fract_z
  _atom_site_thermal_displace_type
  _atom_site_B_iso_or_equiv
  _atom_site_type_symbol
  Cu1      1.0000 0.89038  0.41503  0.50522  Biso   1.000  Cu
  Cu2      1.0000 0.88923  0.40794  0.32454  Biso   1.000  Cu
  Cu3      1.0000 0.38516  0.08497  0.49478  Biso   1.000  Cu
  Cu4      1.0000 0.56469  0.09206  0.67546  Biso   1.000  Cu
  Cu5      1.0000 0.10962  0.58497  0.49478  Biso   1.000  Cu
  Cu6      1.0000 0.11077  0.59206  0.67546  Biso   1.000  Cu
  Cu7      1.0000 0.61484  0.91503  0.50522  Biso   1.000  Cu
  Cu8      1.0000 0.43531  0.90794  0.32454  Biso   1.000  Cu
  H1       1.0000 0.25850  0.46930  0.78720  Biso   1.000  H
  H2       1.0000 0.01530  0.26020  0.58840  Biso   1.000  H
  H3       1.0000 0.16980  0.22520  0.72540  Biso   1.000  H
  H4       1.0000 0.26700  0.30470  0.79980  Biso   1.000  H
  H5       1.0000 0.85540  0.11680  0.43600  Biso   1.000  H
  H6       1.0000 0.98680  0.13590  0.23240  Biso   1.000  H
  H7       1.0000 0.02420  0.98100  0.18160  Biso   1.000  H
  H8       1.0000 0.38630  0.31620  0.12380  Biso   1.000  H
  H9       1.0000 0.99350  0.89480  0.26200  Biso   1.000  H
  H10      1.0000 0.47130  0.03070  0.21280  Biso   1.000  H
  H11      1.0000 0.42690  0.23980  0.41160  Biso   1.000  H
  H12      1.0000 0.44440  0.27480  0.27460  Biso   1.000  H
  H13      1.0000 0.46720  0.19530  0.20020  Biso   1.000  H
  H14      1.0000 0.41940  0.38320  0.56400  Biso   1.000  H
  H15      1.0000 0.75440  0.36410  0.76760  Biso   1.000  H
  H16      1.0000 0.84260  0.51900  0.81840  Biso   1.000  H
  H17      1.0000 0.26250  0.18380  0.87620  Biso   1.000  H
  H18      1.0000 0.73150  0.60520  0.73800  Biso   1.000  H
  H19      1.0000 0.74150  0.53070  0.21280  Biso   1.000  H
  H20      1.0000 0.98470  0.73980  0.41160  Biso   1.000  H
  H21      1.0000 0.83020  0.77480  0.27460  Biso   1.000  H
  H22      1.0000 0.73300  0.69530  0.20020  Biso   1.000  H
  H23      1.0000 0.14460  0.88320  0.56400  Biso   1.000  H
  H24      1.0000 0.01320  0.86410  0.76760  Biso   1.000  H
  H25      1.0000 0.97580  0.01900  0.81840  Biso   1.000  H
  H26      1.0000 0.61370  0.68380  0.87620  Biso   1.000  H
  H27      1.0000 0.00650  0.10520  0.73800  Biso   1.000  H
  H28      1.0000 0.52870  0.96930  0.78720  Biso   1.000  H
  H29      1.0000 0.57310  0.76020  0.58840  Biso   1.000  H
  H30      1.0000 0.55560  0.72520  0.72540  Biso   1.000  H
  H31      1.0000 0.53280  0.80470  0.79980  Biso   1.000  H
  H32      1.0000 0.58060  0.61680  0.43600  Biso   1.000  H
  H33      1.0000 0.24560  0.63590  0.23240  Biso   1.000  H
  H34      1.0000 0.15740  0.48100  0.18160  Biso   1.000  H
  H35      1.0000 0.73750  0.81620  0.12380  Biso   1.000  H
  H36      1.0000 0.26850  0.39480  0.26200  Biso   1.000  H
  H37      1.0000 0.79210  0.25000  0.00000  Biso   1.000  H
  H38      1.0000 0.17080  0.25000  0.00000  Biso   1.000  H
  H39      1.0000 0.20790  0.75000  0.00000  Biso   1.000  H
  H40      1.0000 0.82920  0.75000  0.00000  Biso   1.000  H
  C1       1.0000 0.19070  0.43410  0.73400  Biso   1.000  C
  C2       1.0000 0.05740  0.31960  0.62500  Biso   1.000  C
  C3       1.0000 0.88181  0.93770  0.40402  Biso   1.000  C
  C4       1.0000 0.89100  0.08990  0.38540  Biso   1.000  C
  C5       1.0000 0.92110  0.14200  0.34000  Biso   1.000  C
  C6       1.0000 0.91460  0.99660  0.35520  Biso   1.000  C
  C7       1.0000 0.90300  0.24340  0.37080  Biso   1.000  C
  C8       1.0000 0.96980  0.10060  0.26340  Biso   1.000  C
  C9       1.0000 0.99350  0.00820  0.23320  Biso   1.000  C
  C10      1.0000 0.75720  0.32990  0.15640  Biso   1.000  C
  C11      1.0000 0.61290  0.28950  0.07560  Biso   1.000  C
  C12      1.0000 0.42560  0.28940  0.07420  Biso   1.000  C
  C13      1.0000 0.97100  0.95650  0.28020  Biso   1.000  C
  C14      1.0000 0.45670  0.06590  0.26600  Biso   1.000  C
  C15      1.0000 0.43240  0.18040  0.37500  Biso   1.000  C
  C16      1.0000 0.47779  0.56230  0.59598  Biso   1.000  C
  C17      1.0000 0.50560  0.41010  0.61460  Biso   1.000  C
  C18      1.0000 0.58110  0.35800  0.66000  Biso   1.000  C
  C19      1.0000 0.55940  0.50340  0.64480  Biso   1.000  C
  C20      1.0000 0.53220  0.25660  0.62920  Biso   1.000  C
  C21      1.0000 0.70640  0.39940  0.73660  Biso   1.000  C
  C22      1.0000 0.76030  0.49180  0.76680  Biso   1.000  C
  C23      1.0000 0.60080  0.17010  0.84360  Biso   1.000  C
  C24      1.0000 0.53730  0.21050  0.92440  Biso   1.000  C
  C25      1.0000 0.35140  0.21060  0.92580  Biso   1.000  C
  C26      1.0000 0.69080  0.54350  0.71980  Biso   1.000  C
  C27      1.0000 0.80930  0.56590  0.26600  Biso   1.000  C
  C28      1.0000 0.94260  0.68040  0.37500  Biso   1.000  C
  C29      1.0000 0.11819  0.06230  0.59598  Biso   1.000  C
  C30      1.0000 0.10900  0.91010  0.61460  Biso   1.000  C
  C31      1.0000 0.07890  0.85800  0.66000  Biso   1.000  C
  C32      1.0000 0.08540  0.00340  0.64480  Biso   1.000  C
  C33      1.0000 0.09700  0.75660  0.62920  Biso   1.000  C
  C34      1.0000 0.03020  0.89940  0.73660  Biso   1.000  C
  C35      1.0000 0.00650  0.99180  0.76680  Biso   1.000  C
  C36      1.0000 0.24280  0.67010  0.84360  Biso   1.000  C
  C37      1.0000 0.38710  0.71050  0.92440  Biso   1.000  C
  C38      1.0000 0.57440  0.71060  0.92580  Biso   1.000  C
  C39      1.0000 0.02900  0.04350  0.71980  Biso   1.000  C
  C40      1.0000 0.54330  0.93410  0.73400  Biso   1.000  C
  C41      1.0000 0.56760  0.81960  0.62500  Biso   1.000  C
  C42      1.0000 0.52221  0.43770  0.40402  Biso   1.000  C
  C43      1.0000 0.49440  0.58990  0.38540  Biso   1.000  C
  C44      1.0000 0.41890  0.64200  0.34000  Biso   1.000  C
  C45      1.0000 0.44060  0.49660  0.35520  Biso   1.000  C
  C46      1.0000 0.46780  0.74340  0.37080  Biso   1.000  C
  C47      1.0000 0.29360  0.60060  0.26340  Biso   1.000  C
  C48      1.0000 0.23970  0.50820  0.23320  Biso   1.000  C
  C49      1.0000 0.39920  0.82990  0.15640  Biso   1.000  C
  C50      1.0000 0.46270  0.78950  0.07560  Biso   1.000  C
  C51      1.0000 0.64860  0.78940  0.07420  Biso   1.000  C
  C52      1.0000 0.30920  0.45650  0.28020  Biso   1.000  C
  C53      1.0000 0.66640  0.25000  0.00000  Biso   1.000  C
  C54      1.0000 0.29700  0.25000  0.00000  Biso   1.000  C
  C55      1.0000 0.33360  0.75000  0.00000  Biso   1.000  C
  C56      1.0000 0.70300  0.75000  0.00000  Biso   1.000  C
  N1       1.0000 0.03014  0.39260  0.60688  Biso   1.000  N
  N2       1.0000 0.11596  0.46580  0.67712  Biso   1.000  N
  N3       1.0000 0.15520  0.34190  0.70440  Biso   1.000  N
  N4       1.0000 0.20370  0.28290  0.74900  Biso   1.000  N
  N5       1.0000 0.42326  0.10740  0.39312  Biso   1.000  N
  N6       1.0000 0.43884  0.03420  0.32288  Biso   1.000  N
  N7       1.0000 0.45080  0.15810  0.29560  Biso   1.000  N
  N8       1.0000 0.45470  0.21710  0.25100  Biso   1.000  N
  N9       1.0000 0.96986  0.60740  0.39312  Biso   1.000  N
  N10      1.0000 0.88404  0.53420  0.32288  Biso   1.000  N
  N11      1.0000 0.84480  0.65810  0.29560  Biso   1.000  N
  N12      1.0000 0.79630  0.71710  0.25100  Biso   1.000  N
  N13      1.0000 0.57674  0.89260  0.60688  Biso   1.000  N
  N14      1.0000 0.56116  0.96580  0.67712  Biso   1.000  N
  N15      1.0000 0.54920  0.84190  0.70440  Biso   1.000  N
  N16      1.0000 0.54530  0.78290  0.74900  Biso   1.000  N
  O1       1.0000 0.90967  0.28220  0.31934  Biso   1.000  O
  O2       1.0000 0.87989  0.28270  0.44478  Biso   1.000  O
  O3       1.0000 0.00088  0.89040  0.42276  Biso   1.000  O
  O4       1.0000 0.72173  0.94210  0.42186  Biso   1.000  O
  O5       1.0000 0.07384  0.45560  0.42908  Biso   1.000  O
  O6       1.0000 0.69670  0.36230  0.22120  Biso   1.000  O
  O7       1.0000 0.92320  0.32820  0.15560  Biso   1.000  O
  O8       1.0000 0.59033  0.21780  0.68066  Biso   1.000  O
  O9       1.0000 0.43511  0.21730  0.55522  Biso   1.000  O
  O10      1.0000 0.57812  0.60960  0.57724  Biso   1.000  O
  O11      1.0000 0.29987  0.55790  0.57814  Biso   1.000  O
  O12      1.0000 0.64476  0.04440  0.57092  Biso   1.000  O
  O13      1.0000 0.47550  0.13770  0.77880  Biso   1.000  O
  O14      1.0000 0.76760  0.17180  0.84440  Biso   1.000  O
  O15      1.0000 0.09033  0.71780  0.68066  Biso   1.000  O
  O16      1.0000 0.12011  0.71730  0.55522  Biso   1.000  O
  O17      1.0000 0.99912  0.10960  0.57724  Biso   1.000  O
  O18      1.0000 0.27827  0.05790  0.57814  Biso   1.000  O
  O19      1.0000 0.92616  0.54440  0.57092  Biso   1.000  O
  O20      1.0000 0.30330  0.63770  0.77880  Biso   1.000  O
  O21      1.0000 0.07680  0.67180  0.84440  Biso   1.000  O
  O22      1.0000 0.40967  0.78220  0.31934  Biso   1.000  O
  O23      1.0000 0.56489  0.78270  0.44478  Biso   1.000  O
  O24      1.0000 0.42188  0.39040  0.42276  Biso   1.000  O
  O25      1.0000 0.70013  0.44210  0.42186  Biso   1.000  O
  O26      1.0000 0.35524  0.95560  0.42908  Biso   1.000  O
  O27      1.0000 0.52450  0.86230  0.22120  Biso   1.000  O
  O28      1.0000 0.23240  0.82820  0.15560  Biso   1.000  O
