data_image0
_cell_length_a       9.54
_cell_length_b       7.611
_cell_length_c       7.12
_cell_angle_alpha    90
_cell_angle_beta     100.95
_cell_angle_gamma    90

_symmetry_space_group_name_H-M    "P 1"
_symmetry_int_tables_number       1

loop_
  _symmetry_equiv_pos_as_xyz
  'x, y, z'

loop_
  _atom_site_label
  _atom_site_occupancy
  _atom_site_fract_x
  _atom_site_fract_y
  _atom_site_fract_z
  _atom_site_thermal_displace_type
  _atom_site_B_iso_or_equiv
  _atom_site_type_symbol
  N1       1.0000 0.06220  0.22090  0.23020  Biso   1.000  N
  C1       1.0000 0.04050  0.32730  0.33400  Biso   1.000  C
  H1       1.0000 0.28700  0.08000  0.02200  Biso   1.000  H
  H2       1.0000 0.20000  0.10100  0.67700  Biso   1.000  H
  H3       1.0000 0.47400  0.10600  0.80800  Biso   1.000  H
  H4       1.0000 0.36300  0.10600  0.43100  Biso   1.000  H
  N2       1.0000 0.93780  0.22090  0.76980  Biso   1.000  N
  C2       1.0000 0.95950  0.32730  0.66600  Biso   1.000  C
  H5       1.0000 0.71300  0.08000  0.97800  Biso   1.000  H
  H6       1.0000 0.80000  0.10100  0.32300  Biso   1.000  H
  H7       1.0000 0.52600  0.10600  0.19200  Biso   1.000  H
  H8       1.0000 0.63700  0.10600  0.56900  Biso   1.000  H
  N3       1.0000 0.93780  0.77910  0.76980  Biso   1.000  N
  C3       1.0000 0.95950  0.67270  0.66600  Biso   1.000  C
  H9       1.0000 0.71300  0.92000  0.97800  Biso   1.000  H
  H10      1.0000 0.80000  0.89900  0.32300  Biso   1.000  H
  H11      1.0000 0.52600  0.89400  0.19200  Biso   1.000  H
  H12      1.0000 0.63700  0.89400  0.56900  Biso   1.000  H
  N4       1.0000 0.06220  0.77910  0.23020  Biso   1.000  N
  C4       1.0000 0.04050  0.67270  0.33400  Biso   1.000  C
  H13      1.0000 0.28700  0.92000  0.02200  Biso   1.000  H
  H14      1.0000 0.20000  0.89900  0.67700  Biso   1.000  H
  H15      1.0000 0.47400  0.89400  0.80800  Biso   1.000  H
  H16      1.0000 0.36300  0.89400  0.43100  Biso   1.000  H
  Cd1      1.0000 0.00000  0.00000  0.00000  Biso   1.000  Cd
  Ni1      1.0000 0.00000  0.50000  0.50000  Biso   1.000  Ni
  N5       1.0000 0.22970  0.00000  0.94020  Biso   1.000  N
  C5       1.0000 0.25220  0.00000  0.74190  Biso   1.000  C
  C6       1.0000 0.40660  0.00000  0.72100  Biso   1.000  C
  C7       1.0000 0.42270  0.00000  0.51120  Biso   1.000  C
  N6       1.0000 0.77030  0.00000  0.05980  Biso   1.000  N
  C8       1.0000 0.74780  0.00000  0.25810  Biso   1.000  C
  C9       1.0000 0.59340  0.00000  0.27900  Biso   1.000  C
  C10      1.0000 0.57730  0.00000  0.48880  Biso   1.000  C
