data_image0
_cell_length_a       13.6872
_cell_length_b       13.6872
_cell_length_c       13.6872
_cell_angle_alpha    102.29
_cell_angle_beta     102.29
_cell_angle_gamma    102.29

_symmetry_space_group_name_H-M    P 1
_symmetry_int_tables_number       1

loop_
  _symmetry_equiv_pos_as_xyz
  'x, y, z'

loop_
  _atom_site_label
  _atom_site_occupancy
  _atom_site_fract_x
  _atom_site_fract_y
  _atom_site_fract_z
  _atom_site_thermal_displace_type
  _atom_site_B_iso_or_equiv
  _atom_site_type_symbol
  Co1      1.0000 0.88331  0.11669  0.50000  Biso   1.000  Co
  Co2      1.0000 0.50000  0.88331  0.11669  Biso   1.000  Co
  Co3      1.0000 0.11669  0.50000  0.88331  Biso   1.000  Co
  H1       1.0000 0.86620  0.40820  0.31690  Biso   1.000  H
  H2       1.0000 0.87900  0.32530  0.62730  Biso   1.000  H
  H3       1.0000 0.90070  0.91080  0.37740  Biso   1.000  H
  H4       1.0000 0.82370  0.80620  0.65470  Biso   1.000  H
  H5       1.0000 0.85850  0.48520  0.61570  Biso   1.000  H
  H6       1.0000 0.85620  0.58210  0.38790  Biso   1.000  H
  H7       1.0000 0.83760  0.97450  0.64440  Biso   1.000  H
  H8       1.0000 0.88860  0.74080  0.37920  Biso   1.000  H
  H9       1.0000 0.88390  0.24880  0.33680  Biso   1.000  H
  H10      1.0000 0.85050  0.63480  0.59080  Biso   1.000  H
  H11      1.0000 0.31690  0.86620  0.40820  Biso   1.000  H
  H12      1.0000 0.62730  0.87900  0.32530  Biso   1.000  H
  H13      1.0000 0.37740  0.90070  0.91080  Biso   1.000  H
  H14      1.0000 0.65470  0.82370  0.80620  Biso   1.000  H
  H15      1.0000 0.61570  0.85850  0.48520  Biso   1.000  H
  H16      1.0000 0.38790  0.85620  0.58210  Biso   1.000  H
  H17      1.0000 0.64440  0.83760  0.97450  Biso   1.000  H
  H18      1.0000 0.37920  0.88860  0.74080  Biso   1.000  H
  H19      1.0000 0.33680  0.88390  0.24880  Biso   1.000  H
  H20      1.0000 0.59080  0.85050  0.63480  Biso   1.000  H
  H21      1.0000 0.40820  0.31690  0.86620  Biso   1.000  H
  H22      1.0000 0.32530  0.62730  0.87900  Biso   1.000  H
  H23      1.0000 0.91080  0.37740  0.90070  Biso   1.000  H
  H24      1.0000 0.80620  0.65470  0.82370  Biso   1.000  H
  H25      1.0000 0.48520  0.61570  0.85850  Biso   1.000  H
  H26      1.0000 0.58210  0.38790  0.85620  Biso   1.000  H
  H27      1.0000 0.97450  0.64440  0.83760  Biso   1.000  H
  H28      1.0000 0.74080  0.37920  0.88860  Biso   1.000  H
  H29      1.0000 0.24880  0.33680  0.88390  Biso   1.000  H
  H30      1.0000 0.63480  0.59080  0.85050  Biso   1.000  H
  H31      1.0000 0.59180  0.13380  0.68310  Biso   1.000  H
  H32      1.0000 0.67470  0.12100  0.37270  Biso   1.000  H
  H33      1.0000 0.08920  0.09930  0.62260  Biso   1.000  H
  H34      1.0000 0.19380  0.17630  0.34530  Biso   1.000  H
  H35      1.0000 0.51480  0.14150  0.38430  Biso   1.000  H
  H36      1.0000 0.41790  0.14380  0.61210  Biso   1.000  H
  H37      1.0000 0.02550  0.16240  0.35560  Biso   1.000  H
  H38      1.0000 0.25920  0.11140  0.62080  Biso   1.000  H
  H39      1.0000 0.75120  0.11610  0.66320  Biso   1.000  H
  H40      1.0000 0.36520  0.14950  0.40920  Biso   1.000  H
  H41      1.0000 0.13380  0.68310  0.59180  Biso   1.000  H
  H42      1.0000 0.12100  0.37270  0.67470  Biso   1.000  H
  H43      1.0000 0.09930  0.62260  0.08920  Biso   1.000  H
  H44      1.0000 0.17630  0.34530  0.19380  Biso   1.000  H
  H45      1.0000 0.14150  0.38430  0.51480  Biso   1.000  H
  H46      1.0000 0.14380  0.61210  0.41790  Biso   1.000  H
  H47      1.0000 0.16240  0.35560  0.02550  Biso   1.000  H
  H48      1.0000 0.11140  0.62080  0.25920  Biso   1.000  H
  H49      1.0000 0.11610  0.66320  0.75120  Biso   1.000  H
  H50      1.0000 0.14950  0.40920  0.36520  Biso   1.000  H
  H51      1.0000 0.68310  0.59180  0.13380  Biso   1.000  H
  H52      1.0000 0.37270  0.67470  0.12100  Biso   1.000  H
  H53      1.0000 0.62260  0.08920  0.09930  Biso   1.000  H
  H54      1.0000 0.34530  0.19380  0.17630  Biso   1.000  H
  H55      1.0000 0.38430  0.51480  0.14150  Biso   1.000  H
  H56      1.0000 0.61210  0.41790  0.14380  Biso   1.000  H
  H57      1.0000 0.35560  0.02550  0.16240  Biso   1.000  H
  H58      1.0000 0.62080  0.25920  0.11140  Biso   1.000  H
  H59      1.0000 0.66320  0.75120  0.11610  Biso   1.000  H
  H60      1.0000 0.40920  0.36520  0.14950  Biso   1.000  H
  W1       1.0000 0.00000  0.20664  0.79336  Biso   1.000  W
  W2       1.0000 0.79336  0.00000  0.20664  Biso   1.000  W
  W3       1.0000 0.20664  0.79336  0.00000  Biso   1.000  W
  C1       1.0000 0.86900  0.39350  0.38130  Biso   1.000  C
  C2       1.0000 0.87630  0.34220  0.56390  Biso   1.000  C
  C3       1.0000 0.85730  0.75370  0.51850  Biso   1.000  C
  C4       1.0000 0.88540  0.88940  0.43450  Biso   1.000  C
  C5       1.0000 0.84040  0.82570  0.59720  Biso   1.000  C
  C6       1.0000 0.86480  0.43860  0.55760  Biso   1.000  C
  C7       1.0000 0.86250  0.46690  0.46530  Biso   1.000  C
  C8       1.0000 0.85750  0.57070  0.45350  Biso   1.000  C
  C9       1.0000 0.84850  0.92650  0.59030  Biso   1.000  C
  C10      1.0000 0.87860  0.78720  0.43520  Biso   1.000  C
  C11      1.0000 0.87950  0.29790  0.39410  Biso   1.000  C
  C12      1.0000 0.85460  0.64800  0.52700  Biso   1.000  C
  C13      1.0000 0.38130  0.86900  0.39350  Biso   1.000  C
  C14      1.0000 0.56390  0.87630  0.34220  Biso   1.000  C
  C15      1.0000 0.51850  0.85730  0.75370  Biso   1.000  C
  C16      1.0000 0.43450  0.88540  0.88940  Biso   1.000  C
  C17      1.0000 0.59720  0.84040  0.82570  Biso   1.000  C
  C18      1.0000 0.55760  0.86480  0.43860  Biso   1.000  C
  C19      1.0000 0.46530  0.86250  0.46690  Biso   1.000  C
  C20      1.0000 0.45350  0.85750  0.57070  Biso   1.000  C
  C21      1.0000 0.59030  0.84850  0.92650  Biso   1.000  C
  C22      1.0000 0.43520  0.87860  0.78720  Biso   1.000  C
  C23      1.0000 0.39410  0.87950  0.29790  Biso   1.000  C
  C24      1.0000 0.52700  0.85460  0.64800  Biso   1.000  C
  C25      1.0000 0.39350  0.38130  0.86900  Biso   1.000  C
  C26      1.0000 0.34220  0.56390  0.87630  Biso   1.000  C
  C27      1.0000 0.75370  0.51850  0.85730  Biso   1.000  C
  C28      1.0000 0.88940  0.43450  0.88540  Biso   1.000  C
  C29      1.0000 0.82570  0.59720  0.84040  Biso   1.000  C
  C30      1.0000 0.43860  0.55760  0.86480  Biso   1.000  C
  C31      1.0000 0.46690  0.46530  0.86250  Biso   1.000  C
  C32      1.0000 0.57070  0.45350  0.85750  Biso   1.000  C
  C33      1.0000 0.92650  0.59030  0.84850  Biso   1.000  C
  C34      1.0000 0.78720  0.43520  0.87860  Biso   1.000  C
  C35      1.0000 0.29790  0.39410  0.87950  Biso   1.000  C
  C36      1.0000 0.64800  0.52700  0.85460  Biso   1.000  C
  C37      1.0000 0.60650  0.13100  0.61870  Biso   1.000  C
  C38      1.0000 0.65780  0.12370  0.43610  Biso   1.000  C
  C39      1.0000 0.24630  0.14270  0.48150  Biso   1.000  C
  C40      1.0000 0.11060  0.11460  0.56550  Biso   1.000  C
  C41      1.0000 0.17430  0.15960  0.40280  Biso   1.000  C
  C42      1.0000 0.56140  0.13520  0.44240  Biso   1.000  C
  C43      1.0000 0.53310  0.13750  0.53470  Biso   1.000  C
  C44      1.0000 0.42930  0.14250  0.54650  Biso   1.000  C
  C45      1.0000 0.07350  0.15150  0.40970  Biso   1.000  C
  C46      1.0000 0.21280  0.12140  0.56480  Biso   1.000  C
  C47      1.0000 0.70210  0.12050  0.60590  Biso   1.000  C
  C48      1.0000 0.35200  0.14540  0.47300  Biso   1.000  C
  C49      1.0000 0.13100  0.61870  0.60650  Biso   1.000  C
  C50      1.0000 0.12370  0.43610  0.65780  Biso   1.000  C
  C51      1.0000 0.14270  0.48150  0.24630  Biso   1.000  C
  C52      1.0000 0.11460  0.56550  0.11060  Biso   1.000  C
  C53      1.0000 0.15960  0.40280  0.17430  Biso   1.000  C
  C54      1.0000 0.13520  0.44240  0.56140  Biso   1.000  C
  C55      1.0000 0.13750  0.53470  0.53310  Biso   1.000  C
  C56      1.0000 0.14250  0.54650  0.42930  Biso   1.000  C
  C57      1.0000 0.15150  0.40970  0.07350  Biso   1.000  C
  C58      1.0000 0.12140  0.56480  0.21280  Biso   1.000  C
  C59      1.0000 0.12050  0.60590  0.70210  Biso   1.000  C
  C60      1.0000 0.14540  0.47300  0.35200  Biso   1.000  C
  C61      1.0000 0.61870  0.60650  0.13100  Biso   1.000  C
  C62      1.0000 0.43610  0.65780  0.12370  Biso   1.000  C
  C63      1.0000 0.48150  0.24630  0.14270  Biso   1.000  C
  C64      1.0000 0.56550  0.11060  0.11460  Biso   1.000  C
  C65      1.0000 0.40280  0.17430  0.15960  Biso   1.000  C
  C66      1.0000 0.44240  0.56140  0.13520  Biso   1.000  C
  C67      1.0000 0.53470  0.53310  0.13750  Biso   1.000  C
  C68      1.0000 0.54650  0.42930  0.14250  Biso   1.000  C
  C69      1.0000 0.40970  0.07350  0.15150  Biso   1.000  C
  C70      1.0000 0.56480  0.21280  0.12140  Biso   1.000  C
  C71      1.0000 0.60590  0.70210  0.12050  Biso   1.000  C
  C72      1.0000 0.47300  0.35200  0.14540  Biso   1.000  C
  N1       1.0000 0.88380  0.27160  0.48330  Biso   1.000  N
  N2       1.0000 0.87110  0.95840  0.51090  Biso   1.000  N
  N3       1.0000 0.48330  0.88380  0.27160  Biso   1.000  N
  N4       1.0000 0.51090  0.87110  0.95840  Biso   1.000  N
  N5       1.0000 0.27160  0.48330  0.88380  Biso   1.000  N
  N6       1.0000 0.95840  0.51090  0.87110  Biso   1.000  N
  N7       1.0000 0.72840  0.11620  0.51670  Biso   1.000  N
  N8       1.0000 0.04160  0.12890  0.48910  Biso   1.000  N
  N9       1.0000 0.11620  0.51670  0.72840  Biso   1.000  N
  N10      1.0000 0.12890  0.48910  0.04160  Biso   1.000  N
  N11      1.0000 0.51670  0.72840  0.11620  Biso   1.000  N
  N12      1.0000 0.48910  0.04160  0.12890  Biso   1.000  N
  O1       1.0000 0.93819  0.16828  0.65760  Biso   1.000  O
  O2       1.0000 0.09540  0.13940  0.82210  Biso   1.000  O
  O3       1.0000 0.65760  0.93819  0.16828  Biso   1.000  O
  O4       1.0000 0.82210  0.09540  0.13940  Biso   1.000  O
  O5       1.0000 0.16828  0.65760  0.93819  Biso   1.000  O
  O6       1.0000 0.13940  0.82210  0.09540  Biso   1.000  O
  O7       1.0000 0.83172  0.06181  0.34240  Biso   1.000  O
  O8       1.0000 0.86060  0.90460  0.17790  Biso   1.000  O
  O9       1.0000 0.06181  0.34240  0.83172  Biso   1.000  O
  O10      1.0000 0.90460  0.17790  0.86060  Biso   1.000  O
  O11      1.0000 0.34240  0.83172  0.06181  Biso   1.000  O
  O12      1.0000 0.17790  0.86060  0.90460  Biso   1.000  O
