data_image0
_cell_length_a       13.5977
_cell_length_b       13.5977
_cell_length_c       13.5977
_cell_angle_alpha    101.965
_cell_angle_beta     101.965
_cell_angle_gamma    101.965

_symmetry_space_group_name_H-M    P 1
_symmetry_int_tables_number       1

loop_
  _symmetry_equiv_pos_as_xyz
  'x, y, z'

loop_
  _atom_site_label
  _atom_site_occupancy
  _atom_site_fract_x
  _atom_site_fract_y
  _atom_site_fract_z
  _atom_site_thermal_displace_type
  _atom_site_B_iso_or_equiv
  _atom_site_type_symbol
  Ni1      1.0000 0.61805  0.38195  0.00000  Biso   1.000  Ni
  Ni2      1.0000 0.00000  0.61805  0.38195  Biso   1.000  Ni
  Ni3      1.0000 0.38195  0.00000  0.61805  Biso   1.000  Ni
  H1       1.0000 0.82530  0.37950  0.12900  Biso   1.000  H
  H2       1.0000 0.90850  0.36570  0.81750  Biso   1.000  H
  H3       1.0000 0.24570  0.39450  0.88170  Biso   1.000  H
  H4       1.0000 0.41610  0.40630  0.87950  Biso   1.000  H
  H5       1.0000 0.47590  0.33170  0.14450  Biso   1.000  H
  H6       1.0000 0.98620  0.35900  0.11760  Biso   1.000  H
  H7       1.0000 0.08510  0.36030  0.88960  Biso   1.000  H
  H8       1.0000 0.13640  0.34810  0.09290  Biso   1.000  H
  H9       1.0000 0.30740  0.31770  0.15420  Biso   1.000  H
  H10      1.0000 0.74800  0.38250  0.83670  Biso   1.000  H
  H11      1.0000 0.12900  0.82530  0.37950  Biso   1.000  H
  H12      1.0000 0.81750  0.90850  0.36570  Biso   1.000  H
  H13      1.0000 0.88170  0.24570  0.39450  Biso   1.000  H
  H14      1.0000 0.87950  0.41610  0.40630  Biso   1.000  H
  H15      1.0000 0.14450  0.47590  0.33170  Biso   1.000  H
  H16      1.0000 0.11760  0.98620  0.35900  Biso   1.000  H
  H17      1.0000 0.88960  0.08510  0.36030  Biso   1.000  H
  H18      1.0000 0.09290  0.13640  0.34810  Biso   1.000  H
  H19      1.0000 0.15420  0.30740  0.31770  Biso   1.000  H
  H20      1.0000 0.83670  0.74800  0.38250  Biso   1.000  H
  H21      1.0000 0.37950  0.12900  0.82530  Biso   1.000  H
  H22      1.0000 0.36570  0.81750  0.90850  Biso   1.000  H
  H23      1.0000 0.39450  0.88170  0.24570  Biso   1.000  H
  H24      1.0000 0.40630  0.87950  0.41610  Biso   1.000  H
  H25      1.0000 0.33170  0.14450  0.47590  Biso   1.000  H
  H26      1.0000 0.35900  0.11760  0.98620  Biso   1.000  H
  H27      1.0000 0.36030  0.88960  0.08510  Biso   1.000  H
  H28      1.0000 0.34810  0.09290  0.13640  Biso   1.000  H
  H29      1.0000 0.31770  0.15420  0.30740  Biso   1.000  H
  H30      1.0000 0.38250  0.83670  0.74800  Biso   1.000  H
  H31      1.0000 0.62050  0.17470  0.87100  Biso   1.000  H
  H32      1.0000 0.63430  0.09150  0.18250  Biso   1.000  H
  H33      1.0000 0.60550  0.75430  0.11830  Biso   1.000  H
  H34      1.0000 0.59370  0.58390  0.12050  Biso   1.000  H
  H35      1.0000 0.66830  0.52410  0.85550  Biso   1.000  H
  H36      1.0000 0.64100  0.01380  0.88240  Biso   1.000  H
  H37      1.0000 0.63970  0.91490  0.11040  Biso   1.000  H
  H38      1.0000 0.65190  0.86360  0.90710  Biso   1.000  H
  H39      1.0000 0.68230  0.69260  0.84580  Biso   1.000  H
  H40      1.0000 0.61750  0.25200  0.16330  Biso   1.000  H
  H41      1.0000 0.17470  0.87100  0.62050  Biso   1.000  H
  H42      1.0000 0.09150  0.18250  0.63430  Biso   1.000  H
  H43      1.0000 0.75430  0.11830  0.60550  Biso   1.000  H
  H44      1.0000 0.58390  0.12050  0.59370  Biso   1.000  H
  H45      1.0000 0.52410  0.85550  0.66830  Biso   1.000  H
  H46      1.0000 0.01380  0.88240  0.64100  Biso   1.000  H
  H47      1.0000 0.91490  0.11040  0.63970  Biso   1.000  H
  H48      1.0000 0.86360  0.90710  0.65190  Biso   1.000  H
  H49      1.0000 0.69260  0.84580  0.68230  Biso   1.000  H
  H50      1.0000 0.25200  0.16330  0.61750  Biso   1.000  H
  H51      1.0000 0.87100  0.62050  0.17470  Biso   1.000  H
  H52      1.0000 0.18250  0.63430  0.09150  Biso   1.000  H
  H53      1.0000 0.11830  0.60550  0.75430  Biso   1.000  H
  H54      1.0000 0.12050  0.59370  0.58390  Biso   1.000  H
  H55      1.0000 0.85550  0.66830  0.52410  Biso   1.000  H
  H56      1.0000 0.88240  0.64100  0.01380  Biso   1.000  H
  H57      1.0000 0.11040  0.63970  0.91490  Biso   1.000  H
  H58      1.0000 0.90710  0.65190  0.86360  Biso   1.000  H
  H59      1.0000 0.84580  0.68230  0.69260  Biso   1.000  H
  H60      1.0000 0.16330  0.61750  0.25200  Biso   1.000  H
  W1       1.0000 0.50000  0.29285  0.70715  Biso   1.000  W
  W2       1.0000 0.70715  0.50000  0.29285  Biso   1.000  W
  W3       1.0000 0.29285  0.70715  0.50000  Biso   1.000  W
  C1       1.0000 0.84238  0.37652  0.06510  Biso   1.000  C
  C2       1.0000 0.89363  0.36887  0.88230  Biso   1.000  C
  C3       1.0000 0.29160  0.38210  0.93700  Biso   1.000  C
  C4       1.0000 0.96843  0.36365  0.96674  Biso   1.000  C
  C5       1.0000 0.39370  0.38830  0.93580  Biso   1.000  C
  C6       1.0000 0.42880  0.34470  0.09070  Biso   1.000  C
  C7       1.0000 0.25650  0.35730  0.01910  Biso   1.000  C
  C8       1.0000 0.93951  0.36535  0.05918  Biso   1.000  C
  C9       1.0000 0.07260  0.35940  0.95490  Biso   1.000  C
  C10      1.0000 0.15020  0.35420  0.02920  Biso   1.000  C
  C11      1.0000 0.32810  0.33690  0.09750  Biso   1.000  C
  C12      1.0000 0.79733  0.37882  0.89452  Biso   1.000  C
  C13      1.0000 0.06510  0.84238  0.37652  Biso   1.000  C
  C14      1.0000 0.88230  0.89363  0.36887  Biso   1.000  C
  C15      1.0000 0.93700  0.29160  0.38210  Biso   1.000  C
  C16      1.0000 0.96674  0.96843  0.36365  Biso   1.000  C
  C17      1.0000 0.93580  0.39370  0.38830  Biso   1.000  C
  C18      1.0000 0.09070  0.42880  0.34470  Biso   1.000  C
  C19      1.0000 0.01910  0.25650  0.35730  Biso   1.000  C
  C20      1.0000 0.05918  0.93951  0.36535  Biso   1.000  C
  C21      1.0000 0.95490  0.07260  0.35940  Biso   1.000  C
  C22      1.0000 0.02920  0.15020  0.35420  Biso   1.000  C
  C23      1.0000 0.09750  0.32810  0.33690  Biso   1.000  C
  C24      1.0000 0.89452  0.79733  0.37882  Biso   1.000  C
  C25      1.0000 0.37652  0.06510  0.84238  Biso   1.000  C
  C26      1.0000 0.36887  0.88230  0.89363  Biso   1.000  C
  C27      1.0000 0.38210  0.93700  0.29160  Biso   1.000  C
  C28      1.0000 0.36365  0.96674  0.96843  Biso   1.000  C
  C29      1.0000 0.38830  0.93580  0.39370  Biso   1.000  C
  C30      1.0000 0.34470  0.09070  0.42880  Biso   1.000  C
  C31      1.0000 0.35730  0.01910  0.25650  Biso   1.000  C
  C32      1.0000 0.36535  0.05918  0.93951  Biso   1.000  C
  C33      1.0000 0.35940  0.95490  0.07260  Biso   1.000  C
  C34      1.0000 0.35420  0.02920  0.15020  Biso   1.000  C
  C35      1.0000 0.33690  0.09750  0.32810  Biso   1.000  C
  C36      1.0000 0.37882  0.89452  0.79733  Biso   1.000  C
  C37      1.0000 0.62348  0.15762  0.93490  Biso   1.000  C
  C38      1.0000 0.63113  0.10637  0.11770  Biso   1.000  C
  C39      1.0000 0.61790  0.70840  0.06300  Biso   1.000  C
  C40      1.0000 0.63635  0.03157  0.03326  Biso   1.000  C
  C41      1.0000 0.61170  0.60630  0.06420  Biso   1.000  C
  C42      1.0000 0.65530  0.57120  0.90930  Biso   1.000  C
  C43      1.0000 0.64270  0.74350  0.98090  Biso   1.000  C
  C44      1.0000 0.63465  0.06049  0.94082  Biso   1.000  C
  C45      1.0000 0.64060  0.92740  0.04510  Biso   1.000  C
  C46      1.0000 0.64580  0.84980  0.97080  Biso   1.000  C
  C47      1.0000 0.66310  0.67190  0.90250  Biso   1.000  C
  C48      1.0000 0.62118  0.20267  0.10548  Biso   1.000  C
  C49      1.0000 0.15762  0.93490  0.62348  Biso   1.000  C
  C50      1.0000 0.10637  0.11770  0.63113  Biso   1.000  C
  C51      1.0000 0.70840  0.06300  0.61790  Biso   1.000  C
  C52      1.0000 0.03157  0.03326  0.63635  Biso   1.000  C
  C53      1.0000 0.60630  0.06420  0.61170  Biso   1.000  C
  C54      1.0000 0.57120  0.90930  0.65530  Biso   1.000  C
  C55      1.0000 0.74350  0.98090  0.64270  Biso   1.000  C
  C56      1.0000 0.06049  0.94082  0.63465  Biso   1.000  C
  C57      1.0000 0.92740  0.04510  0.64060  Biso   1.000  C
  C58      1.0000 0.84980  0.97080  0.64580  Biso   1.000  C
  C59      1.0000 0.67190  0.90250  0.66310  Biso   1.000  C
  C60      1.0000 0.20267  0.10548  0.62118  Biso   1.000  C
  C61      1.0000 0.93490  0.62348  0.15762  Biso   1.000  C
  C62      1.0000 0.11770  0.63113  0.10637  Biso   1.000  C
  C63      1.0000 0.06300  0.61790  0.70840  Biso   1.000  C
  C64      1.0000 0.03326  0.63635  0.03157  Biso   1.000  C
  C65      1.0000 0.06420  0.61170  0.60630  Biso   1.000  C
  C66      1.0000 0.90930  0.65530  0.57120  Biso   1.000  C
  C67      1.0000 0.98090  0.64270  0.74350  Biso   1.000  C
  C68      1.0000 0.94082  0.63465  0.06049  Biso   1.000  C
  C69      1.0000 0.04510  0.64060  0.92740  Biso   1.000  C
  C70      1.0000 0.97080  0.64580  0.84980  Biso   1.000  C
  C71      1.0000 0.90250  0.66310  0.67190  Biso   1.000  C
  C72      1.0000 0.10548  0.62118  0.20267  Biso   1.000  C
  N1       1.0000 0.77106  0.38334  0.98431  Biso   1.000  N
  N2       1.0000 0.46338  0.37004  0.01140  Biso   1.000  N
  N3       1.0000 0.98431  0.77106  0.38334  Biso   1.000  N
  N4       1.0000 0.01140  0.46338  0.37004  Biso   1.000  N
  N5       1.0000 0.38334  0.98431  0.77106  Biso   1.000  N
  N6       1.0000 0.37004  0.01140  0.46338  Biso   1.000  N
  N7       1.0000 0.61666  0.22894  0.01569  Biso   1.000  N
  N8       1.0000 0.62996  0.53662  0.98860  Biso   1.000  N
  N9       1.0000 0.22894  0.01569  0.61666  Biso   1.000  N
  N10      1.0000 0.53662  0.98860  0.62996  Biso   1.000  N
  N11      1.0000 0.01569  0.61666  0.22894  Biso   1.000  N
  N12      1.0000 0.98860  0.62996  0.53662  Biso   1.000  N
  O1       1.0000 0.56274  0.33053  0.84229  Biso   1.000  O
  O2       1.0000 0.59423  0.31972  0.63729  Biso   1.000  O
  O3       1.0000 0.84229  0.56274  0.33053  Biso   1.000  O
  O4       1.0000 0.63729  0.59423  0.31972  Biso   1.000  O
  O5       1.0000 0.33053  0.84229  0.56274  Biso   1.000  O
  O6       1.0000 0.31972  0.63729  0.59423  Biso   1.000  O
  O7       1.0000 0.66947  0.43726  0.15771  Biso   1.000  O
  O8       1.0000 0.68028  0.40577  0.36271  Biso   1.000  O
  O9       1.0000 0.43726  0.15771  0.66947  Biso   1.000  O
  O10      1.0000 0.40577  0.36271  0.68028  Biso   1.000  O
  O11      1.0000 0.15771  0.66947  0.43726  Biso   1.000  O
  O12      1.0000 0.36271  0.68028  0.40577  Biso   1.000  O
