data_image0
_cell_length_a       7.31
_cell_length_b       10.145
_cell_length_c       18.28
_cell_angle_alpha    90
_cell_angle_beta     90
_cell_angle_gamma    94.645

_symmetry_space_group_name_H-M    P 1
_symmetry_int_tables_number       1

loop_
  _symmetry_equiv_pos_as_xyz
  'x, y, z'

loop_
  _atom_site_label
  _atom_site_occupancy
  _atom_site_fract_x
  _atom_site_fract_y
  _atom_site_fract_z
  _atom_site_thermal_displace_type
  _atom_site_B_iso_or_equiv
  _atom_site_type_symbol
  Cu1      1.0000 0.86646  0.21750  0.90687  Biso   1.000  Cu
  Cu2      1.0000 0.04992  0.93480  0.93152  Biso   1.000  Cu
  Cu3      1.0000 0.63354  0.28250  0.40687  Biso   1.000  Cu
  Cu4      1.0000 0.45008  0.56520  0.43152  Biso   1.000  Cu
  Cu5      1.0000 0.13354  0.78250  0.09313  Biso   1.000  Cu
  Cu6      1.0000 0.95008  0.06520  0.06848  Biso   1.000  Cu
  Cu7      1.0000 0.36646  0.71750  0.59313  Biso   1.000  Cu
  Cu8      1.0000 0.54992  0.43480  0.56848  Biso   1.000  Cu
  H1       1.0000 0.78940  0.16870  0.69440  Biso   1.000  H
  H2       1.0000 0.94890  0.79900  0.70690  Biso   1.000  H
  H3       1.0000 0.78730  0.94240  0.51330  Biso   1.000  H
  H4       1.0000 0.71060  0.33130  0.19440  Biso   1.000  H
  H5       1.0000 0.55110  0.70100  0.20690  Biso   1.000  H
  H6       1.0000 0.71270  0.55760  0.01330  Biso   1.000  H
  H7       1.0000 0.21060  0.83130  0.30560  Biso   1.000  H
  H8       1.0000 0.05110  0.20100  0.29310  Biso   1.000  H
  H9       1.0000 0.21270  0.05760  0.48670  Biso   1.000  H
  H10      1.0000 0.28940  0.66870  0.80560  Biso   1.000  H
  H11      1.0000 0.44890  0.29900  0.79310  Biso   1.000  H
  H12      1.0000 0.28730  0.44240  0.98670  Biso   1.000  H
  C1       1.0000 0.87020  0.85300  0.60491  Biso   1.000  C
  C2       1.0000 0.77980  0.07480  0.59693  Biso   1.000  C
  C3       1.0000 0.81140  0.08930  0.67174  Biso   1.000  C
  C4       1.0000 0.87500  0.98780  0.71335  Biso   1.000  C
  C5       1.0000 0.90720  0.01080  0.79332  Biso   1.000  C
  C6       1.0000 0.90570  0.86780  0.67988  Biso   1.000  C
  C7       1.0000 0.80890  0.95410  0.56306  Biso   1.000  C
  C8       1.0000 0.70890  0.18650  0.55506  Biso   1.000  C
  C9       1.0000 0.62980  0.64700  0.10491  Biso   1.000  C
  C10      1.0000 0.72020  0.42520  0.09693  Biso   1.000  C
  C11      1.0000 0.68860  0.41070  0.17174  Biso   1.000  C
  C12      1.0000 0.62500  0.51220  0.21335  Biso   1.000  C
  C13      1.0000 0.59280  0.48920  0.29332  Biso   1.000  C
  C14      1.0000 0.59430  0.63220  0.17988  Biso   1.000  C
  C15      1.0000 0.69110  0.54590  0.06306  Biso   1.000  C
  C16      1.0000 0.79110  0.31350  0.05506  Biso   1.000  C
  C17      1.0000 0.12980  0.14700  0.39509  Biso   1.000  C
  C18      1.0000 0.22020  0.92520  0.40307  Biso   1.000  C
  C19      1.0000 0.18860  0.91070  0.32826  Biso   1.000  C
  C20      1.0000 0.12500  0.01220  0.28665  Biso   1.000  C
  C21      1.0000 0.09280  0.98920  0.20668  Biso   1.000  C
  C22      1.0000 0.09430  0.13220  0.32012  Biso   1.000  C
  C23      1.0000 0.19110  0.04590  0.43694  Biso   1.000  C
  C24      1.0000 0.29110  0.81350  0.44494  Biso   1.000  C
  C25      1.0000 0.37020  0.35300  0.89509  Biso   1.000  C
  C26      1.0000 0.27980  0.57480  0.90307  Biso   1.000  C
  C27      1.0000 0.31140  0.58930  0.82826  Biso   1.000  C
  C28      1.0000 0.37500  0.48780  0.78665  Biso   1.000  C
  C29      1.0000 0.40720  0.51080  0.70668  Biso   1.000  C
  C30      1.0000 0.40570  0.36780  0.82012  Biso   1.000  C
  C31      1.0000 0.30890  0.45410  0.93694  Biso   1.000  C
  C32      1.0000 0.20890  0.68650  0.94494  Biso   1.000  C
  S1       1.0000 0.88491  0.69433  0.56620  Biso   1.000  S
  S2       1.0000 0.61509  0.80567  0.06620  Biso   1.000  S
  S3       1.0000 0.11509  0.30567  0.43380  Biso   1.000  S
  S4       1.0000 0.38491  0.19433  0.93380  Biso   1.000  S
  O1       1.0000 0.95450  0.91567  0.83247  Biso   1.000  O
  O2       1.0000 0.86860  0.05416  0.96497  Biso   1.000  O
  O3       1.0000 0.66160  0.16570  0.48956  Biso   1.000  O
  O4       1.0000 0.88410  0.12610  0.81496  Biso   1.000  O
  O5       1.0000 0.88840  0.70660  0.48738  Biso   1.000  O
  O6       1.0000 0.70030  0.29360  0.59050  Biso   1.000  O
  O7       1.0000 0.72090  0.62010  0.59378  Biso   1.000  O
  O8       1.0000 0.04860  0.64280  0.59693  Biso   1.000  O
  O9       1.0000 0.88870  0.37990  0.84795  Biso   1.000  O
  O10      1.0000 0.54550  0.58433  0.33247  Biso   1.000  O
  O11      1.0000 0.63140  0.44584  0.46497  Biso   1.000  O
  O12      1.0000 0.83840  0.33430  0.98956  Biso   1.000  O
  O13      1.0000 0.61590  0.37390  0.31496  Biso   1.000  O
  O14      1.0000 0.61160  0.79340  0.98738  Biso   1.000  O
  O15      1.0000 0.79970  0.20640  0.09050  Biso   1.000  O
  O16      1.0000 0.77910  0.87990  0.09378  Biso   1.000  O
  O17      1.0000 0.45140  0.85720  0.09693  Biso   1.000  O
  O18      1.0000 0.61130  0.12010  0.34795  Biso   1.000  O
  O19      1.0000 0.04550  0.08433  0.16753  Biso   1.000  O
  O20      1.0000 0.13140  0.94584  0.03503  Biso   1.000  O
  O21      1.0000 0.33840  0.83430  0.51044  Biso   1.000  O
  O22      1.0000 0.11590  0.87390  0.18504  Biso   1.000  O
  O23      1.0000 0.11160  0.29340  0.51262  Biso   1.000  O
  O24      1.0000 0.29970  0.70640  0.40950  Biso   1.000  O
  O25      1.0000 0.27910  0.37990  0.40622  Biso   1.000  O
  O26      1.0000 0.95140  0.35720  0.40307  Biso   1.000  O
  O27      1.0000 0.11130  0.62010  0.15205  Biso   1.000  O
  O28      1.0000 0.45450  0.41567  0.66753  Biso   1.000  O
  O29      1.0000 0.36860  0.55416  0.53503  Biso   1.000  O
  O30      1.0000 0.16160  0.66570  0.01044  Biso   1.000  O
  O31      1.0000 0.38410  0.62610  0.68504  Biso   1.000  O
  O32      1.0000 0.38840  0.20660  0.01262  Biso   1.000  O
  O33      1.0000 0.20030  0.79360  0.90950  Biso   1.000  O
  O34      1.0000 0.22090  0.12010  0.90622  Biso   1.000  O
  O35      1.0000 0.54860  0.14280  0.90307  Biso   1.000  O
  O36      1.0000 0.38870  0.87990  0.65205  Biso   1.000  O
