data_image0
_cell_length_a       7.2949
_cell_length_b       10.1245
_cell_length_c       18.2726
_cell_angle_alpha    90
_cell_angle_beta     90
_cell_angle_gamma    94.891

_symmetry_space_group_name_H-M    P 1
_symmetry_int_tables_number       1

loop_
  _symmetry_equiv_pos_as_xyz
  'x, y, z'

loop_
  _atom_site_label
  _atom_site_occupancy
  _atom_site_fract_x
  _atom_site_fract_y
  _atom_site_fract_z
  _atom_site_thermal_displace_type
  _atom_site_B_iso_or_equiv
  _atom_site_type_symbol
  Cu1      1.0000 0.86633  0.21714  0.90752  Biso   1.000  Cu
  Cu2      1.0000 0.05141  0.93577  0.93149  Biso   1.000  Cu
  Cu3      1.0000 0.63367  0.28286  0.40752  Biso   1.000  Cu
  Cu4      1.0000 0.44859  0.56423  0.43149  Biso   1.000  Cu
  Cu5      1.0000 0.13367  0.78286  0.09248  Biso   1.000  Cu
  Cu6      1.0000 0.94859  0.06423  0.06851  Biso   1.000  Cu
  Cu7      1.0000 0.36633  0.71714  0.59248  Biso   1.000  Cu
  Cu8      1.0000 0.55141  0.43577  0.56851  Biso   1.000  Cu
  H1       1.0000 0.79210  0.17090  0.69500  Biso   1.000  H
  H2       1.0000 0.95200  0.80100  0.70680  Biso   1.000  H
  H3       1.0000 0.79050  0.94570  0.51330  Biso   1.000  H
  H4       1.0000 0.70790  0.32910  0.19500  Biso   1.000  H
  H5       1.0000 0.54800  0.69900  0.20680  Biso   1.000  H
  H6       1.0000 0.70950  0.55430  0.01330  Biso   1.000  H
  H7       1.0000 0.20790  0.82910  0.30500  Biso   1.000  H
  H8       1.0000 0.04800  0.19900  0.29320  Biso   1.000  H
  H9       1.0000 0.20950  0.05430  0.48670  Biso   1.000  H
  H10      1.0000 0.29210  0.67090  0.80500  Biso   1.000  H
  H11      1.0000 0.45200  0.30100  0.79320  Biso   1.000  H
  H12      1.0000 0.29050  0.44570  0.98670  Biso   1.000  H
  C1       1.0000 0.87400  0.85550  0.60489  Biso   1.000  C
  C2       1.0000 0.78310  0.07700  0.59757  Biso   1.000  C
  C3       1.0000 0.81400  0.09160  0.67221  Biso   1.000  C
  C4       1.0000 0.87760  0.98910  0.71358  Biso   1.000  C
  C5       1.0000 0.90830  0.01170  0.79368  Biso   1.000  C
  C6       1.0000 0.90880  0.87000  0.67996  Biso   1.000  C
  C7       1.0000 0.81220  0.95700  0.56311  Biso   1.000  C
  C8       1.0000 0.71270  0.18880  0.55555  Biso   1.000  C
  C9       1.0000 0.62600  0.64450  0.10489  Biso   1.000  C
  C10      1.0000 0.71690  0.42300  0.09757  Biso   1.000  C
  C11      1.0000 0.68600  0.40840  0.17221  Biso   1.000  C
  C12      1.0000 0.62240  0.51090  0.21358  Biso   1.000  C
  C13      1.0000 0.59170  0.48830  0.29368  Biso   1.000  C
  C14      1.0000 0.59120  0.63000  0.17996  Biso   1.000  C
  C15      1.0000 0.68780  0.54300  0.06311  Biso   1.000  C
  C16      1.0000 0.78730  0.31120  0.05555  Biso   1.000  C
  C17      1.0000 0.12600  0.14450  0.39511  Biso   1.000  C
  C18      1.0000 0.21690  0.92300  0.40243  Biso   1.000  C
  C19      1.0000 0.18600  0.90840  0.32779  Biso   1.000  C
  C20      1.0000 0.12240  0.01090  0.28642  Biso   1.000  C
  C21      1.0000 0.09170  0.98830  0.20632  Biso   1.000  C
  C22      1.0000 0.09120  0.13000  0.32004  Biso   1.000  C
  C23      1.0000 0.18780  0.04300  0.43689  Biso   1.000  C
  C24      1.0000 0.28730  0.81120  0.44445  Biso   1.000  C
  C25      1.0000 0.37400  0.35550  0.89511  Biso   1.000  C
  C26      1.0000 0.28310  0.57700  0.90243  Biso   1.000  C
  C27      1.0000 0.31400  0.59160  0.82779  Biso   1.000  C
  C28      1.0000 0.37760  0.48910  0.78642  Biso   1.000  C
  C29      1.0000 0.40830  0.51170  0.70632  Biso   1.000  C
  C30      1.0000 0.40880  0.37000  0.82004  Biso   1.000  C
  C31      1.0000 0.31220  0.45700  0.93689  Biso   1.000  C
  C32      1.0000 0.21270  0.68880  0.94445  Biso   1.000  C
  S1       1.0000 0.88602  0.69624  0.56649  Biso   1.000  S
  S2       1.0000 0.61398  0.80376  0.06649  Biso   1.000  S
  S3       1.0000 0.11398  0.30376  0.43351  Biso   1.000  S
  S4       1.0000 0.38602  0.19624  0.93351  Biso   1.000  S
  O1       1.0000 0.95560  0.91639  0.83231  Biso   1.000  O
  O2       1.0000 0.86700  0.05287  0.96501  Biso   1.000  O
  O3       1.0000 0.66310  0.16722  0.49025  Biso   1.000  O
  O4       1.0000 0.88420  0.12719  0.81545  Biso   1.000  O
  O5       1.0000 0.89210  0.70861  0.48754  Biso   1.000  O
  O6       1.0000 0.70500  0.29678  0.59072  Biso   1.000  O
  O7       1.0000 0.71730  0.62328  0.59294  Biso   1.000  O
  O8       1.0000 0.04810  0.64284  0.59805  Biso   1.000  O
  O9       1.0000 0.89140  0.38117  0.84953  Biso   1.000  O
  O10      1.0000 0.54440  0.58361  0.33231  Biso   1.000  O
  O11      1.0000 0.63300  0.44713  0.46501  Biso   1.000  O
  O12      1.0000 0.83690  0.33278  0.99025  Biso   1.000  O
  O13      1.0000 0.61580  0.37281  0.31545  Biso   1.000  O
  O14      1.0000 0.60790  0.79139  0.98754  Biso   1.000  O
  O15      1.0000 0.79500  0.20322  0.09072  Biso   1.000  O
  O16      1.0000 0.78270  0.87672  0.09294  Biso   1.000  O
  O17      1.0000 0.45190  0.85716  0.09805  Biso   1.000  O
  O18      1.0000 0.60860  0.11883  0.34953  Biso   1.000  O
  O19      1.0000 0.04440  0.08361  0.16769  Biso   1.000  O
  O20      1.0000 0.13300  0.94713  0.03499  Biso   1.000  O
  O21      1.0000 0.33690  0.83278  0.50975  Biso   1.000  O
  O22      1.0000 0.11580  0.87281  0.18455  Biso   1.000  O
  O23      1.0000 0.10790  0.29139  0.51246  Biso   1.000  O
  O24      1.0000 0.29500  0.70322  0.40928  Biso   1.000  O
  O25      1.0000 0.28270  0.37672  0.40706  Biso   1.000  O
  O26      1.0000 0.95190  0.35716  0.40195  Biso   1.000  O
  O27      1.0000 0.10860  0.61883  0.15047  Biso   1.000  O
  O28      1.0000 0.45560  0.41639  0.66769  Biso   1.000  O
  O29      1.0000 0.36700  0.55287  0.53499  Biso   1.000  O
  O30      1.0000 0.16310  0.66722  0.00975  Biso   1.000  O
  O31      1.0000 0.38420  0.62719  0.68455  Biso   1.000  O
  O32      1.0000 0.39210  0.20861  0.01246  Biso   1.000  O
  O33      1.0000 0.20500  0.79678  0.90928  Biso   1.000  O
  O34      1.0000 0.21730  0.12328  0.90706  Biso   1.000  O
  O35      1.0000 0.54810  0.14284  0.90195  Biso   1.000  O
  O36      1.0000 0.39140  0.88117  0.65047  Biso   1.000  O
