data_image0
_cell_length_a       7.3378
_cell_length_b       10.1447
_cell_length_c       18.201
_cell_angle_alpha    90
_cell_angle_beta     90
_cell_angle_gamma    94.393

_symmetry_space_group_name_H-M    P 1
_symmetry_int_tables_number       1

loop_
  _symmetry_equiv_pos_as_xyz
  'x, y, z'

loop_
  _atom_site_label
  _atom_site_occupancy
  _atom_site_fract_x
  _atom_site_fract_y
  _atom_site_fract_z
  _atom_site_thermal_displace_type
  _atom_site_B_iso_or_equiv
  _atom_site_type_symbol
  Cu1      1.0000 0.86652  0.21787  0.90601  Biso   1.000  Cu
  Cu2      1.0000 0.04737  0.93329  0.93157  Biso   1.000  Cu
  Cu3      1.0000 0.63348  0.28213  0.40601  Biso   1.000  Cu
  Cu4      1.0000 0.45263  0.56671  0.43157  Biso   1.000  Cu
  Cu5      1.0000 0.13348  0.78213  0.09399  Biso   1.000  Cu
  Cu6      1.0000 0.95263  0.06671  0.06843  Biso   1.000  Cu
  Cu7      1.0000 0.36652  0.71787  0.59399  Biso   1.000  Cu
  Cu8      1.0000 0.54737  0.43329  0.56843  Biso   1.000  Cu
  H1       1.0000 0.78650  0.16680  0.69380  Biso   1.000  H
  H2       1.0000 0.94700  0.79800  0.70670  Biso   1.000  H
  H3       1.0000 0.78350  0.93930  0.51250  Biso   1.000  H
  H4       1.0000 0.71350  0.33320  0.19380  Biso   1.000  H
  H5       1.0000 0.55300  0.70200  0.20670  Biso   1.000  H
  H6       1.0000 0.71650  0.56070  0.01250  Biso   1.000  H
  H7       1.0000 0.21350  0.83320  0.30620  Biso   1.000  H
  H8       1.0000 0.05300  0.20200  0.29330  Biso   1.000  H
  H9       1.0000 0.21650  0.06070  0.48750  Biso   1.000  H
  H10      1.0000 0.28650  0.66680  0.80620  Biso   1.000  H
  H11      1.0000 0.44700  0.29800  0.79330  Biso   1.000  H
  H12      1.0000 0.28350  0.43930  0.98750  Biso   1.000  H
  C1       1.0000 0.86550  0.85010  0.60458  Biso   1.000  C
  C2       1.0000 0.77430  0.07190  0.59613  Biso   1.000  C
  C3       1.0000 0.80760  0.08710  0.67119  Biso   1.000  C
  C4       1.0000 0.87130  0.98590  0.71288  Biso   1.000  C
  C5       1.0000 0.90550  0.00980  0.79304  Biso   1.000  C
  C6       1.0000 0.90240  0.86620  0.67956  Biso   1.000  C
  C7       1.0000 0.80440  0.95120  0.56252  Biso   1.000  C
  C8       1.0000 0.70420  0.18350  0.55426  Biso   1.000  C
  C9       1.0000 0.63450  0.64990  0.10458  Biso   1.000  C
  C10      1.0000 0.72570  0.42810  0.09613  Biso   1.000  C
  C11      1.0000 0.69240  0.41290  0.17119  Biso   1.000  C
  C12      1.0000 0.62870  0.51410  0.21288  Biso   1.000  C
  C13      1.0000 0.59450  0.49020  0.29304  Biso   1.000  C
  C14      1.0000 0.59760  0.63380  0.17956  Biso   1.000  C
  C15      1.0000 0.69560  0.54880  0.06252  Biso   1.000  C
  C16      1.0000 0.79580  0.31650  0.05426  Biso   1.000  C
  C17      1.0000 0.13450  0.14990  0.39542  Biso   1.000  C
  C18      1.0000 0.22570  0.92810  0.40387  Biso   1.000  C
  C19      1.0000 0.19240  0.91290  0.32881  Biso   1.000  C
  C20      1.0000 0.12870  0.01410  0.28712  Biso   1.000  C
  C21      1.0000 0.09450  0.99020  0.20696  Biso   1.000  C
  C22      1.0000 0.09760  0.13380  0.32044  Biso   1.000  C
  C23      1.0000 0.19560  0.04880  0.43748  Biso   1.000  C
  C24      1.0000 0.29580  0.81650  0.44574  Biso   1.000  C
  C25      1.0000 0.36550  0.35010  0.89542  Biso   1.000  C
  C26      1.0000 0.27430  0.57190  0.90387  Biso   1.000  C
  C27      1.0000 0.30760  0.58710  0.82881  Biso   1.000  C
  C28      1.0000 0.37130  0.48590  0.78712  Biso   1.000  C
  C29      1.0000 0.40550  0.50980  0.70696  Biso   1.000  C
  C30      1.0000 0.40240  0.36620  0.82044  Biso   1.000  C
  C31      1.0000 0.30440  0.45120  0.93748  Biso   1.000  C
  C32      1.0000 0.20420  0.68350  0.94574  Biso   1.000  C
  S1       1.0000 0.88313  0.69170  0.56577  Biso   1.000  S
  S2       1.0000 0.61687  0.80830  0.06577  Biso   1.000  S
  S3       1.0000 0.11687  0.30830  0.43423  Biso   1.000  S
  S4       1.0000 0.38313  0.19170  0.93423  Biso   1.000  S
  O1       1.0000 0.95160  0.91530  0.83207  Biso   1.000  O
  O2       1.0000 0.87080  0.05630  0.96473  Biso   1.000  O
  O3       1.0000 0.65970  0.16340  0.48819  Biso   1.000  O
  O4       1.0000 0.88370  0.12570  0.81406  Biso   1.000  O
  O5       1.0000 0.88270  0.70290  0.48713  Biso   1.000  O
  O6       1.0000 0.69320  0.28910  0.58979  Biso   1.000  O
  O7       1.0000 0.72450  0.61550  0.59515  Biso   1.000  O
  O8       1.0000 0.04950  0.64270  0.59569  Biso   1.000  O
  O9       1.0000 0.88550  0.37830  0.84615  Biso   1.000  O
  O10      1.0000 0.54840  0.58470  0.33207  Biso   1.000  O
  O11      1.0000 0.62920  0.44370  0.46473  Biso   1.000  O
  O12      1.0000 0.84030  0.33660  0.98819  Biso   1.000  O
  O13      1.0000 0.61630  0.37430  0.31406  Biso   1.000  O
  O14      1.0000 0.61730  0.79710  0.98713  Biso   1.000  O
  O15      1.0000 0.80680  0.21090  0.08979  Biso   1.000  O
  O16      1.0000 0.77550  0.88450  0.09515  Biso   1.000  O
  O17      1.0000 0.45050  0.85730  0.09569  Biso   1.000  O
  O18      1.0000 0.61450  0.12170  0.34615  Biso   1.000  O
  O19      1.0000 0.04840  0.08470  0.16793  Biso   1.000  O
  O20      1.0000 0.12920  0.94370  0.03527  Biso   1.000  O
  O21      1.0000 0.34030  0.83660  0.51181  Biso   1.000  O
  O22      1.0000 0.11630  0.87430  0.18594  Biso   1.000  O
  O23      1.0000 0.11730  0.29710  0.51287  Biso   1.000  O
  O24      1.0000 0.30680  0.71090  0.41021  Biso   1.000  O
  O25      1.0000 0.27550  0.38450  0.40485  Biso   1.000  O
  O26      1.0000 0.95050  0.35730  0.40431  Biso   1.000  O
  O27      1.0000 0.11450  0.62170  0.15385  Biso   1.000  O
  O28      1.0000 0.45160  0.41530  0.66793  Biso   1.000  O
  O29      1.0000 0.37080  0.55630  0.53527  Biso   1.000  O
  O30      1.0000 0.15970  0.66340  0.01181  Biso   1.000  O
  O31      1.0000 0.38370  0.62570  0.68594  Biso   1.000  O
  O32      1.0000 0.38270  0.20290  0.01287  Biso   1.000  O
  O33      1.0000 0.19320  0.78910  0.91021  Biso   1.000  O
  O34      1.0000 0.22450  0.11550  0.90485  Biso   1.000  O
  O35      1.0000 0.54950  0.14270  0.90431  Biso   1.000  O
  O36      1.0000 0.38550  0.87830  0.65385  Biso   1.000  O
