data_image0
_cell_length_a       7.356
_cell_length_b       10.167
_cell_length_c       18.208
_cell_angle_alpha    90
_cell_angle_beta     90
_cell_angle_gamma    94.277

_symmetry_space_group_name_H-M    P 1
_symmetry_int_tables_number       1

loop_
  _symmetry_equiv_pos_as_xyz
  'x, y, z'

loop_
  _atom_site_label
  _atom_site_occupancy
  _atom_site_fract_x
  _atom_site_fract_y
  _atom_site_fract_z
  _atom_site_thermal_displace_type
  _atom_site_B_iso_or_equiv
  _atom_site_type_symbol
  Cu1      1.0000 0.86602  0.21699  0.90492  Biso   1.000  Cu
  Cu2      1.0000 0.04142  0.93045  0.93163  Biso   1.000  Cu
  Cu3      1.0000 0.63398  0.28301  0.40492  Biso   1.000  Cu
  Cu4      1.0000 0.45858  0.56955  0.43163  Biso   1.000  Cu
  Cu5      1.0000 0.13398  0.78301  0.09508  Biso   1.000  Cu
  Cu6      1.0000 0.95858  0.06955  0.06837  Biso   1.000  Cu
  Cu7      1.0000 0.36602  0.71699  0.59508  Biso   1.000  Cu
  Cu8      1.0000 0.54142  0.43045  0.56837  Biso   1.000  Cu
  H1       1.0000 0.77880  0.16410  0.69220  Biso   1.000  H
  H2       1.0000 0.93560  0.79410  0.70580  Biso   1.000  H
  H3       1.0000 0.77710  0.93570  0.51080  Biso   1.000  H
  H4       1.0000 0.72120  0.33590  0.19220  Biso   1.000  H
  H5       1.0000 0.56440  0.70590  0.20580  Biso   1.000  H
  H6       1.0000 0.72290  0.56430  0.01080  Biso   1.000  H
  H7       1.0000 0.22120  0.83590  0.30780  Biso   1.000  H
  H8       1.0000 0.06440  0.20590  0.29420  Biso   1.000  H
  H9       1.0000 0.22290  0.06430  0.48920  Biso   1.000  H
  H10      1.0000 0.27880  0.66410  0.80780  Biso   1.000  H
  H11      1.0000 0.43560  0.29410  0.79420  Biso   1.000  H
  H12      1.0000 0.27710  0.43570  0.98920  Biso   1.000  H
  C1       1.0000 0.85860  0.84730  0.60400  Biso   1.000  C
  C2       1.0000 0.76760  0.06830  0.59530  Biso   1.000  C
  C3       1.0000 0.80070  0.08450  0.66990  Biso   1.000  C
  C4       1.0000 0.86590  0.98390  0.71200  Biso   1.000  C
  C5       1.0000 0.90000  0.00820  0.79240  Biso   1.000  C
  C6       1.0000 0.89390  0.86300  0.67850  Biso   1.000  C
  C7       1.0000 0.79750  0.94770  0.56080  Biso   1.000  C
  C8       1.0000 0.69690  0.17980  0.55270  Biso   1.000  C
  C9       1.0000 0.64140  0.65270  0.10400  Biso   1.000  C
  C10      1.0000 0.73240  0.43170  0.09530  Biso   1.000  C
  C11      1.0000 0.69930  0.41550  0.16990  Biso   1.000  C
  C12      1.0000 0.63410  0.51610  0.21200  Biso   1.000  C
  C13      1.0000 0.60000  0.49180  0.29240  Biso   1.000  C
  C14      1.0000 0.60610  0.63700  0.17850  Biso   1.000  C
  C15      1.0000 0.70250  0.55230  0.06080  Biso   1.000  C
  C16      1.0000 0.80310  0.32020  0.05270  Biso   1.000  C
  C17      1.0000 0.14140  0.15270  0.39600  Biso   1.000  C
  C18      1.0000 0.23240  0.93170  0.40470  Biso   1.000  C
  C19      1.0000 0.19930  0.91550  0.33010  Biso   1.000  C
  C20      1.0000 0.13410  0.01610  0.28800  Biso   1.000  C
  C21      1.0000 0.10000  0.99180  0.20760  Biso   1.000  C
  C22      1.0000 0.10610  0.13700  0.32150  Biso   1.000  C
  C23      1.0000 0.20250  0.05230  0.43920  Biso   1.000  C
  C24      1.0000 0.30310  0.82020  0.44730  Biso   1.000  C
  C25      1.0000 0.35860  0.34730  0.89600  Biso   1.000  C
  C26      1.0000 0.26760  0.56830  0.90470  Biso   1.000  C
  C27      1.0000 0.30070  0.58450  0.83010  Biso   1.000  C
  C28      1.0000 0.36590  0.48390  0.78800  Biso   1.000  C
  C29      1.0000 0.40000  0.50820  0.70760  Biso   1.000  C
  C30      1.0000 0.39390  0.36300  0.82150  Biso   1.000  C
  C31      1.0000 0.29750  0.44770  0.93920  Biso   1.000  C
  C32      1.0000 0.19690  0.67980  0.94730  Biso   1.000  C
  S1       1.0000 0.87776  0.68972  0.56489  Biso   1.000  S
  S2       1.0000 0.62224  0.81028  0.06489  Biso   1.000  S
  S3       1.0000 0.12224  0.31028  0.43511  Biso   1.000  S
  S4       1.0000 0.37776  0.18972  0.93511  Biso   1.000  S
  O1       1.0000 0.94640  0.91440  0.83175  Biso   1.000  O
  O2       1.0000 0.87190  0.05850  0.96485  Biso   1.000  O
  O3       1.0000 0.65590  0.16140  0.48595  Biso   1.000  O
  O4       1.0000 0.88070  0.12430  0.81318  Biso   1.000  O
  O5       1.0000 0.86460  0.69900  0.48680  Biso   1.000  O
  O6       1.0000 0.68230  0.28420  0.58955  Biso   1.000  O
  O7       1.0000 0.72750  0.61140  0.59750  Biso   1.000  O
  O8       1.0000 0.04840  0.64460  0.59220  Biso   1.000  O
  O9       1.0000 0.88210  0.37590  0.84340  Biso   1.000  O
  O10      1.0000 0.55360  0.58560  0.33175  Biso   1.000  O
  O11      1.0000 0.62810  0.44150  0.46485  Biso   1.000  O
  O12      1.0000 0.84410  0.33860  0.98595  Biso   1.000  O
  O13      1.0000 0.61930  0.37570  0.31318  Biso   1.000  O
  O14      1.0000 0.63540  0.80100  0.98680  Biso   1.000  O
  O15      1.0000 0.81770  0.21580  0.08955  Biso   1.000  O
  O16      1.0000 0.77250  0.88860  0.09750  Biso   1.000  O
  O17      1.0000 0.45160  0.85540  0.09220  Biso   1.000  O
  O18      1.0000 0.61790  0.12410  0.34340  Biso   1.000  O
  O19      1.0000 0.05360  0.08560  0.16825  Biso   1.000  O
  O20      1.0000 0.12810  0.94150  0.03515  Biso   1.000  O
  O21      1.0000 0.34410  0.83860  0.51405  Biso   1.000  O
  O22      1.0000 0.11930  0.87570  0.18682  Biso   1.000  O
  O23      1.0000 0.13540  0.30100  0.51320  Biso   1.000  O
  O24      1.0000 0.31770  0.71580  0.41045  Biso   1.000  O
  O25      1.0000 0.27250  0.38860  0.40250  Biso   1.000  O
  O26      1.0000 0.95160  0.35540  0.40780  Biso   1.000  O
  O27      1.0000 0.11790  0.62410  0.15660  Biso   1.000  O
  O28      1.0000 0.44640  0.41440  0.66825  Biso   1.000  O
  O29      1.0000 0.37190  0.55850  0.53515  Biso   1.000  O
  O30      1.0000 0.15590  0.66140  0.01405  Biso   1.000  O
  O31      1.0000 0.38070  0.62430  0.68682  Biso   1.000  O
  O32      1.0000 0.36460  0.19900  0.01320  Biso   1.000  O
  O33      1.0000 0.18230  0.78420  0.91045  Biso   1.000  O
  O34      1.0000 0.22750  0.11140  0.90250  Biso   1.000  O
  O35      1.0000 0.54840  0.14460  0.90780  Biso   1.000  O
  O36      1.0000 0.38210  0.87590  0.65660  Biso   1.000  O
