data_image0
_cell_length_a       7.355
_cell_length_b       10.152
_cell_length_c       18.215
_cell_angle_alpha    90
_cell_angle_beta     90
_cell_angle_gamma    94.502

_symmetry_space_group_name_H-M    P 1
_symmetry_int_tables_number       1

loop_
  _symmetry_equiv_pos_as_xyz
  'x, y, z'

loop_
  _atom_site_label
  _atom_site_occupancy
  _atom_site_fract_x
  _atom_site_fract_y
  _atom_site_fract_z
  _atom_site_thermal_displace_type
  _atom_site_B_iso_or_equiv
  _atom_site_type_symbol
  Cu1      1.0000 0.86657  0.21767  0.90664  Biso   1.000  Cu
  Cu2      1.0000 0.04923  0.93435  0.93152  Biso   1.000  Cu
  Cu3      1.0000 0.63343  0.28233  0.40664  Biso   1.000  Cu
  Cu4      1.0000 0.45077  0.56565  0.43152  Biso   1.000  Cu
  Cu5      1.0000 0.13343  0.78233  0.09336  Biso   1.000  Cu
  Cu6      1.0000 0.95077  0.06565  0.06848  Biso   1.000  Cu
  Cu7      1.0000 0.36657  0.71767  0.59336  Biso   1.000  Cu
  Cu8      1.0000 0.54923  0.43435  0.56848  Biso   1.000  Cu
  H1       1.0000 0.78920  0.16840  0.69420  Biso   1.000  H
  H2       1.0000 0.94900  0.79920  0.70690  Biso   1.000  H
  H3       1.0000 0.78650  0.94140  0.51290  Biso   1.000  H
  H4       1.0000 0.71080  0.33160  0.19420  Biso   1.000  H
  H5       1.0000 0.55100  0.70080  0.20690  Biso   1.000  H
  H6       1.0000 0.71350  0.55860  0.01290  Biso   1.000  H
  H7       1.0000 0.21080  0.83160  0.30580  Biso   1.000  H
  H8       1.0000 0.05100  0.20080  0.29310  Biso   1.000  H
  H9       1.0000 0.21350  0.05860  0.48710  Biso   1.000  H
  H10      1.0000 0.28920  0.66840  0.80580  Biso   1.000  H
  H11      1.0000 0.44900  0.29920  0.79310  Biso   1.000  H
  H12      1.0000 0.28650  0.44140  0.98710  Biso   1.000  H
  C1       1.0000 0.86880  0.85170  0.60488  Biso   1.000  C
  C2       1.0000 0.77790  0.07350  0.59643  Biso   1.000  C
  C3       1.0000 0.81040  0.08890  0.67157  Biso   1.000  C
  C4       1.0000 0.87410  0.98690  0.71319  Biso   1.000  C
  C5       1.0000 0.90710  0.01080  0.79337  Biso   1.000  C
  C6       1.0000 0.90500  0.86750  0.67979  Biso   1.000  C
  C7       1.0000 0.80760  0.95320  0.56291  Biso   1.000  C
  C8       1.0000 0.70740  0.18550  0.55491  Biso   1.000  C
  C9       1.0000 0.63120  0.64830  0.10488  Biso   1.000  C
  C10      1.0000 0.72210  0.42650  0.09643  Biso   1.000  C
  C11      1.0000 0.68960  0.41110  0.17157  Biso   1.000  C
  C12      1.0000 0.62590  0.51310  0.21319  Biso   1.000  C
  C13      1.0000 0.59290  0.48920  0.29337  Biso   1.000  C
  C14      1.0000 0.59500  0.63250  0.17979  Biso   1.000  C
  C15      1.0000 0.69240  0.54680  0.06291  Biso   1.000  C
  C16      1.0000 0.79260  0.31450  0.05491  Biso   1.000  C
  C17      1.0000 0.13120  0.14830  0.39512  Biso   1.000  C
  C18      1.0000 0.22210  0.92650  0.40357  Biso   1.000  C
  C19      1.0000 0.18960  0.91110  0.32843  Biso   1.000  C
  C20      1.0000 0.12590  0.01310  0.28681  Biso   1.000  C
  C21      1.0000 0.09290  0.98920  0.20663  Biso   1.000  C
  C22      1.0000 0.09500  0.13250  0.32021  Biso   1.000  C
  C23      1.0000 0.19240  0.04680  0.43709  Biso   1.000  C
  C24      1.0000 0.29260  0.81450  0.44509  Biso   1.000  C
  C25      1.0000 0.36880  0.35170  0.89512  Biso   1.000  C
  C26      1.0000 0.27790  0.57350  0.90357  Biso   1.000  C
  C27      1.0000 0.31040  0.58890  0.82843  Biso   1.000  C
  C28      1.0000 0.37410  0.48690  0.78681  Biso   1.000  C
  C29      1.0000 0.40710  0.51080  0.70663  Biso   1.000  C
  C30      1.0000 0.40500  0.36750  0.82021  Biso   1.000  C
  C31      1.0000 0.30760  0.45320  0.93709  Biso   1.000  C
  C32      1.0000 0.20740  0.68550  0.94509  Biso   1.000  C
  S1       1.0000 0.88458  0.69354  0.56614  Biso   1.000  S
  S2       1.0000 0.61542  0.80646  0.06614  Biso   1.000  S
  S3       1.0000 0.11542  0.30646  0.43386  Biso   1.000  S
  S4       1.0000 0.38458  0.19354  0.93386  Biso   1.000  S
  O1       1.0000 0.95340  0.91560  0.83229  Biso   1.000  O
  O2       1.0000 0.86880  0.05477  0.96484  Biso   1.000  O
  O3       1.0000 0.66100  0.16490  0.48891  Biso   1.000  O
  O4       1.0000 0.88470  0.12620  0.81479  Biso   1.000  O
  O5       1.0000 0.88720  0.70570  0.48716  Biso   1.000  O
  O6       1.0000 0.69920  0.29310  0.59033  Biso   1.000  O
  O7       1.0000 0.72220  0.61890  0.59414  Biso   1.000  O
  O8       1.0000 0.04870  0.64240  0.59674  Biso   1.000  O
  O9       1.0000 0.88780  0.37990  0.84759  Biso   1.000  O
  O10      1.0000 0.54660  0.58440  0.33229  Biso   1.000  O
  O11      1.0000 0.63120  0.44523  0.46484  Biso   1.000  O
  O12      1.0000 0.83900  0.33510  0.98891  Biso   1.000  O
  O13      1.0000 0.61530  0.37380  0.31479  Biso   1.000  O
  O14      1.0000 0.61280  0.79430  0.98716  Biso   1.000  O
  O15      1.0000 0.80080  0.20690  0.09033  Biso   1.000  O
  O16      1.0000 0.77780  0.88110  0.09414  Biso   1.000  O
  O17      1.0000 0.45130  0.85760  0.09674  Biso   1.000  O
  O18      1.0000 0.61220  0.12010  0.34759  Biso   1.000  O
  O19      1.0000 0.04660  0.08440  0.16771  Biso   1.000  O
  O20      1.0000 0.13120  0.94523  0.03516  Biso   1.000  O
  O21      1.0000 0.33900  0.83510  0.51109  Biso   1.000  O
  O22      1.0000 0.11530  0.87380  0.18521  Biso   1.000  O
  O23      1.0000 0.11280  0.29430  0.51284  Biso   1.000  O
  O24      1.0000 0.30080  0.70690  0.40967  Biso   1.000  O
  O25      1.0000 0.27780  0.38110  0.40586  Biso   1.000  O
  O26      1.0000 0.95130  0.35760  0.40326  Biso   1.000  O
  O27      1.0000 0.11220  0.62010  0.15241  Biso   1.000  O
  O28      1.0000 0.45340  0.41560  0.66771  Biso   1.000  O
  O29      1.0000 0.36880  0.55477  0.53516  Biso   1.000  O
  O30      1.0000 0.16100  0.66490  0.01109  Biso   1.000  O
  O31      1.0000 0.38470  0.62620  0.68521  Biso   1.000  O
  O32      1.0000 0.38720  0.20570  0.01284  Biso   1.000  O
  O33      1.0000 0.19920  0.79310  0.90967  Biso   1.000  O
  O34      1.0000 0.22220  0.11890  0.90586  Biso   1.000  O
  O35      1.0000 0.54870  0.14240  0.90326  Biso   1.000  O
  O36      1.0000 0.38780  0.87990  0.65241  Biso   1.000  O
