data_image0
_cell_length_a       7.3333
_cell_length_b       10.1729
_cell_length_c       18.153
_cell_angle_alpha    90
_cell_angle_beta     90
_cell_angle_gamma    94.379

_symmetry_space_group_name_H-M    P 1
_symmetry_int_tables_number       1

loop_
  _symmetry_equiv_pos_as_xyz
  'x, y, z'

loop_
  _atom_site_label
  _atom_site_occupancy
  _atom_site_fract_x
  _atom_site_fract_y
  _atom_site_fract_z
  _atom_site_thermal_displace_type
  _atom_site_B_iso_or_equiv
  _atom_site_type_symbol
  Cu1      1.0000 0.86720  0.21860  0.90570  Biso   1.000  Cu
  Cu2      1.0000 0.04510  0.93260  0.93180  Biso   1.000  Cu
  Cu3      1.0000 0.63280  0.28140  0.40570  Biso   1.000  Cu
  Cu4      1.0000 0.45490  0.56740  0.43180  Biso   1.000  Cu
  Cu5      1.0000 0.13280  0.78140  0.09430  Biso   1.000  Cu
  Cu6      1.0000 0.95490  0.06740  0.06820  Biso   1.000  Cu
  Cu7      1.0000 0.36720  0.71860  0.59430  Biso   1.000  Cu
  Cu8      1.0000 0.54510  0.43260  0.56820  Biso   1.000  Cu
  H1       1.0000 0.77080  0.16380  0.69220  Biso   1.000  H
  H2       1.0000 0.93850  0.79990  0.70850  Biso   1.000  H
  H3       1.0000 0.78690  0.94720  0.51280  Biso   1.000  H
  H4       1.0000 0.72920  0.33620  0.19220  Biso   1.000  H
  H5       1.0000 0.56150  0.70010  0.20850  Biso   1.000  H
  H6       1.0000 0.71310  0.55280  0.01280  Biso   1.000  H
  H7       1.0000 0.22920  0.83620  0.30780  Biso   1.000  H
  H8       1.0000 0.06150  0.20010  0.29150  Biso   1.000  H
  H9       1.0000 0.21310  0.05280  0.48720  Biso   1.000  H
  H10      1.0000 0.27080  0.66380  0.80780  Biso   1.000  H
  H11      1.0000 0.43850  0.29990  0.79150  Biso   1.000  H
  H12      1.0000 0.28690  0.44720  0.98720  Biso   1.000  H
  C1       1.0000 0.86600  0.85300  0.60420  Biso   1.000  C
  C2       1.0000 0.77300  0.07000  0.59760  Biso   1.000  C
  C3       1.0000 0.79900  0.08600  0.67000  Biso   1.000  C
  C4       1.0000 0.86700  0.99000  0.71200  Biso   1.000  C
  C5       1.0000 0.90800  0.00100  0.79510  Biso   1.000  C
  C6       1.0000 0.89800  0.86800  0.68030  Biso   1.000  C
  C7       1.0000 0.80500  0.95600  0.56330  Biso   1.000  C
  C8       1.0000 0.69800  0.18300  0.55570  Biso   1.000  C
  C9       1.0000 0.63400  0.64700  0.10420  Biso   1.000  C
  C10      1.0000 0.72700  0.43000  0.09760  Biso   1.000  C
  C11      1.0000 0.70100  0.41400  0.17000  Biso   1.000  C
  C12      1.0000 0.63300  0.51000  0.21200  Biso   1.000  C
  C13      1.0000 0.59200  0.49900  0.29510  Biso   1.000  C
  C14      1.0000 0.60200  0.63200  0.18030  Biso   1.000  C
  C15      1.0000 0.69500  0.54400  0.06330  Biso   1.000  C
  C16      1.0000 0.80200  0.31700  0.05570  Biso   1.000  C
  C17      1.0000 0.13400  0.14700  0.39580  Biso   1.000  C
  C18      1.0000 0.22700  0.93000  0.40240  Biso   1.000  C
  C19      1.0000 0.20100  0.91400  0.33000  Biso   1.000  C
  C20      1.0000 0.13300  0.01000  0.28800  Biso   1.000  C
  C21      1.0000 0.09200  0.99900  0.20490  Biso   1.000  C
  C22      1.0000 0.10200  0.13200  0.31970  Biso   1.000  C
  C23      1.0000 0.19500  0.04400  0.43670  Biso   1.000  C
  C24      1.0000 0.30200  0.81700  0.44430  Biso   1.000  C
  C25      1.0000 0.36600  0.35300  0.89580  Biso   1.000  C
  C26      1.0000 0.27300  0.57000  0.90240  Biso   1.000  C
  C27      1.0000 0.29900  0.58600  0.83000  Biso   1.000  C
  C28      1.0000 0.36700  0.49000  0.78800  Biso   1.000  C
  C29      1.0000 0.40800  0.50100  0.70490  Biso   1.000  C
  C30      1.0000 0.39800  0.36800  0.81970  Biso   1.000  C
  C31      1.0000 0.30500  0.45600  0.93670  Biso   1.000  C
  C32      1.0000 0.19800  0.68300  0.94430  Biso   1.000  C
  S1       1.0000 0.88310  0.69090  0.56600  Biso   1.000  S
  S2       1.0000 0.61690  0.80910  0.06600  Biso   1.000  S
  S3       1.0000 0.11690  0.30910  0.43400  Biso   1.000  S
  S4       1.0000 0.38310  0.19090  0.93400  Biso   1.000  S
  O1       1.0000 0.95200  0.91450  0.83360  Biso   1.000  O
  O2       1.0000 0.86600  0.05450  0.96550  Biso   1.000  O
  O3       1.0000 0.66200  0.16160  0.48890  Biso   1.000  O
  O4       1.0000 0.88600  0.12210  0.81470  Biso   1.000  O
  O5       1.0000 0.87600  0.70050  0.48760  Biso   1.000  O
  O6       1.0000 0.68700  0.28970  0.58880  Biso   1.000  O
  O7       1.0000 0.72400  0.60980  0.59510  Biso   1.000  O
  O8       1.0000 0.05000  0.64250  0.59550  Biso   1.000  O
  O9       1.0000 0.88200  0.37960  0.84570  Biso   1.000  O
  O10      1.0000 0.54800  0.58550  0.33360  Biso   1.000  O
  O11      1.0000 0.63400  0.44550  0.46550  Biso   1.000  O
  O12      1.0000 0.83800  0.33840  0.98890  Biso   1.000  O
  O13      1.0000 0.61400  0.37790  0.31470  Biso   1.000  O
  O14      1.0000 0.62400  0.79950  0.98760  Biso   1.000  O
  O15      1.0000 0.81300  0.21030  0.08880  Biso   1.000  O
  O16      1.0000 0.77600  0.89020  0.09510  Biso   1.000  O
  O17      1.0000 0.45000  0.85750  0.09550  Biso   1.000  O
  O18      1.0000 0.61800  0.12040  0.34570  Biso   1.000  O
  O19      1.0000 0.04800  0.08550  0.16640  Biso   1.000  O
  O20      1.0000 0.13400  0.94550  0.03450  Biso   1.000  O
  O21      1.0000 0.33800  0.83840  0.51110  Biso   1.000  O
  O22      1.0000 0.11400  0.87790  0.18530  Biso   1.000  O
  O23      1.0000 0.12400  0.29950  0.51240  Biso   1.000  O
  O24      1.0000 0.31300  0.71030  0.41120  Biso   1.000  O
  O25      1.0000 0.27600  0.39020  0.40490  Biso   1.000  O
  O26      1.0000 0.95000  0.35750  0.40450  Biso   1.000  O
  O27      1.0000 0.11800  0.62040  0.15430  Biso   1.000  O
  O28      1.0000 0.45200  0.41450  0.66640  Biso   1.000  O
  O29      1.0000 0.36600  0.55450  0.53450  Biso   1.000  O
  O30      1.0000 0.16200  0.66160  0.01110  Biso   1.000  O
  O31      1.0000 0.38600  0.62210  0.68530  Biso   1.000  O
  O32      1.0000 0.37600  0.20050  0.01240  Biso   1.000  O
  O33      1.0000 0.18700  0.78970  0.91120  Biso   1.000  O
  O34      1.0000 0.22400  0.10980  0.90490  Biso   1.000  O
  O35      1.0000 0.55000  0.14250  0.90450  Biso   1.000  O
  O36      1.0000 0.38200  0.87960  0.65430  Biso   1.000  O
