data_image0
_cell_length_a       7.306
_cell_length_b       10.205
_cell_length_c       18.111
_cell_angle_alpha    90
_cell_angle_beta     90
_cell_angle_gamma    94.248

_symmetry_space_group_name_H-M    P 1
_symmetry_int_tables_number       1

loop_
  _symmetry_equiv_pos_as_xyz
  'x, y, z'

loop_
  _atom_site_label
  _atom_site_occupancy
  _atom_site_fract_x
  _atom_site_fract_y
  _atom_site_fract_z
  _atom_site_thermal_displace_type
  _atom_site_B_iso_or_equiv
  _atom_site_type_symbol
  Cu1      1.0000 0.86458  0.21589  0.90528  Biso   1.000  Cu
  Cu2      1.0000 0.03948  0.92978  0.93159  Biso   1.000  Cu
  Cu3      1.0000 0.63542  0.28411  0.40528  Biso   1.000  Cu
  Cu4      1.0000 0.46052  0.57022  0.43159  Biso   1.000  Cu
  Cu5      1.0000 0.13542  0.78411  0.09472  Biso   1.000  Cu
  Cu6      1.0000 0.96052  0.07022  0.06841  Biso   1.000  Cu
  Cu7      1.0000 0.36458  0.71589  0.59472  Biso   1.000  Cu
  Cu8      1.0000 0.53948  0.42978  0.56841  Biso   1.000  Cu
  H1       1.0000 0.77940  0.16470  0.69190  Biso   1.000  H
  H2       1.0000 0.93580  0.79730  0.70700  Biso   1.000  H
  H3       1.0000 0.77250  0.93680  0.51070  Biso   1.000  H
  H4       1.0000 0.72060  0.33530  0.19190  Biso   1.000  H
  H5       1.0000 0.56420  0.70270  0.20700  Biso   1.000  H
  H6       1.0000 0.72750  0.56320  0.01070  Biso   1.000  H
  H7       1.0000 0.22060  0.83530  0.30810  Biso   1.000  H
  H8       1.0000 0.06420  0.20270  0.29300  Biso   1.000  H
  H9       1.0000 0.22750  0.06320  0.48930  Biso   1.000  H
  H10      1.0000 0.27940  0.66470  0.80810  Biso   1.000  H
  H11      1.0000 0.43580  0.29730  0.79300  Biso   1.000  H
  H12      1.0000 0.27250  0.43680  0.98930  Biso   1.000  H
  C1       1.0000 0.85860  0.84830  0.60400  Biso   1.000  C
  C2       1.0000 0.76600  0.06910  0.59510  Biso   1.000  C
  C3       1.0000 0.79990  0.08500  0.66960  Biso   1.000  C
  C4       1.0000 0.86390  0.98470  0.71200  Biso   1.000  C
  C5       1.0000 0.89920  0.00920  0.79240  Biso   1.000  C
  C6       1.0000 0.89330  0.86530  0.67920  Biso   1.000  C
  C7       1.0000 0.79500  0.94910  0.56080  Biso   1.000  C
  C8       1.0000 0.69420  0.18000  0.55300  Biso   1.000  C
  C9       1.0000 0.64140  0.65170  0.10400  Biso   1.000  C
  C10      1.0000 0.73400  0.43090  0.09510  Biso   1.000  C
  C11      1.0000 0.70010  0.41500  0.16960  Biso   1.000  C
  C12      1.0000 0.63610  0.51530  0.21200  Biso   1.000  C
  C13      1.0000 0.60080  0.49080  0.29240  Biso   1.000  C
  C14      1.0000 0.60670  0.63470  0.17920  Biso   1.000  C
  C15      1.0000 0.70500  0.55090  0.06080  Biso   1.000  C
  C16      1.0000 0.80580  0.32000  0.05300  Biso   1.000  C
  C17      1.0000 0.14140  0.15170  0.39600  Biso   1.000  C
  C18      1.0000 0.23400  0.93090  0.40490  Biso   1.000  C
  C19      1.0000 0.20010  0.91500  0.33040  Biso   1.000  C
  C20      1.0000 0.13610  0.01530  0.28800  Biso   1.000  C
  C21      1.0000 0.10080  0.99080  0.20760  Biso   1.000  C
  C22      1.0000 0.10670  0.13470  0.32080  Biso   1.000  C
  C23      1.0000 0.20500  0.05090  0.43920  Biso   1.000  C
  C24      1.0000 0.30580  0.82000  0.44700  Biso   1.000  C
  C25      1.0000 0.35860  0.34830  0.89600  Biso   1.000  C
  C26      1.0000 0.26600  0.56910  0.90490  Biso   1.000  C
  C27      1.0000 0.29990  0.58500  0.83040  Biso   1.000  C
  C28      1.0000 0.36390  0.48470  0.78800  Biso   1.000  C
  C29      1.0000 0.39920  0.50920  0.70760  Biso   1.000  C
  C30      1.0000 0.39330  0.36530  0.82080  Biso   1.000  C
  C31      1.0000 0.29500  0.44910  0.93920  Biso   1.000  C
  C32      1.0000 0.19420  0.68000  0.94700  Biso   1.000  C
  S1       1.0000 0.87610  0.69042  0.56509  Biso   1.000  S
  S2       1.0000 0.62390  0.80958  0.06509  Biso   1.000  S
  S3       1.0000 0.12390  0.30958  0.43491  Biso   1.000  S
  S4       1.0000 0.37610  0.19042  0.93491  Biso   1.000  S
  O1       1.0000 0.94410  0.91440  0.83217  Biso   1.000  O
  O2       1.0000 0.86970  0.05830  0.96558  Biso   1.000  O
  O3       1.0000 0.65600  0.16170  0.48620  Biso   1.000  O
  O4       1.0000 0.87750  0.12430  0.81350  Biso   1.000  O
  O5       1.0000 0.85950  0.70060  0.48690  Biso   1.000  O
  O6       1.0000 0.67780  0.28240  0.58920  Biso   1.000  O
  O7       1.0000 0.72620  0.61110  0.59880  Biso   1.000  O
  O8       1.0000 0.04840  0.64710  0.59150  Biso   1.000  O
  O9       1.0000 0.87990  0.37580  0.84360  Biso   1.000  O
  O10      1.0000 0.55590  0.58560  0.33217  Biso   1.000  O
  O11      1.0000 0.63030  0.44170  0.46558  Biso   1.000  O
  O12      1.0000 0.84400  0.33830  0.98620  Biso   1.000  O
  O13      1.0000 0.62250  0.37570  0.31350  Biso   1.000  O
  O14      1.0000 0.64050  0.79940  0.98690  Biso   1.000  O
  O15      1.0000 0.82220  0.21760  0.08920  Biso   1.000  O
  O16      1.0000 0.77380  0.88890  0.09880  Biso   1.000  O
  O17      1.0000 0.45160  0.85290  0.09150  Biso   1.000  O
  O18      1.0000 0.62010  0.12420  0.34360  Biso   1.000  O
  O19      1.0000 0.05590  0.08560  0.16783  Biso   1.000  O
  O20      1.0000 0.13030  0.94170  0.03442  Biso   1.000  O
  O21      1.0000 0.34400  0.83830  0.51380  Biso   1.000  O
  O22      1.0000 0.12250  0.87570  0.18650  Biso   1.000  O
  O23      1.0000 0.14050  0.29940  0.51310  Biso   1.000  O
  O24      1.0000 0.32220  0.71760  0.41080  Biso   1.000  O
  O25      1.0000 0.27380  0.38890  0.40120  Biso   1.000  O
  O26      1.0000 0.95160  0.35290  0.40850  Biso   1.000  O
  O27      1.0000 0.12010  0.62420  0.15640  Biso   1.000  O
  O28      1.0000 0.44410  0.41440  0.66783  Biso   1.000  O
  O29      1.0000 0.36970  0.55830  0.53442  Biso   1.000  O
  O30      1.0000 0.15600  0.66170  0.01380  Biso   1.000  O
  O31      1.0000 0.37750  0.62430  0.68650  Biso   1.000  O
  O32      1.0000 0.35950  0.20060  0.01310  Biso   1.000  O
  O33      1.0000 0.17780  0.78240  0.91080  Biso   1.000  O
  O34      1.0000 0.22620  0.11110  0.90120  Biso   1.000  O
  O35      1.0000 0.54840  0.14710  0.90850  Biso   1.000  O
  O36      1.0000 0.37990  0.87580  0.65640  Biso   1.000  O
