data_image0
_cell_length_a       7.3033
_cell_length_b       10.1272
_cell_length_c       18.261
_cell_angle_alpha    90
_cell_angle_beta     90
_cell_angle_gamma    94.841

_symmetry_space_group_name_H-M    P 1
_symmetry_int_tables_number       1

loop_
  _symmetry_equiv_pos_as_xyz
  'x, y, z'

loop_
  _atom_site_label
  _atom_site_occupancy
  _atom_site_fract_x
  _atom_site_fract_y
  _atom_site_fract_z
  _atom_site_thermal_displace_type
  _atom_site_B_iso_or_equiv
  _atom_site_type_symbol
  Cu1      1.0000 0.86637  0.21719  0.90739  Biso   1.000  Cu
  Cu2      1.0000 0.05118  0.93558  0.93151  Biso   1.000  Cu
  Cu3      1.0000 0.63363  0.28281  0.40739  Biso   1.000  Cu
  Cu4      1.0000 0.44882  0.56442  0.43151  Biso   1.000  Cu
  Cu5      1.0000 0.13363  0.78281  0.09261  Biso   1.000  Cu
  Cu6      1.0000 0.94882  0.06442  0.06849  Biso   1.000  Cu
  Cu7      1.0000 0.36637  0.71719  0.59261  Biso   1.000  Cu
  Cu8      1.0000 0.55118  0.43558  0.56849  Biso   1.000  Cu
  H1       1.0000 0.79140  0.17050  0.69500  Biso   1.000  H
  H2       1.0000 0.95290  0.80080  0.70680  Biso   1.000  H
  H3       1.0000 0.78940  0.94420  0.51320  Biso   1.000  H
  H4       1.0000 0.70860  0.32950  0.19500  Biso   1.000  H
  H5       1.0000 0.54710  0.69920  0.20680  Biso   1.000  H
  H6       1.0000 0.71060  0.55580  0.01320  Biso   1.000  H
  H7       1.0000 0.20860  0.82950  0.30500  Biso   1.000  H
  H8       1.0000 0.04710  0.19920  0.29320  Biso   1.000  H
  H9       1.0000 0.21060  0.05580  0.48680  Biso   1.000  H
  H10      1.0000 0.29140  0.67050  0.80500  Biso   1.000  H
  H11      1.0000 0.45290  0.30080  0.79320  Biso   1.000  H
  H12      1.0000 0.28940  0.44420  0.98680  Biso   1.000  H
  C1       1.0000 0.87320  0.85500  0.60486  Biso   1.000  C
  C2       1.0000 0.78240  0.07640  0.59713  Biso   1.000  C
  C3       1.0000 0.81340  0.09130  0.67220  Biso   1.000  C
  C4       1.0000 0.87710  0.98860  0.71347  Biso   1.000  C
  C5       1.0000 0.90810  0.01140  0.79373  Biso   1.000  C
  C6       1.0000 0.90890  0.86940  0.67994  Biso   1.000  C
  C7       1.0000 0.81140  0.95600  0.56306  Biso   1.000  C
  C8       1.0000 0.71160  0.18850  0.55566  Biso   1.000  C
  C9       1.0000 0.62680  0.64500  0.10486  Biso   1.000  C
  C10      1.0000 0.71760  0.42360  0.09713  Biso   1.000  C
  C11      1.0000 0.68660  0.40870  0.17220  Biso   1.000  C
  C12      1.0000 0.62290  0.51140  0.21347  Biso   1.000  C
  C13      1.0000 0.59190  0.48860  0.29373  Biso   1.000  C
  C14      1.0000 0.59110  0.63060  0.17994  Biso   1.000  C
  C15      1.0000 0.68860  0.54400  0.06306  Biso   1.000  C
  C16      1.0000 0.78840  0.31150  0.05566  Biso   1.000  C
  C17      1.0000 0.12680  0.14500  0.39514  Biso   1.000  C
  C18      1.0000 0.21760  0.92360  0.40287  Biso   1.000  C
  C19      1.0000 0.18660  0.90870  0.32780  Biso   1.000  C
  C20      1.0000 0.12290  0.01140  0.28653  Biso   1.000  C
  C21      1.0000 0.09190  0.98860  0.20627  Biso   1.000  C
  C22      1.0000 0.09110  0.13060  0.32006  Biso   1.000  C
  C23      1.0000 0.18860  0.04400  0.43694  Biso   1.000  C
  C24      1.0000 0.28840  0.81150  0.44434  Biso   1.000  C
  C25      1.0000 0.37320  0.35500  0.89514  Biso   1.000  C
  C26      1.0000 0.28240  0.57640  0.90287  Biso   1.000  C
  C27      1.0000 0.31340  0.59130  0.82780  Biso   1.000  C
  C28      1.0000 0.37710  0.48860  0.78653  Biso   1.000  C
  C29      1.0000 0.40810  0.51140  0.70627  Biso   1.000  C
  C30      1.0000 0.40890  0.36940  0.82006  Biso   1.000  C
  C31      1.0000 0.31140  0.45600  0.93694  Biso   1.000  C
  C32      1.0000 0.21160  0.68850  0.94434  Biso   1.000  C
  S1       1.0000 0.88588  0.69587  0.56636  Biso   1.000  S
  S2       1.0000 0.61412  0.80413  0.06636  Biso   1.000  S
  S3       1.0000 0.11412  0.30413  0.43364  Biso   1.000  S
  S4       1.0000 0.38588  0.19587  0.93364  Biso   1.000  S
  O1       1.0000 0.95520  0.91615  0.83237  Biso   1.000  O
  O2       1.0000 0.86720  0.05324  0.96503  Biso   1.000  O
  O3       1.0000 0.66270  0.16704  0.49024  Biso   1.000  O
  O4       1.0000 0.88400  0.12692  0.81547  Biso   1.000  O
  O5       1.0000 0.89190  0.70824  0.48746  Biso   1.000  O
  O6       1.0000 0.70430  0.29588  0.59064  Biso   1.000  O
  O7       1.0000 0.71870  0.62255  0.59318  Biso   1.000  O
  O8       1.0000 0.04830  0.64249  0.59777  Biso   1.000  O
  O9       1.0000 0.89110  0.38109  0.84926  Biso   1.000  O
  O10      1.0000 0.54480  0.58385  0.33237  Biso   1.000  O
  O11      1.0000 0.63280  0.44676  0.46503  Biso   1.000  O
  O12      1.0000 0.83730  0.33296  0.99024  Biso   1.000  O
  O13      1.0000 0.61600  0.37308  0.31547  Biso   1.000  O
  O14      1.0000 0.60810  0.79176  0.98746  Biso   1.000  O
  O15      1.0000 0.79570  0.20412  0.09064  Biso   1.000  O
  O16      1.0000 0.78130  0.87745  0.09318  Biso   1.000  O
  O17      1.0000 0.45170  0.85751  0.09777  Biso   1.000  O
  O18      1.0000 0.60890  0.11891  0.34926  Biso   1.000  O
  O19      1.0000 0.04480  0.08385  0.16763  Biso   1.000  O
  O20      1.0000 0.13280  0.94676  0.03497  Biso   1.000  O
  O21      1.0000 0.33730  0.83296  0.50976  Biso   1.000  O
  O22      1.0000 0.11600  0.87308  0.18453  Biso   1.000  O
  O23      1.0000 0.10810  0.29176  0.51254  Biso   1.000  O
  O24      1.0000 0.29570  0.70412  0.40936  Biso   1.000  O
  O25      1.0000 0.28130  0.37745  0.40682  Biso   1.000  O
  O26      1.0000 0.95170  0.35751  0.40223  Biso   1.000  O
  O27      1.0000 0.10890  0.61891  0.15074  Biso   1.000  O
  O28      1.0000 0.45520  0.41615  0.66763  Biso   1.000  O
  O29      1.0000 0.36720  0.55324  0.53497  Biso   1.000  O
  O30      1.0000 0.16270  0.66704  0.00976  Biso   1.000  O
  O31      1.0000 0.38400  0.62692  0.68453  Biso   1.000  O
  O32      1.0000 0.39190  0.20824  0.01254  Biso   1.000  O
  O33      1.0000 0.20430  0.79588  0.90936  Biso   1.000  O
  O34      1.0000 0.21870  0.12255  0.90682  Biso   1.000  O
  O35      1.0000 0.54830  0.14249  0.90223  Biso   1.000  O
  O36      1.0000 0.39110  0.88109  0.65074  Biso   1.000  O
