data_image0
_cell_length_a       5.703
_cell_length_b       10.623
_cell_length_c       29.89
_cell_angle_alpha    90
_cell_angle_beta     90
_cell_angle_gamma    90

_symmetry_space_group_name_H-M    P 1
_symmetry_int_tables_number       1

loop_
  _symmetry_equiv_pos_as_xyz
  'x, y, z'

loop_
  _atom_site_label
  _atom_site_occupancy
  _atom_site_fract_x
  _atom_site_fract_y
  _atom_site_fract_z
  _atom_site_thermal_displace_type
  _atom_site_B_iso_or_equiv
  _atom_site_type_symbol
  Cd1      1.0000 0.82480  0.00706  0.76085  Biso   1.000  Cd
  Cd2      1.0000 0.67520  0.99294  0.26085  Biso   1.000  Cd
  Cd3      1.0000 0.17520  0.50706  0.73915  Biso   1.000  Cd
  Cd4      1.0000 0.32480  0.49294  0.23915  Biso   1.000  Cd
  H1       1.0000 0.45180  0.13160  0.82750  Biso   1.000  H
  H2       1.0000 0.36540  0.15680  0.90170  Biso   1.000  H
  H3       1.0000 0.98570  0.00300  0.93240  Biso   1.000  H
  H4       1.0000 0.05560  0.98080  0.85700  Biso   1.000  H
  H5       1.0000 0.93740  0.99900  0.09460  Biso   1.000  H
  H6       1.0000 0.95750  0.97310  0.17070  Biso   1.000  H
  H7       1.0000 0.30730  0.16050  0.11210  Biso   1.000  H
  H8       1.0000 0.34720  0.13110  0.18720  Biso   1.000  H
  H9       1.0000 0.95050  0.96440  0.98610  Biso   1.000  H
  H10      1.0000 0.03090  0.04910  0.02110  Biso   1.000  H
  H11      1.0000 0.04820  0.86840  0.32750  Biso   1.000  H
  H12      1.0000 0.13460  0.84320  0.40170  Biso   1.000  H
  H13      1.0000 0.51430  0.99700  0.43240  Biso   1.000  H
  H14      1.0000 0.44440  0.01920  0.35700  Biso   1.000  H
  H15      1.0000 0.56260  0.00100  0.59460  Biso   1.000  H
  H16      1.0000 0.54250  0.02690  0.67070  Biso   1.000  H
  H17      1.0000 0.19270  0.83950  0.61210  Biso   1.000  H
  H18      1.0000 0.15280  0.86890  0.68720  Biso   1.000  H
  H19      1.0000 0.54950  0.03560  0.48610  Biso   1.000  H
  H20      1.0000 0.46910  0.95090  0.52110  Biso   1.000  H
  H21      1.0000 0.54820  0.63160  0.67250  Biso   1.000  H
  H22      1.0000 0.63460  0.65680  0.59830  Biso   1.000  H
  H23      1.0000 0.01430  0.50300  0.56760  Biso   1.000  H
  H24      1.0000 0.94440  0.48080  0.64300  Biso   1.000  H
  H25      1.0000 0.06260  0.49900  0.40540  Biso   1.000  H
  H26      1.0000 0.04250  0.47310  0.32930  Biso   1.000  H
  H27      1.0000 0.69270  0.66050  0.38790  Biso   1.000  H
  H28      1.0000 0.65280  0.63110  0.31280  Biso   1.000  H
  H29      1.0000 0.04950  0.46440  0.51390  Biso   1.000  H
  H30      1.0000 0.96910  0.54910  0.47890  Biso   1.000  H
  H31      1.0000 0.95180  0.36840  0.17250  Biso   1.000  H
  H32      1.0000 0.86540  0.34320  0.09830  Biso   1.000  H
  H33      1.0000 0.48570  0.49700  0.06760  Biso   1.000  H
  H34      1.0000 0.55560  0.51920  0.14300  Biso   1.000  H
  H35      1.0000 0.43740  0.50100  0.90540  Biso   1.000  H
  H36      1.0000 0.45750  0.52690  0.82930  Biso   1.000  H
  H37      1.0000 0.80730  0.33950  0.88790  Biso   1.000  H
  H38      1.0000 0.84720  0.36890  0.81280  Biso   1.000  H
  H39      1.0000 0.45050  0.53560  0.01390  Biso   1.000  H
  H40      1.0000 0.53090  0.45090  0.97890  Biso   1.000  H
  C1       1.0000 0.55930  0.10430  0.84876  Biso   1.000  C
  C2       1.0000 0.50620  0.11940  0.89339  Biso   1.000  C
  C3       1.0000 0.66170  0.07920  0.92593  Biso   1.000  C
  C4       1.0000 0.87330  0.02830  0.91177  Biso   1.000  C
  C5       1.0000 0.91420  0.01580  0.86619  Biso   1.000  C
  C6       1.0000 0.59330  0.09520  0.97310  Biso   1.000  C
  C7       1.0000 0.57340  0.09640  0.04562  Biso   1.000  C
  C8       1.0000 0.61370  0.07950  0.09382  Biso   1.000  C
  C9       1.0000 0.81370  0.02490  0.11265  Biso   1.000  C
  C10      1.0000 0.82420  0.01010  0.15851  Biso   1.000  C
  C11      1.0000 0.44050  0.12070  0.12315  Biso   1.000  C
  C12      1.0000 0.46550  0.10280  0.16832  Biso   1.000  C
  C13      1.0000 0.94070  0.89570  0.34876  Biso   1.000  C
  C14      1.0000 0.99380  0.88060  0.39339  Biso   1.000  C
  C15      1.0000 0.83830  0.92080  0.42593  Biso   1.000  C
  C16      1.0000 0.62670  0.97170  0.41177  Biso   1.000  C
  C17      1.0000 0.58580  0.98420  0.36619  Biso   1.000  C
  C18      1.0000 0.90670  0.90480  0.47310  Biso   1.000  C
  C19      1.0000 0.92660  0.90360  0.54562  Biso   1.000  C
  C20      1.0000 0.88630  0.92050  0.59382  Biso   1.000  C
  C21      1.0000 0.68630  0.97510  0.61265  Biso   1.000  C
  C22      1.0000 0.67580  0.98990  0.65851  Biso   1.000  C
  C23      1.0000 0.05950  0.87930  0.62315  Biso   1.000  C
  C24      1.0000 0.03450  0.89720  0.66832  Biso   1.000  C
  C25      1.0000 0.44070  0.60430  0.65124  Biso   1.000  C
  C26      1.0000 0.49380  0.61940  0.60661  Biso   1.000  C
  C27      1.0000 0.33830  0.57920  0.57407  Biso   1.000  C
  C28      1.0000 0.12670  0.52830  0.58823  Biso   1.000  C
  C29      1.0000 0.08580  0.51580  0.63381  Biso   1.000  C
  C30      1.0000 0.40670  0.59520  0.52690  Biso   1.000  C
  C31      1.0000 0.42660  0.59640  0.45438  Biso   1.000  C
  C32      1.0000 0.38630  0.57950  0.40618  Biso   1.000  C
  C33      1.0000 0.18630  0.52490  0.38735  Biso   1.000  C
  C34      1.0000 0.17580  0.51010  0.34149  Biso   1.000  C
  C35      1.0000 0.55950  0.62070  0.37685  Biso   1.000  C
  C36      1.0000 0.53450  0.60280  0.33168  Biso   1.000  C
  C37      1.0000 0.05930  0.39570  0.15124  Biso   1.000  C
  C38      1.0000 0.00620  0.38060  0.10661  Biso   1.000  C
  C39      1.0000 0.16170  0.42080  0.07407  Biso   1.000  C
  C40      1.0000 0.37330  0.47170  0.08823  Biso   1.000  C
  C41      1.0000 0.41420  0.48420  0.13381  Biso   1.000  C
  C42      1.0000 0.09330  0.40480  0.02690  Biso   1.000  C
  C43      1.0000 0.07340  0.40360  0.95438  Biso   1.000  C
  C44      1.0000 0.11370  0.42050  0.90618  Biso   1.000  C
  C45      1.0000 0.31370  0.47510  0.88735  Biso   1.000  C
  C46      1.0000 0.32420  0.48990  0.84149  Biso   1.000  C
  C47      1.0000 0.94050  0.37930  0.87685  Biso   1.000  C
  C48      1.0000 0.96550  0.39720  0.83168  Biso   1.000  C
  S1       1.0000 0.32707  0.81340  0.78174  Biso   1.000  S
  S2       1.0000 0.17293  0.18660  0.28174  Biso   1.000  S
  S3       1.0000 0.67293  0.31340  0.71826  Biso   1.000  S
  S4       1.0000 0.82707  0.68660  0.21826  Biso   1.000  S
  N1       1.0000 0.76040  0.05150  0.83481  Biso   1.000  N
  N2       1.0000 0.65300  0.04630  0.18647  Biso   1.000  N
  N3       1.0000 0.91730  0.99650  0.01285  Biso   1.000  N
  N4       1.0000 0.39680  0.15060  0.98418  Biso   1.000  N
  N5       1.0000 0.38890  0.15410  0.03105  Biso   1.000  N
  N6       1.0000 0.70790  0.06070  0.01074  Biso   1.000  N
  N7       1.0000 0.73960  0.94850  0.33481  Biso   1.000  N
  N8       1.0000 0.84700  0.95370  0.68647  Biso   1.000  N
  N9       1.0000 0.58270  0.00350  0.51285  Biso   1.000  N
  N10      1.0000 0.10320  0.84940  0.48418  Biso   1.000  N
  N11      1.0000 0.11110  0.84590  0.53105  Biso   1.000  N
  N12      1.0000 0.79210  0.93930  0.51074  Biso   1.000  N
  N13      1.0000 0.23960  0.55150  0.66519  Biso   1.000  N
  N14      1.0000 0.34700  0.54630  0.31353  Biso   1.000  N
  N15      1.0000 0.08270  0.49650  0.48715  Biso   1.000  N
  N16      1.0000 0.60320  0.65060  0.51582  Biso   1.000  N
  N17      1.0000 0.61110  0.65410  0.46895  Biso   1.000  N
  N18      1.0000 0.29210  0.56070  0.48926  Biso   1.000  N
  N19      1.0000 0.26040  0.44850  0.16519  Biso   1.000  N
  N20      1.0000 0.15300  0.45370  0.81353  Biso   1.000  N
  N21      1.0000 0.41730  0.50350  0.98715  Biso   1.000  N
  N22      1.0000 0.89680  0.34940  0.01582  Biso   1.000  N
  N23      1.0000 0.88890  0.34590  0.96895  Biso   1.000  N
  N24      1.0000 0.20790  0.43930  0.98926  Biso   1.000  N
  O1       1.0000 0.06950  0.83860  0.77820  Biso   1.000  O
  O2       1.0000 0.45380  0.91540  0.75844  Biso   1.000  O
  O3       1.0000 0.37510  0.69220  0.75892  Biso   1.000  O
  O4       1.0000 0.39190  0.80700  0.82878  Biso   1.000  O
  O5       1.0000 0.14400  0.13930  0.76183  Biso   1.000  O
  O6       1.0000 0.43050  0.16140  0.27820  Biso   1.000  O
  O7       1.0000 0.04620  0.08460  0.25844  Biso   1.000  O
  O8       1.0000 0.12490  0.30780  0.25892  Biso   1.000  O
  O9       1.0000 0.10810  0.19300  0.32878  Biso   1.000  O
  O10      1.0000 0.35600  0.86070  0.26183  Biso   1.000  O
  O11      1.0000 0.93050  0.33860  0.72180  Biso   1.000  O
  O12      1.0000 0.54620  0.41540  0.74156  Biso   1.000  O
  O13      1.0000 0.62490  0.19220  0.74108  Biso   1.000  O
  O14      1.0000 0.60810  0.30700  0.67122  Biso   1.000  O
  O15      1.0000 0.85600  0.63930  0.73817  Biso   1.000  O
  O16      1.0000 0.56950  0.66140  0.22180  Biso   1.000  O
  O17      1.0000 0.95380  0.58460  0.24156  Biso   1.000  O
  O18      1.0000 0.87510  0.80780  0.24108  Biso   1.000  O
  O19      1.0000 0.89190  0.69300  0.17122  Biso   1.000  O
  O20      1.0000 0.64400  0.36070  0.23817  Biso   1.000  O
