data_image0
_cell_length_a       13.939
_cell_length_b       8.334
_cell_length_c       12.856
_cell_angle_alpha    90
_cell_angle_beta     90
_cell_angle_gamma    90

_symmetry_space_group_name_H-M    "P 1"
_symmetry_int_tables_number       1

loop_
  _symmetry_equiv_pos_as_xyz
  'x, y, z'

loop_
  _atom_site_label
  _atom_site_occupancy
  _atom_site_fract_x
  _atom_site_fract_y
  _atom_site_fract_z
  _atom_site_thermal_displace_type
  _atom_site_B_iso_or_equiv
  _atom_site_type_symbol
  C1       1.0000 0.23649  0.88237  0.16620  Biso   1.000  C
  H1       1.0000 0.19400  0.93320  0.12120  Biso   1.000  H
  C2       1.0000 0.33424  0.91393  0.15736  Biso   1.000  C
  H2       1.0000 0.35570  0.98560  0.10700  Biso   1.000  H
  C3       1.0000 0.36326  0.74186  0.29245  Biso   1.000  C
  H3       1.0000 0.40570  0.69100  0.33740  Biso   1.000  H
  C4       1.0000 0.26513  0.71148  0.30182  Biso   1.000  C
  N1       1.0000 0.20209  0.78094  0.23759  Biso   1.000  N
  N2       1.0000 0.39777  0.84251  0.22030  Biso   1.000  N
  C5       1.0000 0.22685  0.60564  0.38702  Biso   1.000  C
  H4       1.0000 0.19430  0.67250  0.43770  Biso   1.000  H
  H5       1.0000 0.28060  0.55470  0.42180  Biso   1.000  H
  C6       1.0000 0.22649  0.30813  0.28183  Biso   1.000  C
  H6       1.0000 0.19000  0.22780  0.24420  Biso   1.000  H
  H7       1.0000 0.26730  0.36400  0.23260  Biso   1.000  H
  C7       1.0000 0.28700  0.22858  0.36334  Biso   1.000  C
  C8       1.0000 0.38034  0.28022  0.38258  Biso   1.000  C
  H8       1.0000 0.40940  0.35490  0.33900  Biso   1.000  H
  C9       1.0000 0.42954  0.21843  0.46807  Biso   1.000  C
  H9       1.0000 0.49140  0.25500  0.48100  Biso   1.000  H
  C10      1.0000 0.30417  0.05187  0.50966  Biso   1.000  C
  H10      1.0000 0.27900  0.97060  0.55110  Biso   1.000  H
  C11      1.0000 0.24934  0.10842  0.42730  Biso   1.000  C
  H11      1.0000 0.18850  0.06700  0.41490  Biso   1.000  H
  N3       1.0000 0.39187  0.10906  0.53232  Biso   1.000  N
  S1       1.0000 0.14450  0.45084  0.34383  Biso   1.000  S
  Ag1      1.0000 0.05638  0.60369  0.20247  Biso   1.000  Ag
  C12      1.0000 0.76351  0.11763  0.66620  Biso   1.000  C
  H12      1.0000 0.80600  0.06680  0.62120  Biso   1.000  H
  C13      1.0000 0.66576  0.08607  0.65736  Biso   1.000  C
  H13      1.0000 0.64430  0.01440  0.60700  Biso   1.000  H
  C14      1.0000 0.63674  0.25814  0.79245  Biso   1.000  C
  H14      1.0000 0.59430  0.30900  0.83740  Biso   1.000  H
  C15      1.0000 0.73487  0.28852  0.80182  Biso   1.000  C
  N4       1.0000 0.79791  0.21906  0.73759  Biso   1.000  N
  N5       1.0000 0.60223  0.15749  0.72030  Biso   1.000  N
  C16      1.0000 0.77315  0.39436  0.88702  Biso   1.000  C
  H15      1.0000 0.80570  0.32750  0.93770  Biso   1.000  H
  H16      1.0000 0.71940  0.44530  0.92180  Biso   1.000  H
  C17      1.0000 0.77351  0.69187  0.78183  Biso   1.000  C
  H17      1.0000 0.81000  0.77220  0.74420  Biso   1.000  H
  H18      1.0000 0.73270  0.63600  0.73260  Biso   1.000  H
  C18      1.0000 0.71300  0.77142  0.86334  Biso   1.000  C
  C19      1.0000 0.61966  0.71978  0.88258  Biso   1.000  C
  H19      1.0000 0.59060  0.64510  0.83900  Biso   1.000  H
  C20      1.0000 0.57046  0.78157  0.96807  Biso   1.000  C
  H20      1.0000 0.50860  0.74500  0.98100  Biso   1.000  H
  C21      1.0000 0.69583  0.94813  0.00966  Biso   1.000  C
  H21      1.0000 0.72100  0.02940  0.05110  Biso   1.000  H
  C22      1.0000 0.75066  0.89158  0.92730  Biso   1.000  C
  H22      1.0000 0.81150  0.93300  0.91490  Biso   1.000  H
  N6       1.0000 0.60813  0.89094  0.03232  Biso   1.000  N
  S2       1.0000 0.85550  0.54916  0.84383  Biso   1.000  S
  Ag2      1.0000 0.94362  0.39631  0.70247  Biso   1.000  Ag
  C23      1.0000 0.73649  0.61763  0.16620  Biso   1.000  C
  H23      1.0000 0.69400  0.56680  0.12120  Biso   1.000  H
  C24      1.0000 0.83424  0.58607  0.15736  Biso   1.000  C
  H24      1.0000 0.85570  0.51440  0.10700  Biso   1.000  H
  C25      1.0000 0.86326  0.75814  0.29245  Biso   1.000  C
  H25      1.0000 0.90570  0.80900  0.33740  Biso   1.000  H
  C26      1.0000 0.76513  0.78852  0.30182  Biso   1.000  C
  N7       1.0000 0.70209  0.71906  0.23759  Biso   1.000  N
  N8       1.0000 0.89777  0.65749  0.22030  Biso   1.000  N
  C27      1.0000 0.72685  0.89436  0.38702  Biso   1.000  C
  H26      1.0000 0.69430  0.82750  0.43770  Biso   1.000  H
  H27      1.0000 0.78060  0.94530  0.42180  Biso   1.000  H
  C28      1.0000 0.72649  0.19187  0.28183  Biso   1.000  C
  H28      1.0000 0.69000  0.27220  0.24420  Biso   1.000  H
  H29      1.0000 0.76730  0.13600  0.23260  Biso   1.000  H
  C29      1.0000 0.78700  0.27142  0.36334  Biso   1.000  C
  C30      1.0000 0.88034  0.21978  0.38258  Biso   1.000  C
  H30      1.0000 0.90940  0.14510  0.33900  Biso   1.000  H
  C31      1.0000 0.92954  0.28157  0.46807  Biso   1.000  C
  H31      1.0000 0.99140  0.24500  0.48100  Biso   1.000  H
  C32      1.0000 0.80417  0.44813  0.50966  Biso   1.000  C
  H32      1.0000 0.77900  0.52940  0.55110  Biso   1.000  H
  C33      1.0000 0.74934  0.39158  0.42730  Biso   1.000  C
  H33      1.0000 0.68850  0.43300  0.41490  Biso   1.000  H
  N9       1.0000 0.89187  0.39094  0.53232  Biso   1.000  N
  S3       1.0000 0.64450  0.04916  0.34383  Biso   1.000  S
  Ag3      1.0000 0.55638  0.89631  0.20247  Biso   1.000  Ag
  C34      1.0000 0.26351  0.38237  0.66620  Biso   1.000  C
  H34      1.0000 0.30600  0.43320  0.62120  Biso   1.000  H
  C35      1.0000 0.16576  0.41393  0.65736  Biso   1.000  C
  H35      1.0000 0.14430  0.48560  0.60700  Biso   1.000  H
  C36      1.0000 0.13674  0.24186  0.79245  Biso   1.000  C
  H36      1.0000 0.09430  0.19100  0.83740  Biso   1.000  H
  C37      1.0000 0.23487  0.21148  0.80182  Biso   1.000  C
  N10      1.0000 0.29791  0.28094  0.73759  Biso   1.000  N
  N11      1.0000 0.10223  0.34251  0.72030  Biso   1.000  N
  C38      1.0000 0.27315  0.10564  0.88702  Biso   1.000  C
  H37      1.0000 0.30570  0.17250  0.93770  Biso   1.000  H
  H38      1.0000 0.21940  0.05470  0.92180  Biso   1.000  H
  C39      1.0000 0.27351  0.80813  0.78183  Biso   1.000  C
  H39      1.0000 0.31000  0.72780  0.74420  Biso   1.000  H
  H40      1.0000 0.23270  0.86400  0.73260  Biso   1.000  H
  C40      1.0000 0.21300  0.72858  0.86334  Biso   1.000  C
  C41      1.0000 0.11966  0.78022  0.88258  Biso   1.000  C
  H41      1.0000 0.09060  0.85490  0.83900  Biso   1.000  H
  C42      1.0000 0.07046  0.71843  0.96807  Biso   1.000  C
  H42      1.0000 0.00860  0.75500  0.98100  Biso   1.000  H
  C43      1.0000 0.19583  0.55187  0.00966  Biso   1.000  C
  H43      1.0000 0.22100  0.47060  0.05110  Biso   1.000  H
  C44      1.0000 0.25066  0.60842  0.92730  Biso   1.000  C
  H44      1.0000 0.31150  0.56700  0.91490  Biso   1.000  H
  N12      1.0000 0.10813  0.60906  0.03232  Biso   1.000  N
  S4       1.0000 0.35550  0.95084  0.84383  Biso   1.000  S
  Ag4      1.0000 0.44362  0.10369  0.70247  Biso   1.000  Ag
