data_image0
_cell_length_a       9.5321
_cell_length_b       9.5321
_cell_length_c       15.451
_cell_angle_alpha    92.8651
_cell_angle_beta     92.8651
_cell_angle_gamma    99.0412

_symmetry_space_group_name_H-M    P 1
_symmetry_int_tables_number       1

loop_
  _symmetry_equiv_pos_as_xyz
  'x, y, z'

loop_
  _atom_site_label
  _atom_site_occupancy
  _atom_site_fract_x
  _atom_site_fract_y
  _atom_site_fract_z
  _atom_site_thermal_displace_type
  _atom_site_B_iso_or_equiv
  _atom_site_type_symbol
  Er1      1.0000 0.01086  0.98914  0.75000  Biso   1.000  Er
  Er2      1.0000 0.98914  0.01086  0.25000  Biso   1.000  Er
  P1       1.0000 0.35393  0.04491  0.64596  Biso   1.000  P
  P2       1.0000 0.65165  0.97627  0.65429  Biso   1.000  P
  P3       1.0000 0.95509  0.64607  0.85404  Biso   1.000  P
  P4       1.0000 0.02373  0.34835  0.84571  Biso   1.000  P
  P5       1.0000 0.64607  0.95509  0.35404  Biso   1.000  P
  P6       1.0000 0.34835  0.02373  0.34571  Biso   1.000  P
  P7       1.0000 0.04491  0.35393  0.14596  Biso   1.000  P
  P8       1.0000 0.97627  0.65165  0.15429  Biso   1.000  P
  H1       1.0000 0.42040  0.82960  0.73250  Biso   1.000  H
  H2       1.0000 0.71180  0.37180  0.49670  Biso   1.000  H
  H3       1.0000 0.61460  0.39380  0.55700  Biso   1.000  H
  H4       1.0000 0.08760  0.83520  0.60280  Biso   1.000  H
  H5       1.0000 0.12100  0.75860  0.67220  Biso   1.000  H
  H6       1.0000 0.92510  0.11030  0.90220  Biso   1.000  H
  H7       1.0000 0.84420  0.97680  0.89360  Biso   1.000  H
  H8       1.0000 0.47200  0.15900  0.81430  Biso   1.000  H
  H9       1.0000 0.63160  0.12620  0.81650  Biso   1.000  H
  H10      1.0000 0.57900  0.22520  0.74500  Biso   1.000  H
  H11      1.0000 0.17040  0.57960  0.76750  Biso   1.000  H
  H12      1.0000 0.62820  0.28820  0.00330  Biso   1.000  H
  H13      1.0000 0.60620  0.38540  0.94300  Biso   1.000  H
  H14      1.0000 0.16480  0.91240  0.89720  Biso   1.000  H
  H15      1.0000 0.24140  0.87900  0.82780  Biso   1.000  H
  H16      1.0000 0.88970  0.07490  0.59780  Biso   1.000  H
  H17      1.0000 0.02320  0.15580  0.60640  Biso   1.000  H
  H18      1.0000 0.84100  0.52800  0.68570  Biso   1.000  H
  H19      1.0000 0.87380  0.36840  0.68350  Biso   1.000  H
  H20      1.0000 0.77480  0.42100  0.75500  Biso   1.000  H
  H21      1.0000 0.57960  0.17040  0.26750  Biso   1.000  H
  H22      1.0000 0.28820  0.62820  0.50330  Biso   1.000  H
  H23      1.0000 0.38540  0.60620  0.44300  Biso   1.000  H
  H24      1.0000 0.91240  0.16480  0.39720  Biso   1.000  H
  H25      1.0000 0.87900  0.24140  0.32780  Biso   1.000  H
  H26      1.0000 0.07490  0.88970  0.09780  Biso   1.000  H
  H27      1.0000 0.15580  0.02320  0.10640  Biso   1.000  H
  H28      1.0000 0.52800  0.84100  0.18570  Biso   1.000  H
  H29      1.0000 0.36840  0.87380  0.18350  Biso   1.000  H
  H30      1.0000 0.42100  0.77480  0.25500  Biso   1.000  H
  H31      1.0000 0.82960  0.42040  0.23250  Biso   1.000  H
  H32      1.0000 0.37180  0.71180  0.99670  Biso   1.000  H
  H33      1.0000 0.39380  0.61460  0.05700  Biso   1.000  H
  H34      1.0000 0.83520  0.08760  0.10280  Biso   1.000  H
  H35      1.0000 0.75860  0.12100  0.17220  Biso   1.000  H
  H36      1.0000 0.11030  0.92510  0.40220  Biso   1.000  H
  H37      1.0000 0.97680  0.84420  0.39360  Biso   1.000  H
  H38      1.0000 0.15900  0.47200  0.31430  Biso   1.000  H
  H39      1.0000 0.12620  0.63160  0.31650  Biso   1.000  H
  H40      1.0000 0.22520  0.57900  0.24500  Biso   1.000  H
  Ru1      1.0000 0.54568  0.12164  0.50190  Biso   1.000  Ru
  Ru2      1.0000 0.87836  0.45432  0.99810  Biso   1.000  Ru
  Ru3      1.0000 0.45432  0.87836  0.49810  Biso   1.000  Ru
  Ru4      1.0000 0.12164  0.54568  0.00190  Biso   1.000  Ru
  C1       1.0000 0.50470  0.01670  0.71970  Biso   1.000  C
  C2       1.0000 0.55060  0.14220  0.77870  Biso   1.000  C
  C3       1.0000 0.98330  0.49530  0.78030  Biso   1.000  C
  C4       1.0000 0.85780  0.44940  0.72130  Biso   1.000  C
  C5       1.0000 0.49530  0.98330  0.28030  Biso   1.000  C
  C6       1.0000 0.44940  0.85780  0.22130  Biso   1.000  C
  C7       1.0000 0.01670  0.50470  0.21970  Biso   1.000  C
  C8       1.0000 0.14220  0.55060  0.27870  Biso   1.000  C
  O1       1.0000 0.40860  0.16780  0.58960  Biso   1.000  O
  O2       1.0000 0.30890  0.90970  0.58610  Biso   1.000  O
  O3       1.0000 0.23310  0.07410  0.69950  Biso   1.000  O
  O4       1.0000 0.69130  0.10430  0.59870  Biso   1.000  O
  O5       1.0000 0.59440  0.84180  0.59420  Biso   1.000  O
  O6       1.0000 0.77260  0.95500  0.71480  Biso   1.000  O
  O7       1.0000 0.45070  0.90010  0.76740  Biso   1.000  O
  O8       1.0000 0.62490  0.35750  0.50710  Biso   1.000  O
  O9       1.0000 0.05820  0.80000  0.64890  Biso   1.000  O
  O10      1.0000 0.92680  0.02300  0.89150  Biso   1.000  O
  O11      1.0000 0.83220  0.59140  0.91040  Biso   1.000  O
  O12      1.0000 0.09030  0.69110  0.91390  Biso   1.000  O
  O13      1.0000 0.92590  0.76690  0.80050  Biso   1.000  O
  O14      1.0000 0.89570  0.30870  0.90130  Biso   1.000  O
  O15      1.0000 0.15820  0.40560  0.90580  Biso   1.000  O
  O16      1.0000 0.04500  0.22740  0.78520  Biso   1.000  O
  O17      1.0000 0.09990  0.54930  0.73260  Biso   1.000  O
  O18      1.0000 0.64250  0.37510  0.99290  Biso   1.000  O
  O19      1.0000 0.20000  0.94180  0.85110  Biso   1.000  O
  O20      1.0000 0.97700  0.07320  0.60850  Biso   1.000  O
  O21      1.0000 0.59140  0.83220  0.41040  Biso   1.000  O
  O22      1.0000 0.69110  0.09030  0.41390  Biso   1.000  O
  O23      1.0000 0.76690  0.92590  0.30050  Biso   1.000  O
  O24      1.0000 0.30870  0.89570  0.40130  Biso   1.000  O
  O25      1.0000 0.40560  0.15820  0.40580  Biso   1.000  O
  O26      1.0000 0.22740  0.04500  0.28520  Biso   1.000  O
  O27      1.0000 0.54930  0.09990  0.23260  Biso   1.000  O
  O28      1.0000 0.37510  0.64250  0.49290  Biso   1.000  O
  O29      1.0000 0.94180  0.20000  0.35110  Biso   1.000  O
  O30      1.0000 0.07320  0.97700  0.10850  Biso   1.000  O
  O31      1.0000 0.16780  0.40860  0.08960  Biso   1.000  O
  O32      1.0000 0.90970  0.30890  0.08610  Biso   1.000  O
  O33      1.0000 0.07410  0.23310  0.19950  Biso   1.000  O
  O34      1.0000 0.10430  0.69130  0.09870  Biso   1.000  O
  O35      1.0000 0.84180  0.59440  0.09420  Biso   1.000  O
  O36      1.0000 0.95500  0.77260  0.21480  Biso   1.000  O
  O37      1.0000 0.90010  0.45070  0.26740  Biso   1.000  O
  O38      1.0000 0.35750  0.62490  0.00710  Biso   1.000  O
  O39      1.0000 0.80000  0.05820  0.14890  Biso   1.000  O
  O40      1.0000 0.02300  0.92680  0.39150  Biso   1.000  O
