data_image0
_cell_length_a       9.6116
_cell_length_b       9.6116
_cell_length_c       15.548
_cell_angle_alpha    92.9302
_cell_angle_beta     92.9302
_cell_angle_gamma    99.0745

_symmetry_space_group_name_H-M    P 1
_symmetry_int_tables_number       1

loop_
  _symmetry_equiv_pos_as_xyz
  'x, y, z'

loop_
  _atom_site_label
  _atom_site_occupancy
  _atom_site_fract_x
  _atom_site_fract_y
  _atom_site_fract_z
  _atom_site_thermal_displace_type
  _atom_site_B_iso_or_equiv
  _atom_site_type_symbol
  Gd1      1.0000 0.01105  0.98895  0.75000  Biso   1.000  Gd
  Gd2      1.0000 0.98895  0.01105  0.25000  Biso   1.000  Gd
  P1       1.0000 0.35442  0.04530  0.64483  Biso   1.000  P
  P2       1.0000 0.65091  0.97641  0.65404  Biso   1.000  P
  P3       1.0000 0.95470  0.64558  0.85517  Biso   1.000  P
  P4       1.0000 0.02359  0.34909  0.84596  Biso   1.000  P
  P5       1.0000 0.64558  0.95470  0.35517  Biso   1.000  P
  P6       1.0000 0.34909  0.02359  0.34596  Biso   1.000  P
  P7       1.0000 0.04530  0.35442  0.14483  Biso   1.000  P
  P8       1.0000 0.97641  0.65091  0.15404  Biso   1.000  P
  H1       1.0000 0.42200  0.82400  0.73000  Biso   1.000  H
  H2       1.0000 0.62400  0.39000  0.56000  Biso   1.000  H
  H3       1.0000 0.71600  0.36400  0.49700  Biso   1.000  H
  H4       1.0000 0.09000  0.84000  0.59900  Biso   1.000  H
  H5       1.0000 0.12500  0.75700  0.67200  Biso   1.000  H
  H6       1.0000 0.93400  0.11400  0.90500  Biso   1.000  H
  H7       1.0000 0.84400  0.98600  0.89600  Biso   1.000  H
  H8       1.0000 0.47500  0.16240  0.81380  Biso   1.000  H
  H9       1.0000 0.63270  0.12830  0.81590  Biso   1.000  H
  H10      1.0000 0.58180  0.22780  0.74520  Biso   1.000  H
  H11      1.0000 0.17600  0.57800  0.77000  Biso   1.000  H
  H12      1.0000 0.61000  0.37600  0.94000  Biso   1.000  H
  H13      1.0000 0.63600  0.28400  0.00300  Biso   1.000  H
  H14      1.0000 0.16000  0.91000  0.90100  Biso   1.000  H
  H15      1.0000 0.24300  0.87500  0.82800  Biso   1.000  H
  H16      1.0000 0.88600  0.06600  0.59500  Biso   1.000  H
  H17      1.0000 0.01400  0.15600  0.60400  Biso   1.000  H
  H18      1.0000 0.83760  0.52500  0.68620  Biso   1.000  H
  H19      1.0000 0.87170  0.36730  0.68410  Biso   1.000  H
  H20      1.0000 0.77220  0.41820  0.75480  Biso   1.000  H
  H21      1.0000 0.57800  0.17600  0.27000  Biso   1.000  H
  H22      1.0000 0.37600  0.61000  0.44000  Biso   1.000  H
  H23      1.0000 0.28400  0.63600  0.50300  Biso   1.000  H
  H24      1.0000 0.91000  0.16000  0.40100  Biso   1.000  H
  H25      1.0000 0.87500  0.24300  0.32800  Biso   1.000  H
  H26      1.0000 0.06600  0.88600  0.09500  Biso   1.000  H
  H27      1.0000 0.15600  0.01400  0.10400  Biso   1.000  H
  H28      1.0000 0.52500  0.83760  0.18620  Biso   1.000  H
  H29      1.0000 0.36730  0.87170  0.18410  Biso   1.000  H
  H30      1.0000 0.41820  0.77220  0.25480  Biso   1.000  H
  H31      1.0000 0.82400  0.42200  0.23000  Biso   1.000  H
  H32      1.0000 0.39000  0.62400  0.06000  Biso   1.000  H
  H33      1.0000 0.36400  0.71600  0.99700  Biso   1.000  H
  H34      1.0000 0.84000  0.09000  0.09900  Biso   1.000  H
  H35      1.0000 0.75700  0.12500  0.17200  Biso   1.000  H
  H36      1.0000 0.11400  0.93400  0.40500  Biso   1.000  H
  H37      1.0000 0.98600  0.84400  0.39600  Biso   1.000  H
  H38      1.0000 0.16240  0.47500  0.31380  Biso   1.000  H
  H39      1.0000 0.12830  0.63270  0.31590  Biso   1.000  H
  H40      1.0000 0.22780  0.58180  0.24520  Biso   1.000  H
  Ru1      1.0000 0.54565  0.12123  0.50195  Biso   1.000  Ru
  Ru2      1.0000 0.87877  0.45435  0.99805  Biso   1.000  Ru
  Ru3      1.0000 0.45435  0.87877  0.49805  Biso   1.000  Ru
  Ru4      1.0000 0.12123  0.54565  0.00195  Biso   1.000  Ru
  C1       1.0000 0.50460  0.01740  0.71720  Biso   1.000  C
  C2       1.0000 0.55270  0.14530  0.77840  Biso   1.000  C
  C3       1.0000 0.98260  0.49540  0.78280  Biso   1.000  C
  C4       1.0000 0.85470  0.44730  0.72160  Biso   1.000  C
  C5       1.0000 0.49540  0.98260  0.28280  Biso   1.000  C
  C6       1.0000 0.44730  0.85470  0.22160  Biso   1.000  C
  C7       1.0000 0.01740  0.50460  0.21720  Biso   1.000  C
  C8       1.0000 0.14530  0.55270  0.27840  Biso   1.000  C
  O1       1.0000 0.40910  0.16850  0.58950  Biso   1.000  O
  O2       1.0000 0.30980  0.90880  0.58590  Biso   1.000  O
  O3       1.0000 0.23490  0.07690  0.69880  Biso   1.000  O
  O4       1.0000 0.69110  0.10470  0.59840  Biso   1.000  O
  O5       1.0000 0.59350  0.84490  0.59360  Biso   1.000  O
  O6       1.0000 0.77050  0.95410  0.71430  Biso   1.000  O
  O7       1.0000 0.44940  0.89960  0.76660  Biso   1.000  O
  O8       1.0000 0.62480  0.35940  0.50650  Biso   1.000  O
  O9       1.0000 0.06010  0.79770  0.64880  Biso   1.000  O
  O10      1.0000 0.92850  0.02470  0.89220  Biso   1.000  O
  O11      1.0000 0.83150  0.59090  0.91050  Biso   1.000  O
  O12      1.0000 0.09120  0.69020  0.91410  Biso   1.000  O
  O13      1.0000 0.92310  0.76510  0.80120  Biso   1.000  O
  O14      1.0000 0.89530  0.30890  0.90160  Biso   1.000  O
  O15      1.0000 0.15510  0.40650  0.90640  Biso   1.000  O
  O16      1.0000 0.04590  0.22950  0.78570  Biso   1.000  O
  O17      1.0000 0.10040  0.55060  0.73340  Biso   1.000  O
  O18      1.0000 0.64060  0.37520  0.99350  Biso   1.000  O
  O19      1.0000 0.20230  0.93990  0.85120  Biso   1.000  O
  O20      1.0000 0.97530  0.07150  0.60780  Biso   1.000  O
  O21      1.0000 0.59090  0.83150  0.41050  Biso   1.000  O
  O22      1.0000 0.69020  0.09120  0.41410  Biso   1.000  O
  O23      1.0000 0.76510  0.92310  0.30120  Biso   1.000  O
  O24      1.0000 0.30890  0.89530  0.40160  Biso   1.000  O
  O25      1.0000 0.40650  0.15510  0.40640  Biso   1.000  O
  O26      1.0000 0.22950  0.04590  0.28570  Biso   1.000  O
  O27      1.0000 0.55060  0.10040  0.23340  Biso   1.000  O
  O28      1.0000 0.37520  0.64060  0.49350  Biso   1.000  O
  O29      1.0000 0.93990  0.20230  0.35120  Biso   1.000  O
  O30      1.0000 0.07150  0.97530  0.10780  Biso   1.000  O
  O31      1.0000 0.16850  0.40910  0.08950  Biso   1.000  O
  O32      1.0000 0.90880  0.30980  0.08590  Biso   1.000  O
  O33      1.0000 0.07690  0.23490  0.19880  Biso   1.000  O
  O34      1.0000 0.10470  0.69110  0.09840  Biso   1.000  O
  O35      1.0000 0.84490  0.59350  0.09360  Biso   1.000  O
  O36      1.0000 0.95410  0.77050  0.21430  Biso   1.000  O
  O37      1.0000 0.89960  0.44940  0.26660  Biso   1.000  O
  O38      1.0000 0.35940  0.62480  0.00650  Biso   1.000  O
  O39      1.0000 0.79770  0.06010  0.14880  Biso   1.000  O
  O40      1.0000 0.02470  0.92850  0.39220  Biso   1.000  O
