data_image0
_cell_length_a       9.6116
_cell_length_b       9.6116
_cell_length_c       15.548
_cell_angle_alpha    92.9302
_cell_angle_beta     92.9302
_cell_angle_gamma    99.0745

_symmetry_space_group_name_H-M    P 1
_symmetry_int_tables_number       1

loop_
  _symmetry_equiv_pos_as_xyz
  'x, y, z'

loop_
  _atom_site_label
  _atom_site_occupancy
  _atom_site_fract_x
  _atom_site_fract_y
  _atom_site_fract_z
  _atom_site_thermal_displace_type
  _atom_site_B_iso_or_equiv
  _atom_site_type_symbol
  Dy1      1.0000 0.01085  0.98915  0.75000  Biso   1.000  Dy
  Dy2      1.0000 0.98915  0.01085  0.25000  Biso   1.000  Dy
  P1       1.0000 0.35393  0.04483  0.64557  Biso   1.000  P
  P2       1.0000 0.65150  0.97608  0.65429  Biso   1.000  P
  P3       1.0000 0.95517  0.64607  0.85443  Biso   1.000  P
  P4       1.0000 0.02392  0.34850  0.84571  Biso   1.000  P
  P5       1.0000 0.64607  0.95517  0.35443  Biso   1.000  P
  P6       1.0000 0.34850  0.02392  0.34571  Biso   1.000  P
  P7       1.0000 0.04483  0.35393  0.14557  Biso   1.000  P
  P8       1.0000 0.97608  0.65150  0.15429  Biso   1.000  P
  H1       1.0000 0.47520  0.16080  0.81470  Biso   1.000  H
  H2       1.0000 0.63430  0.13110  0.81490  Biso   1.000  H
  H3       1.0000 0.57790  0.22830  0.74470  Biso   1.000  H
  H4       1.0000 0.42200  0.82400  0.73000  Biso   1.000  H
  H5       1.0000 0.62400  0.39000  0.56000  Biso   1.000  H
  H6       1.0000 0.71600  0.36400  0.49700  Biso   1.000  H
  H7       1.0000 0.09000  0.84000  0.59900  Biso   1.000  H
  H8       1.0000 0.12500  0.75700  0.67200  Biso   1.000  H
  H9       1.0000 0.93400  0.11400  0.90500  Biso   1.000  H
  H10      1.0000 0.84400  0.98600  0.89600  Biso   1.000  H
  H11      1.0000 0.83920  0.52480  0.68530  Biso   1.000  H
  H12      1.0000 0.86890  0.36570  0.68510  Biso   1.000  H
  H13      1.0000 0.77170  0.42210  0.75530  Biso   1.000  H
  H14      1.0000 0.17600  0.57800  0.77000  Biso   1.000  H
  H15      1.0000 0.61000  0.37600  0.94000  Biso   1.000  H
  H16      1.0000 0.63600  0.28400  0.00300  Biso   1.000  H
  H17      1.0000 0.16000  0.91000  0.90100  Biso   1.000  H
  H18      1.0000 0.24300  0.87500  0.82800  Biso   1.000  H
  H19      1.0000 0.88600  0.06600  0.59500  Biso   1.000  H
  H20      1.0000 0.01400  0.15600  0.60400  Biso   1.000  H
  H21      1.0000 0.52480  0.83920  0.18530  Biso   1.000  H
  H22      1.0000 0.36570  0.86890  0.18510  Biso   1.000  H
  H23      1.0000 0.42210  0.77170  0.25530  Biso   1.000  H
  H24      1.0000 0.57800  0.17600  0.27000  Biso   1.000  H
  H25      1.0000 0.37600  0.61000  0.44000  Biso   1.000  H
  H26      1.0000 0.28400  0.63600  0.50300  Biso   1.000  H
  H27      1.0000 0.91000  0.16000  0.40100  Biso   1.000  H
  H28      1.0000 0.87500  0.24300  0.32800  Biso   1.000  H
  H29      1.0000 0.06600  0.88600  0.09500  Biso   1.000  H
  H30      1.0000 0.15600  0.01400  0.10400  Biso   1.000  H
  H31      1.0000 0.16080  0.47520  0.31470  Biso   1.000  H
  H32      1.0000 0.13110  0.63430  0.31490  Biso   1.000  H
  H33      1.0000 0.22830  0.57790  0.24470  Biso   1.000  H
  H34      1.0000 0.82400  0.42200  0.23000  Biso   1.000  H
  H35      1.0000 0.39000  0.62400  0.06000  Biso   1.000  H
  H36      1.0000 0.36400  0.71600  0.99700  Biso   1.000  H
  H37      1.0000 0.84000  0.09000  0.09900  Biso   1.000  H
  H38      1.0000 0.75700  0.12500  0.17200  Biso   1.000  H
  H39      1.0000 0.11400  0.93400  0.40500  Biso   1.000  H
  H40      1.0000 0.98600  0.84400  0.39600  Biso   1.000  H
  Ru1      1.0000 0.54552  0.12160  0.50202  Biso   1.000  Ru
  Ru2      1.0000 0.87840  0.45448  0.99798  Biso   1.000  Ru
  Ru3      1.0000 0.45448  0.87840  0.49798  Biso   1.000  Ru
  Ru4      1.0000 0.12160  0.54552  0.00202  Biso   1.000  Ru
  C1       1.0000 0.50630  0.01910  0.71890  Biso   1.000  C
  C2       1.0000 0.55240  0.14560  0.77840  Biso   1.000  C
  C3       1.0000 0.98090  0.49370  0.78110  Biso   1.000  C
  C4       1.0000 0.85440  0.44760  0.72160  Biso   1.000  C
  C5       1.0000 0.49370  0.98090  0.28110  Biso   1.000  C
  C6       1.0000 0.44760  0.85440  0.22160  Biso   1.000  C
  C7       1.0000 0.01910  0.50630  0.21890  Biso   1.000  C
  C8       1.0000 0.14560  0.55240  0.27840  Biso   1.000  C
  O1       1.0000 0.40840  0.16840  0.58940  Biso   1.000  O
  O2       1.0000 0.31000  0.90920  0.58630  Biso   1.000  O
  O3       1.0000 0.23420  0.07580  0.69990  Biso   1.000  O
  O4       1.0000 0.69190  0.10390  0.59860  Biso   1.000  O
  O5       1.0000 0.59530  0.84310  0.59460  Biso   1.000  O
  O6       1.0000 0.77220  0.95440  0.71440  Biso   1.000  O
  O7       1.0000 0.44960  0.89960  0.76780  Biso   1.000  O
  O8       1.0000 0.62450  0.35750  0.50620  Biso   1.000  O
  O9       1.0000 0.05800  0.80120  0.64900  Biso   1.000  O
  O10      1.0000 0.92620  0.02380  0.89110  Biso   1.000  O
  O11      1.0000 0.83160  0.59160  0.91060  Biso   1.000  O
  O12      1.0000 0.09080  0.69000  0.91370  Biso   1.000  O
  O13      1.0000 0.92420  0.76580  0.80010  Biso   1.000  O
  O14      1.0000 0.89610  0.30810  0.90140  Biso   1.000  O
  O15      1.0000 0.15690  0.40470  0.90540  Biso   1.000  O
  O16      1.0000 0.04560  0.22780  0.78560  Biso   1.000  O
  O17      1.0000 0.10040  0.55040  0.73220  Biso   1.000  O
  O18      1.0000 0.64250  0.37550  0.99380  Biso   1.000  O
  O19      1.0000 0.19880  0.94200  0.85100  Biso   1.000  O
  O20      1.0000 0.97620  0.07380  0.60890  Biso   1.000  O
  O21      1.0000 0.59160  0.83160  0.41060  Biso   1.000  O
  O22      1.0000 0.69000  0.09080  0.41370  Biso   1.000  O
  O23      1.0000 0.76580  0.92420  0.30010  Biso   1.000  O
  O24      1.0000 0.30810  0.89610  0.40140  Biso   1.000  O
  O25      1.0000 0.40470  0.15690  0.40540  Biso   1.000  O
  O26      1.0000 0.22780  0.04560  0.28560  Biso   1.000  O
  O27      1.0000 0.55040  0.10040  0.23220  Biso   1.000  O
  O28      1.0000 0.37550  0.64250  0.49380  Biso   1.000  O
  O29      1.0000 0.94200  0.19880  0.35100  Biso   1.000  O
  O30      1.0000 0.07380  0.97620  0.10890  Biso   1.000  O
  O31      1.0000 0.16840  0.40840  0.08940  Biso   1.000  O
  O32      1.0000 0.90920  0.31000  0.08630  Biso   1.000  O
  O33      1.0000 0.07580  0.23420  0.19990  Biso   1.000  O
  O34      1.0000 0.10390  0.69190  0.09860  Biso   1.000  O
  O35      1.0000 0.84310  0.59530  0.09460  Biso   1.000  O
  O36      1.0000 0.95440  0.77220  0.21440  Biso   1.000  O
  O37      1.0000 0.89960  0.44960  0.26780  Biso   1.000  O
  O38      1.0000 0.35750  0.62450  0.00620  Biso   1.000  O
  O39      1.0000 0.80120  0.05800  0.14900  Biso   1.000  O
  O40      1.0000 0.02380  0.92620  0.39110  Biso   1.000  O
