data_image0
_cell_length_a       9.6921
_cell_length_b       9.6921
_cell_length_c       15.6938
_cell_angle_alpha    92.7017
_cell_angle_beta     92.7017
_cell_angle_gamma    99.0196

_symmetry_space_group_name_H-M    P 1
_symmetry_int_tables_number       1

loop_
  _symmetry_equiv_pos_as_xyz
  'x, y, z'

loop_
  _atom_site_label
  _atom_site_occupancy
  _atom_site_fract_x
  _atom_site_fract_y
  _atom_site_fract_z
  _atom_site_thermal_displace_type
  _atom_site_B_iso_or_equiv
  _atom_site_type_symbol
  Ce1      1.0000 0.01140  0.98860  0.75000  Biso   1.000  Ce
  Ce2      1.0000 0.98860  0.01140  0.25000  Biso   1.000  Ce
  P1       1.0000 0.35642  0.04528  0.64390  Biso   1.000  P
  P2       1.0000 0.64866  0.97408  0.65165  Biso   1.000  P
  P3       1.0000 0.95472  0.64358  0.85610  Biso   1.000  P
  P4       1.0000 0.02592  0.35134  0.84835  Biso   1.000  P
  P5       1.0000 0.64358  0.95472  0.35610  Biso   1.000  P
  P6       1.0000 0.35134  0.02592  0.34835  Biso   1.000  P
  P7       1.0000 0.04528  0.35642  0.14390  Biso   1.000  P
  P8       1.0000 0.97408  0.64866  0.15165  Biso   1.000  P
  H1       1.0000 0.47820  0.16000  0.81170  Biso   1.000  H
  H2       1.0000 0.63490  0.12710  0.81070  Biso   1.000  H
  H3       1.0000 0.58030  0.22510  0.74160  Biso   1.000  H
  H4       1.0000 0.50800  0.82400  0.77100  Biso   1.000  H
  H5       1.0000 0.60500  0.40300  0.55000  Biso   1.000  H
  H6       1.0000 0.13700  0.81700  0.61700  Biso   1.000  H
  H7       1.0000 0.90200  0.10200  0.91200  Biso   1.000  H
  H8       1.0000 0.71100  0.39100  0.49600  Biso   1.000  H
  H9       1.0000 0.08400  0.72800  0.67900  Biso   1.000  H
  H10      1.0000 0.86900  0.96300  0.93000  Biso   1.000  H
  H11      1.0000 0.84000  0.52180  0.68830  Biso   1.000  H
  H12      1.0000 0.87290  0.36510  0.68930  Biso   1.000  H
  H13      1.0000 0.77490  0.41970  0.75840  Biso   1.000  H
  H14      1.0000 0.17600  0.49200  0.72900  Biso   1.000  H
  H15      1.0000 0.59700  0.39500  0.95000  Biso   1.000  H
  H16      1.0000 0.18300  0.86300  0.88300  Biso   1.000  H
  H17      1.0000 0.89800  0.09800  0.58800  Biso   1.000  H
  H18      1.0000 0.60900  0.28900  0.00400  Biso   1.000  H
  H19      1.0000 0.27200  0.91600  0.82100  Biso   1.000  H
  H20      1.0000 0.03700  0.13100  0.57000  Biso   1.000  H
  H21      1.0000 0.52180  0.84000  0.18830  Biso   1.000  H
  H22      1.0000 0.36510  0.87290  0.18930  Biso   1.000  H
  H23      1.0000 0.41970  0.77490  0.25840  Biso   1.000  H
  H24      1.0000 0.49200  0.17600  0.22900  Biso   1.000  H
  H25      1.0000 0.39500  0.59700  0.45000  Biso   1.000  H
  H26      1.0000 0.86300  0.18300  0.38300  Biso   1.000  H
  H27      1.0000 0.09800  0.89800  0.08800  Biso   1.000  H
  H28      1.0000 0.28900  0.60900  0.50400  Biso   1.000  H
  H29      1.0000 0.91600  0.27200  0.32100  Biso   1.000  H
  H30      1.0000 0.13100  0.03700  0.07000  Biso   1.000  H
  H31      1.0000 0.16000  0.47820  0.31170  Biso   1.000  H
  H32      1.0000 0.12710  0.63490  0.31070  Biso   1.000  H
  H33      1.0000 0.22510  0.58030  0.24160  Biso   1.000  H
  H34      1.0000 0.82400  0.50800  0.27100  Biso   1.000  H
  H35      1.0000 0.40300  0.60500  0.05000  Biso   1.000  H
  H36      1.0000 0.81700  0.13700  0.11700  Biso   1.000  H
  H37      1.0000 0.10200  0.90200  0.41200  Biso   1.000  H
  H38      1.0000 0.39100  0.71100  0.99600  Biso   1.000  H
  H39      1.0000 0.72800  0.08400  0.17900  Biso   1.000  H
  H40      1.0000 0.96300  0.86900  0.43000  Biso   1.000  H
  Ru1      1.0000 0.54622  0.12006  0.50207  Biso   1.000  Ru
  Ru2      1.0000 0.87994  0.45378  0.99793  Biso   1.000  Ru
  Ru3      1.0000 0.45378  0.87994  0.49793  Biso   1.000  Ru
  Ru4      1.0000 0.12006  0.54622  0.00207  Biso   1.000  Ru
  C1       1.0000 0.50400  0.01520  0.71500  Biso   1.000  C
  C2       1.0000 0.55380  0.14320  0.77510  Biso   1.000  C
  C3       1.0000 0.98480  0.49600  0.78500  Biso   1.000  C
  C4       1.0000 0.85680  0.44620  0.72490  Biso   1.000  C
  C5       1.0000 0.49600  0.98480  0.28500  Biso   1.000  C
  C6       1.0000 0.44620  0.85680  0.22490  Biso   1.000  C
  C7       1.0000 0.01520  0.50400  0.21500  Biso   1.000  C
  C8       1.0000 0.14320  0.55380  0.27510  Biso   1.000  C
  O1       1.0000 0.41107  0.16807  0.58909  Biso   1.000  O
  O2       1.0000 0.31164  0.91088  0.58536  Biso   1.000  O
  O3       1.0000 0.24016  0.07722  0.69762  Biso   1.000  O
  O4       1.0000 0.69003  0.10125  0.59716  Biso   1.000  O
  O5       1.0000 0.59229  0.84389  0.59246  Biso   1.000  O
  O6       1.0000 0.76781  0.95005  0.71076  Biso   1.000  O
  O7       1.0000 0.44983  0.89857  0.76433  Biso   1.000  O
  O8       1.0000 0.62427  0.35603  0.50662  Biso   1.000  O
  O9       1.0000 0.06314  0.79226  0.64502  Biso   1.000  O
  O10      1.0000 0.91741  0.02379  0.89580  Biso   1.000  O
  O11      1.0000 0.83193  0.58893  0.91091  Biso   1.000  O
  O12      1.0000 0.08912  0.68836  0.91464  Biso   1.000  O
  O13      1.0000 0.92278  0.75984  0.80238  Biso   1.000  O
  O14      1.0000 0.89875  0.30997  0.90284  Biso   1.000  O
  O15      1.0000 0.15611  0.40771  0.90754  Biso   1.000  O
  O16      1.0000 0.04995  0.23219  0.78924  Biso   1.000  O
  O17      1.0000 0.10143  0.55017  0.73567  Biso   1.000  O
  O18      1.0000 0.64397  0.37573  0.99338  Biso   1.000  O
  O19      1.0000 0.20774  0.93686  0.85498  Biso   1.000  O
  O20      1.0000 0.97621  0.08259  0.60420  Biso   1.000  O
  O21      1.0000 0.58893  0.83193  0.41091  Biso   1.000  O
  O22      1.0000 0.68836  0.08912  0.41464  Biso   1.000  O
  O23      1.0000 0.75984  0.92278  0.30238  Biso   1.000  O
  O24      1.0000 0.30997  0.89875  0.40284  Biso   1.000  O
  O25      1.0000 0.40771  0.15611  0.40754  Biso   1.000  O
  O26      1.0000 0.23219  0.04995  0.28924  Biso   1.000  O
  O27      1.0000 0.55017  0.10143  0.23567  Biso   1.000  O
  O28      1.0000 0.37573  0.64397  0.49338  Biso   1.000  O
  O29      1.0000 0.93686  0.20774  0.35498  Biso   1.000  O
  O30      1.0000 0.08259  0.97621  0.10420  Biso   1.000  O
  O31      1.0000 0.16807  0.41107  0.08909  Biso   1.000  O
  O32      1.0000 0.91088  0.31164  0.08536  Biso   1.000  O
  O33      1.0000 0.07722  0.24016  0.19762  Biso   1.000  O
  O34      1.0000 0.10125  0.69003  0.09716  Biso   1.000  O
  O35      1.0000 0.84389  0.59229  0.09246  Biso   1.000  O
  O36      1.0000 0.95005  0.76781  0.21076  Biso   1.000  O
  O37      1.0000 0.89857  0.44983  0.26433  Biso   1.000  O
  O38      1.0000 0.35603  0.62427  0.00662  Biso   1.000  O
  O39      1.0000 0.79226  0.06314  0.14502  Biso   1.000  O
  O40      1.0000 0.02379  0.91741  0.39580  Biso   1.000  O
