data_image0
_cell_length_a       9.6602
_cell_length_b       9.6602
_cell_length_c       15.625
_cell_angle_alpha    92.9053
_cell_angle_beta     92.9053
_cell_angle_gamma    99.1062

_symmetry_space_group_name_H-M    P 1
_symmetry_int_tables_number       1

loop_
  _symmetry_equiv_pos_as_xyz
  'x, y, z'

loop_
  _atom_site_label
  _atom_site_occupancy
  _atom_site_fract_x
  _atom_site_fract_y
  _atom_site_fract_z
  _atom_site_thermal_displace_type
  _atom_site_B_iso_or_equiv
  _atom_site_type_symbol
  Nd1      1.0000 0.01135  0.98865  0.75000  Biso   1.000  Nd
  Nd2      1.0000 0.98865  0.01135  0.25000  Biso   1.000  Nd
  P1       1.0000 0.35531  0.04489  0.64424  Biso   1.000  P
  P2       1.0000 0.65005  0.97491  0.65262  Biso   1.000  P
  P3       1.0000 0.95511  0.64469  0.85576  Biso   1.000  P
  P4       1.0000 0.02509  0.34995  0.84738  Biso   1.000  P
  P5       1.0000 0.64469  0.95511  0.35576  Biso   1.000  P
  P6       1.0000 0.34995  0.02509  0.34738  Biso   1.000  P
  P7       1.0000 0.04489  0.35531  0.14424  Biso   1.000  P
  P8       1.0000 0.97491  0.65005  0.15262  Biso   1.000  P
  H1       1.0000 0.47860  0.15460  0.81630  Biso   1.000  H
  H2       1.0000 0.63770  0.12850  0.81210  Biso   1.000  H
  H3       1.0000 0.57540  0.22660  0.74550  Biso   1.000  H
  H4       1.0000 0.41900  0.82500  0.73200  Biso   1.000  H
  H5       1.0000 0.62300  0.39300  0.55700  Biso   1.000  H
  H6       1.0000 0.71400  0.36600  0.49900  Biso   1.000  H
  H7       1.0000 0.09600  0.84000  0.60000  Biso   1.000  H
  H8       1.0000 0.13200  0.76000  0.67200  Biso   1.000  H
  H9       1.0000 0.92100  0.10900  0.91300  Biso   1.000  H
  H10      1.0000 0.83900  0.98700  0.89800  Biso   1.000  H
  H11      1.0000 0.84540  0.52140  0.68370  Biso   1.000  H
  H12      1.0000 0.87150  0.36230  0.68790  Biso   1.000  H
  H13      1.0000 0.77340  0.42460  0.75450  Biso   1.000  H
  H14      1.0000 0.17500  0.58100  0.76800  Biso   1.000  H
  H15      1.0000 0.60700  0.37700  0.94300  Biso   1.000  H
  H16      1.0000 0.63400  0.28600  0.00100  Biso   1.000  H
  H17      1.0000 0.16000  0.90400  0.90000  Biso   1.000  H
  H18      1.0000 0.24000  0.86800  0.82800  Biso   1.000  H
  H19      1.0000 0.89100  0.07900  0.58700  Biso   1.000  H
  H20      1.0000 0.01300  0.16100  0.60200  Biso   1.000  H
  H21      1.0000 0.52140  0.84540  0.18370  Biso   1.000  H
  H22      1.0000 0.36230  0.87150  0.18790  Biso   1.000  H
  H23      1.0000 0.42460  0.77340  0.25450  Biso   1.000  H
  H24      1.0000 0.58100  0.17500  0.26800  Biso   1.000  H
  H25      1.0000 0.37700  0.60700  0.44300  Biso   1.000  H
  H26      1.0000 0.28600  0.63400  0.50100  Biso   1.000  H
  H27      1.0000 0.90400  0.16000  0.40000  Biso   1.000  H
  H28      1.0000 0.86800  0.24000  0.32800  Biso   1.000  H
  H29      1.0000 0.07900  0.89100  0.08700  Biso   1.000  H
  H30      1.0000 0.16100  0.01300  0.10200  Biso   1.000  H
  H31      1.0000 0.15460  0.47860  0.31630  Biso   1.000  H
  H32      1.0000 0.12850  0.63770  0.31210  Biso   1.000  H
  H33      1.0000 0.22660  0.57540  0.24550  Biso   1.000  H
  H34      1.0000 0.82500  0.41900  0.23200  Biso   1.000  H
  H35      1.0000 0.39300  0.62300  0.05700  Biso   1.000  H
  H36      1.0000 0.36600  0.71400  0.99900  Biso   1.000  H
  H37      1.0000 0.84000  0.09600  0.10000  Biso   1.000  H
  H38      1.0000 0.76000  0.13200  0.17200  Biso   1.000  H
  H39      1.0000 0.10900  0.92100  0.41300  Biso   1.000  H
  H40      1.0000 0.98700  0.83900  0.39800  Biso   1.000  H
  Ru1      1.0000 0.54603  0.12039  0.50221  Biso   1.000  Ru
  Ru2      1.0000 0.87961  0.45397  0.99779  Biso   1.000  Ru
  Ru3      1.0000 0.45397  0.87961  0.49779  Biso   1.000  Ru
  Ru4      1.0000 0.12039  0.54603  0.00221  Biso   1.000  Ru
  C1       1.0000 0.50580  0.01540  0.71620  Biso   1.000  C
  C2       1.0000 0.55360  0.14260  0.77800  Biso   1.000  C
  C3       1.0000 0.98460  0.49420  0.78380  Biso   1.000  C
  C4       1.0000 0.85740  0.44640  0.72200  Biso   1.000  C
  C5       1.0000 0.49420  0.98460  0.28380  Biso   1.000  C
  C6       1.0000 0.44640  0.85740  0.22200  Biso   1.000  C
  C7       1.0000 0.01540  0.50580  0.21620  Biso   1.000  C
  C8       1.0000 0.14260  0.55360  0.27800  Biso   1.000  C
  O1       1.0000 0.40970  0.16850  0.58889  Biso   1.000  O
  O2       1.0000 0.31060  0.91000  0.58562  Biso   1.000  O
  O3       1.0000 0.23540  0.07760  0.69856  Biso   1.000  O
  O4       1.0000 0.69080  0.10180  0.59825  Biso   1.000  O
  O5       1.0000 0.59252  0.84388  0.59238  Biso   1.000  O
  O6       1.0000 0.76883  0.95137  0.71214  Biso   1.000  O
  O7       1.0000 0.45010  0.89870  0.76600  Biso   1.000  O
  O8       1.0000 0.62450  0.35650  0.50610  Biso   1.000  O
  O9       1.0000 0.06250  0.79490  0.64680  Biso   1.000  O
  O10      1.0000 0.92430  0.02490  0.89509  Biso   1.000  O
  O11      1.0000 0.83150  0.59030  0.91111  Biso   1.000  O
  O12      1.0000 0.09000  0.68940  0.91438  Biso   1.000  O
  O13      1.0000 0.92240  0.76460  0.80144  Biso   1.000  O
  O14      1.0000 0.89820  0.30920  0.90175  Biso   1.000  O
  O15      1.0000 0.15612  0.40748  0.90762  Biso   1.000  O
  O16      1.0000 0.04863  0.23117  0.78786  Biso   1.000  O
  O17      1.0000 0.10130  0.54990  0.73400  Biso   1.000  O
  O18      1.0000 0.64350  0.37550  0.99390  Biso   1.000  O
  O19      1.0000 0.20510  0.93750  0.85320  Biso   1.000  O
  O20      1.0000 0.97510  0.07570  0.60491  Biso   1.000  O
  O21      1.0000 0.59030  0.83150  0.41111  Biso   1.000  O
  O22      1.0000 0.68940  0.09000  0.41438  Biso   1.000  O
  O23      1.0000 0.76460  0.92240  0.30144  Biso   1.000  O
  O24      1.0000 0.30920  0.89820  0.40175  Biso   1.000  O
  O25      1.0000 0.40748  0.15612  0.40762  Biso   1.000  O
  O26      1.0000 0.23117  0.04863  0.28786  Biso   1.000  O
  O27      1.0000 0.54990  0.10130  0.23400  Biso   1.000  O
  O28      1.0000 0.37550  0.64350  0.49390  Biso   1.000  O
  O29      1.0000 0.93750  0.20510  0.35320  Biso   1.000  O
  O30      1.0000 0.07570  0.97510  0.10491  Biso   1.000  O
  O31      1.0000 0.16850  0.40970  0.08889  Biso   1.000  O
  O32      1.0000 0.91000  0.31060  0.08562  Biso   1.000  O
  O33      1.0000 0.07760  0.23540  0.19856  Biso   1.000  O
  O34      1.0000 0.10180  0.69080  0.09825  Biso   1.000  O
  O35      1.0000 0.84388  0.59252  0.09238  Biso   1.000  O
  O36      1.0000 0.95137  0.76883  0.21214  Biso   1.000  O
  O37      1.0000 0.89870  0.45010  0.26600  Biso   1.000  O
  O38      1.0000 0.35650  0.62450  0.00610  Biso   1.000  O
  O39      1.0000 0.79490  0.06250  0.14680  Biso   1.000  O
  O40      1.0000 0.02490  0.92430  0.39509  Biso   1.000  O
