data_image0
_cell_length_a       9.9402
_cell_length_b       9.9402
_cell_length_c       15.69
_cell_angle_alpha    92.4662
_cell_angle_beta     92.4662
_cell_angle_gamma    97.1781

_symmetry_space_group_name_H-M    P 1
_symmetry_int_tables_number       1

loop_
  _symmetry_equiv_pos_as_xyz
  'x, y, z'

loop_
  _atom_site_label
  _atom_site_occupancy
  _atom_site_fract_x
  _atom_site_fract_y
  _atom_site_fract_z
  _atom_site_thermal_displace_type
  _atom_site_B_iso_or_equiv
  _atom_site_type_symbol
  Pr1      1.0000 0.01058  0.98942  0.75000  Biso   1.000  Pr
  Pr2      1.0000 0.98942  0.01058  0.25000  Biso   1.000  Pr
  P1       1.0000 0.35683  0.04635  0.64161  Biso   1.000  P
  P2       1.0000 0.64974  0.97740  0.65167  Biso   1.000  P
  P3       1.0000 0.95365  0.64317  0.85839  Biso   1.000  P
  P4       1.0000 0.02260  0.35026  0.84833  Biso   1.000  P
  P5       1.0000 0.64317  0.95365  0.35839  Biso   1.000  P
  P6       1.0000 0.35026  0.02260  0.34833  Biso   1.000  P
  P7       1.0000 0.04635  0.35683  0.14161  Biso   1.000  P
  P8       1.0000 0.97740  0.64974  0.15167  Biso   1.000  P
  H1       1.0000 0.43010  0.84750  0.72070  Biso   1.000  H
  H2       1.0000 0.70930  0.36470  0.50080  Biso   1.000  H
  H3       1.0000 0.61210  0.38670  0.56110  Biso   1.000  H
  H4       1.0000 0.10670  0.84030  0.59730  Biso   1.000  H
  H5       1.0000 0.14020  0.76380  0.66660  Biso   1.000  H
  H6       1.0000 0.93020  0.11900  0.88730  Biso   1.000  H
  H7       1.0000 0.84930  0.98550  0.87870  Biso   1.000  H
  H8       1.0000 0.54960  0.12860  0.83060  Biso   1.000  H
  H9       1.0000 0.64720  0.17660  0.75620  Biso   1.000  H
  H10      1.0000 0.49660  0.21760  0.75660  Biso   1.000  H
  H11      1.0000 0.15250  0.56990  0.77930  Biso   1.000  H
  H12      1.0000 0.63530  0.29070  0.99920  Biso   1.000  H
  H13      1.0000 0.61330  0.38790  0.93890  Biso   1.000  H
  H14      1.0000 0.15970  0.89330  0.90270  Biso   1.000  H
  H15      1.0000 0.23620  0.85980  0.83340  Biso   1.000  H
  H16      1.0000 0.88100  0.06980  0.61270  Biso   1.000  H
  H17      1.0000 0.01450  0.15070  0.62130  Biso   1.000  H
  H18      1.0000 0.87140  0.45040  0.66940  Biso   1.000  H
  H19      1.0000 0.82340  0.35280  0.74380  Biso   1.000  H
  H20      1.0000 0.78240  0.50340  0.74340  Biso   1.000  H
  H21      1.0000 0.56990  0.15250  0.27930  Biso   1.000  H
  H22      1.0000 0.29070  0.63530  0.49920  Biso   1.000  H
  H23      1.0000 0.38790  0.61330  0.43890  Biso   1.000  H
  H24      1.0000 0.89330  0.15970  0.40270  Biso   1.000  H
  H25      1.0000 0.85980  0.23620  0.33340  Biso   1.000  H
  H26      1.0000 0.06980  0.88100  0.11270  Biso   1.000  H
  H27      1.0000 0.15070  0.01450  0.12130  Biso   1.000  H
  H28      1.0000 0.45040  0.87140  0.16940  Biso   1.000  H
  H29      1.0000 0.35280  0.82340  0.24380  Biso   1.000  H
  H30      1.0000 0.50340  0.78240  0.24340  Biso   1.000  H
  H31      1.0000 0.84750  0.43010  0.22070  Biso   1.000  H
  H32      1.0000 0.36470  0.70930  0.00080  Biso   1.000  H
  H33      1.0000 0.38670  0.61210  0.06110  Biso   1.000  H
  H34      1.0000 0.84030  0.10670  0.09730  Biso   1.000  H
  H35      1.0000 0.76380  0.14020  0.16660  Biso   1.000  H
  H36      1.0000 0.11900  0.93020  0.38730  Biso   1.000  H
  H37      1.0000 0.98550  0.84930  0.37870  Biso   1.000  H
  H38      1.0000 0.12860  0.54960  0.33060  Biso   1.000  H
  H39      1.0000 0.17660  0.64720  0.25620  Biso   1.000  H
  H40      1.0000 0.21760  0.49660  0.25660  Biso   1.000  H
  Ru1      1.0000 0.54469  0.11899  0.50338  Biso   1.000  Ru
  Ru2      1.0000 0.88101  0.45531  0.99662  Biso   1.000  Ru
  Ru3      1.0000 0.45531  0.88101  0.49662  Biso   1.000  Ru
  Ru4      1.0000 0.11899  0.54469  0.00338  Biso   1.000  Ru
  C1       1.0000 0.50130  0.01870  0.71730  Biso   1.000  C
  C2       1.0000 0.55330  0.14650  0.76980  Biso   1.000  C
  C3       1.0000 0.98130  0.49870  0.78270  Biso   1.000  C
  C4       1.0000 0.85350  0.44670  0.73020  Biso   1.000  C
  C5       1.0000 0.49870  0.98130  0.28270  Biso   1.000  C
  C6       1.0000 0.44670  0.85350  0.23020  Biso   1.000  C
  C7       1.0000 0.01870  0.50130  0.21730  Biso   1.000  C
  C8       1.0000 0.14650  0.55330  0.26980  Biso   1.000  C
  O1       1.0000 0.40720  0.16880  0.59120  Biso   1.000  O
  O2       1.0000 0.30570  0.90510  0.58040  Biso   1.000  O
  O3       1.0000 0.23700  0.07680  0.69870  Biso   1.000  O
  O4       1.0000 0.68820  0.10160  0.59590  Biso   1.000  O
  O5       1.0000 0.58470  0.84330  0.59710  Biso   1.000  O
  O6       1.0000 0.75620  0.93740  0.72220  Biso   1.000  O
  O7       1.0000 0.46030  0.91810  0.75560  Biso   1.000  O
  O8       1.0000 0.62230  0.35050  0.51120  Biso   1.000  O
  O9       1.0000 0.07730  0.80530  0.64340  Biso   1.000  O
  O10      1.0000 0.93190  0.03170  0.87660  Biso   1.000  O
  O11      1.0000 0.83120  0.59280  0.90880  Biso   1.000  O
  O12      1.0000 0.09490  0.69430  0.91960  Biso   1.000  O
  O13      1.0000 0.92320  0.76300  0.80130  Biso   1.000  O
  O14      1.0000 0.89840  0.31180  0.90410  Biso   1.000  O
  O15      1.0000 0.15670  0.41530  0.90290  Biso   1.000  O
  O16      1.0000 0.06260  0.24380  0.77780  Biso   1.000  O
  O17      1.0000 0.08190  0.53970  0.74440  Biso   1.000  O
  O18      1.0000 0.64950  0.37770  0.98880  Biso   1.000  O
  O19      1.0000 0.19470  0.92270  0.85660  Biso   1.000  O
  O20      1.0000 0.96830  0.06810  0.62340  Biso   1.000  O
  O21      1.0000 0.59280  0.83120  0.40880  Biso   1.000  O
  O22      1.0000 0.69430  0.09490  0.41960  Biso   1.000  O
  O23      1.0000 0.76300  0.92320  0.30130  Biso   1.000  O
  O24      1.0000 0.31180  0.89840  0.40410  Biso   1.000  O
  O25      1.0000 0.41530  0.15670  0.40290  Biso   1.000  O
  O26      1.0000 0.24380  0.06260  0.27780  Biso   1.000  O
  O27      1.0000 0.53970  0.08190  0.24440  Biso   1.000  O
  O28      1.0000 0.37770  0.64950  0.48880  Biso   1.000  O
  O29      1.0000 0.92270  0.19470  0.35660  Biso   1.000  O
  O30      1.0000 0.06810  0.96830  0.12340  Biso   1.000  O
  O31      1.0000 0.16880  0.40720  0.09120  Biso   1.000  O
  O32      1.0000 0.90510  0.30570  0.08040  Biso   1.000  O
  O33      1.0000 0.07680  0.23700  0.19870  Biso   1.000  O
  O34      1.0000 0.10160  0.68820  0.09590  Biso   1.000  O
  O35      1.0000 0.84330  0.58470  0.09710  Biso   1.000  O
  O36      1.0000 0.93740  0.75620  0.22220  Biso   1.000  O
  O37      1.0000 0.91810  0.46030  0.25560  Biso   1.000  O
  O38      1.0000 0.35050  0.62230  0.01120  Biso   1.000  O
  O39      1.0000 0.80530  0.07730  0.14340  Biso   1.000  O
  O40      1.0000 0.03170  0.93190  0.37660  Biso   1.000  O
