data_image0
_cell_length_a       9.72
_cell_length_b       9.72
_cell_length_c       15.7262
_cell_angle_alpha    92.7414
_cell_angle_beta     92.7414
_cell_angle_gamma    99.086

_symmetry_space_group_name_H-M    P 1
_symmetry_int_tables_number       1

loop_
  _symmetry_equiv_pos_as_xyz
  'x, y, z'

loop_
  _atom_site_label
  _atom_site_occupancy
  _atom_site_fract_x
  _atom_site_fract_y
  _atom_site_fract_z
  _atom_site_thermal_displace_type
  _atom_site_B_iso_or_equiv
  _atom_site_type_symbol
  La1      1.0000 0.01171  0.98829  0.75000  Biso   1.000  La
  La2      1.0000 0.98829  0.01171  0.25000  Biso   1.000  La
  P1       1.0000 0.35714  0.04578  0.64359  Biso   1.000  P
  P2       1.0000 0.64810  0.97366  0.65131  Biso   1.000  P
  P3       1.0000 0.95422  0.64286  0.85641  Biso   1.000  P
  P4       1.0000 0.02634  0.35190  0.84869  Biso   1.000  P
  P5       1.0000 0.64286  0.95422  0.35641  Biso   1.000  P
  P6       1.0000 0.35190  0.02634  0.34869  Biso   1.000  P
  P7       1.0000 0.04578  0.35714  0.14359  Biso   1.000  P
  P8       1.0000 0.97366  0.64810  0.15131  Biso   1.000  P
  H1       1.0000 0.47880  0.15960  0.81110  Biso   1.000  H
  H2       1.0000 0.63470  0.12610  0.81060  Biso   1.000  H
  H3       1.0000 0.58150  0.22450  0.74160  Biso   1.000  H
  H4       1.0000 0.51100  0.82100  0.76300  Biso   1.000  H
  H5       1.0000 0.59500  0.40100  0.55100  Biso   1.000  H
  H6       1.0000 0.14300  0.80900  0.61500  Biso   1.000  H
  H7       1.0000 0.89200  0.10800  0.91200  Biso   1.000  H
  H8       1.0000 0.71000  0.39600  0.49800  Biso   1.000  H
  H9       1.0000 0.07800  0.71200  0.67100  Biso   1.000  H
  H10      1.0000 0.87400  0.97000  0.93200  Biso   1.000  H
  H11      1.0000 0.84040  0.52120  0.68890  Biso   1.000  H
  H12      1.0000 0.87390  0.36530  0.68940  Biso   1.000  H
  H13      1.0000 0.77550  0.41850  0.75840  Biso   1.000  H
  H14      1.0000 0.17900  0.48900  0.73700  Biso   1.000  H
  H15      1.0000 0.59900  0.40500  0.94900  Biso   1.000  H
  H16      1.0000 0.19100  0.85700  0.88500  Biso   1.000  H
  H17      1.0000 0.89200  0.10800  0.58800  Biso   1.000  H
  H18      1.0000 0.60400  0.29000  0.00200  Biso   1.000  H
  H19      1.0000 0.28800  0.92200  0.82900  Biso   1.000  H
  H20      1.0000 0.03000  0.12600  0.56800  Biso   1.000  H
  H21      1.0000 0.52120  0.84040  0.18890  Biso   1.000  H
  H22      1.0000 0.36530  0.87390  0.18940  Biso   1.000  H
  H23      1.0000 0.41850  0.77550  0.25840  Biso   1.000  H
  H24      1.0000 0.48900  0.17900  0.23700  Biso   1.000  H
  H25      1.0000 0.40500  0.59900  0.44900  Biso   1.000  H
  H26      1.0000 0.85700  0.19100  0.38500  Biso   1.000  H
  H27      1.0000 0.10800  0.89200  0.08800  Biso   1.000  H
  H28      1.0000 0.29000  0.60400  0.50200  Biso   1.000  H
  H29      1.0000 0.92200  0.28800  0.32900  Biso   1.000  H
  H30      1.0000 0.12600  0.03000  0.06800  Biso   1.000  H
  H31      1.0000 0.15960  0.47880  0.31110  Biso   1.000  H
  H32      1.0000 0.12610  0.63470  0.31060  Biso   1.000  H
  H33      1.0000 0.22450  0.58150  0.24160  Biso   1.000  H
  H34      1.0000 0.82100  0.51100  0.26300  Biso   1.000  H
  H35      1.0000 0.40100  0.59500  0.05100  Biso   1.000  H
  H36      1.0000 0.80900  0.14300  0.11500  Biso   1.000  H
  H37      1.0000 0.10800  0.89200  0.41200  Biso   1.000  H
  H38      1.0000 0.39600  0.71000  0.99800  Biso   1.000  H
  H39      1.0000 0.71200  0.07800  0.17100  Biso   1.000  H
  H40      1.0000 0.97000  0.87400  0.43200  Biso   1.000  H
  Ru1      1.0000 0.54646  0.11972  0.50209  Biso   1.000  Ru
  Ru2      1.0000 0.88028  0.45354  0.99791  Biso   1.000  Ru
  Ru3      1.0000 0.45354  0.88028  0.49791  Biso   1.000  Ru
  Ru4      1.0000 0.11972  0.54646  0.00209  Biso   1.000  Ru
  C1       1.0000 0.50419  0.01501  0.71435  Biso   1.000  C
  C2       1.0000 0.55427  0.14273  0.77486  Biso   1.000  C
  C3       1.0000 0.98499  0.49581  0.78565  Biso   1.000  C
  C4       1.0000 0.85727  0.44573  0.72514  Biso   1.000  C
  C5       1.0000 0.49581  0.98499  0.28565  Biso   1.000  C
  C6       1.0000 0.44573  0.85727  0.22514  Biso   1.000  C
  C7       1.0000 0.01501  0.50419  0.21435  Biso   1.000  C
  C8       1.0000 0.14273  0.55427  0.27486  Biso   1.000  C
  O1       1.0000 0.41187  0.16827  0.58897  Biso   1.000  O
  O2       1.0000 0.31161  0.91155  0.58512  Biso   1.000  O
  O3       1.0000 0.24148  0.07834  0.69730  Biso   1.000  O
  O4       1.0000 0.68985  0.10061  0.59704  Biso   1.000  O
  O5       1.0000 0.59164  0.84398  0.59211  Biso   1.000  O
  O6       1.0000 0.76628  0.94954  0.71056  Biso   1.000  O
  O7       1.0000 0.45009  0.89809  0.76346  Biso   1.000  O
  O8       1.0000 0.62473  0.35613  0.50725  Biso   1.000  O
  O9       1.0000 0.06582  0.79064  0.64504  Biso   1.000  O
  O10      1.0000 0.91742  0.02536  0.89729  Biso   1.000  O
  O11      1.0000 0.83173  0.58813  0.91103  Biso   1.000  O
  O12      1.0000 0.08845  0.68839  0.91488  Biso   1.000  O
  O13      1.0000 0.92166  0.75852  0.80270  Biso   1.000  O
  O14      1.0000 0.89939  0.31015  0.90296  Biso   1.000  O
  O15      1.0000 0.15602  0.40836  0.90789  Biso   1.000  O
  O16      1.0000 0.05046  0.23372  0.78944  Biso   1.000  O
  O17      1.0000 0.10191  0.54991  0.73654  Biso   1.000  O
  O18      1.0000 0.64387  0.37527  0.99275  Biso   1.000  O
  O19      1.0000 0.20936  0.93418  0.85496  Biso   1.000  O
  O20      1.0000 0.97464  0.08258  0.60271  Biso   1.000  O
  O21      1.0000 0.58813  0.83173  0.41103  Biso   1.000  O
  O22      1.0000 0.68839  0.08845  0.41488  Biso   1.000  O
  O23      1.0000 0.75852  0.92166  0.30270  Biso   1.000  O
  O24      1.0000 0.31015  0.89939  0.40296  Biso   1.000  O
  O25      1.0000 0.40836  0.15602  0.40789  Biso   1.000  O
  O26      1.0000 0.23372  0.05046  0.28944  Biso   1.000  O
  O27      1.0000 0.54991  0.10191  0.23654  Biso   1.000  O
  O28      1.0000 0.37527  0.64387  0.49275  Biso   1.000  O
  O29      1.0000 0.93418  0.20936  0.35496  Biso   1.000  O
  O30      1.0000 0.08258  0.97464  0.10271  Biso   1.000  O
  O31      1.0000 0.16827  0.41187  0.08897  Biso   1.000  O
  O32      1.0000 0.91155  0.31161  0.08512  Biso   1.000  O
  O33      1.0000 0.07834  0.24148  0.19730  Biso   1.000  O
  O34      1.0000 0.10061  0.68985  0.09704  Biso   1.000  O
  O35      1.0000 0.84398  0.59164  0.09211  Biso   1.000  O
  O36      1.0000 0.94954  0.76628  0.21056  Biso   1.000  O
  O37      1.0000 0.89809  0.45009  0.26346  Biso   1.000  O
  O38      1.0000 0.35613  0.62473  0.00725  Biso   1.000  O
  O39      1.0000 0.79064  0.06582  0.14504  Biso   1.000  O
  O40      1.0000 0.02536  0.91742  0.39729  Biso   1.000  O
