data_image0
_cell_length_a       9.5899
_cell_length_b       9.5899
_cell_length_c       15.524
_cell_angle_alpha    92.9192
_cell_angle_beta     92.9192
_cell_angle_gamma    98.9866

_symmetry_space_group_name_H-M    P 1
_symmetry_int_tables_number       1

loop_
  _symmetry_equiv_pos_as_xyz
  'x, y, z'

loop_
  _atom_site_label
  _atom_site_occupancy
  _atom_site_fract_x
  _atom_site_fract_y
  _atom_site_fract_z
  _atom_site_thermal_displace_type
  _atom_site_B_iso_or_equiv
  _atom_site_type_symbol
  Tb1      1.0000 0.01103  0.98897  0.75000  Biso   1.000  Tb
  Tb2      1.0000 0.98897  0.01103  0.25000  Biso   1.000  Tb
  P1       1.0000 0.35450  0.04476  0.64540  Biso   1.000  P
  P2       1.0000 0.65136  0.97710  0.65365  Biso   1.000  P
  P3       1.0000 0.95524  0.64550  0.85460  Biso   1.000  P
  P4       1.0000 0.02290  0.34864  0.84635  Biso   1.000  P
  P5       1.0000 0.64550  0.95524  0.35460  Biso   1.000  P
  P6       1.0000 0.34864  0.02290  0.34635  Biso   1.000  P
  P7       1.0000 0.04476  0.35450  0.14540  Biso   1.000  P
  P8       1.0000 0.97710  0.65136  0.15365  Biso   1.000  P
  H1       1.0000 0.42160  0.83080  0.73270  Biso   1.000  H
  H2       1.0000 0.71150  0.37330  0.49590  Biso   1.000  H
  H3       1.0000 0.61430  0.39530  0.55610  Biso   1.000  H
  H4       1.0000 0.08900  0.83360  0.60330  Biso   1.000  H
  H5       1.0000 0.12230  0.75710  0.67270  Biso   1.000  H
  H6       1.0000 0.92070  0.10930  0.90180  Biso   1.000  H
  H7       1.0000 0.83980  0.97580  0.89320  Biso   1.000  H
  H8       1.0000 0.47830  0.15250  0.81910  Biso   1.000  H
  H9       1.0000 0.63950  0.13050  0.81260  Biso   1.000  H
  H10      1.0000 0.57140  0.22820  0.74700  Biso   1.000  H
  H11      1.0000 0.16920  0.57840  0.76730  Biso   1.000  H
  H12      1.0000 0.62670  0.28850  0.00410  Biso   1.000  H
  H13      1.0000 0.60470  0.38570  0.94390  Biso   1.000  H
  H14      1.0000 0.16640  0.91100  0.89670  Biso   1.000  H
  H15      1.0000 0.24290  0.87770  0.82730  Biso   1.000  H
  H16      1.0000 0.89070  0.07930  0.59820  Biso   1.000  H
  H17      1.0000 0.02420  0.16020  0.60680  Biso   1.000  H
  H18      1.0000 0.84750  0.52170  0.68090  Biso   1.000  H
  H19      1.0000 0.86950  0.36050  0.68740  Biso   1.000  H
  H20      1.0000 0.77180  0.42860  0.75300  Biso   1.000  H
  H21      1.0000 0.57840  0.16920  0.26730  Biso   1.000  H
  H22      1.0000 0.28850  0.62670  0.50410  Biso   1.000  H
  H23      1.0000 0.38570  0.60470  0.44390  Biso   1.000  H
  H24      1.0000 0.91100  0.16640  0.39670  Biso   1.000  H
  H25      1.0000 0.87770  0.24290  0.32730  Biso   1.000  H
  H26      1.0000 0.07930  0.89070  0.09820  Biso   1.000  H
  H27      1.0000 0.16020  0.02420  0.10680  Biso   1.000  H
  H28      1.0000 0.52170  0.84750  0.18090  Biso   1.000  H
  H29      1.0000 0.36050  0.86950  0.18740  Biso   1.000  H
  H30      1.0000 0.42860  0.77180  0.25300  Biso   1.000  H
  H31      1.0000 0.83080  0.42160  0.23270  Biso   1.000  H
  H32      1.0000 0.37330  0.71150  0.99590  Biso   1.000  H
  H33      1.0000 0.39530  0.61430  0.05610  Biso   1.000  H
  H34      1.0000 0.83360  0.08900  0.10330  Biso   1.000  H
  H35      1.0000 0.75710  0.12230  0.17270  Biso   1.000  H
  H36      1.0000 0.10930  0.92070  0.40180  Biso   1.000  H
  H37      1.0000 0.97580  0.83980  0.39320  Biso   1.000  H
  H38      1.0000 0.15250  0.47830  0.31910  Biso   1.000  H
  H39      1.0000 0.13050  0.63950  0.31260  Biso   1.000  H
  H40      1.0000 0.22820  0.57140  0.24700  Biso   1.000  H
  Ru1      1.0000 0.54526  0.12112  0.50205  Biso   1.000  Ru
  Ru2      1.0000 0.87888  0.45474  0.99795  Biso   1.000  Ru
  Ru3      1.0000 0.45474  0.87888  0.49795  Biso   1.000  Ru
  Ru4      1.0000 0.12112  0.54526  0.00205  Biso   1.000  Ru
  C1       1.0000 0.50600  0.01480  0.71700  Biso   1.000  C
  C2       1.0000 0.55300  0.14280  0.77950  Biso   1.000  C
  C3       1.0000 0.98520  0.49400  0.78300  Biso   1.000  C
  C4       1.0000 0.85720  0.44700  0.72050  Biso   1.000  C
  C5       1.0000 0.49400  0.98520  0.28300  Biso   1.000  C
  C6       1.0000 0.44700  0.85720  0.22050  Biso   1.000  C
  C7       1.0000 0.01480  0.50600  0.21700  Biso   1.000  C
  C8       1.0000 0.14280  0.55300  0.27950  Biso   1.000  C
  O1       1.0000 0.40870  0.16770  0.58974  Biso   1.000  O
  O2       1.0000 0.31090  0.90750  0.58600  Biso   1.000  O
  O3       1.0000 0.23610  0.07490  0.69820  Biso   1.000  O
  O4       1.0000 0.69130  0.10550  0.59890  Biso   1.000  O
  O5       1.0000 0.59450  0.84410  0.59330  Biso   1.000  O
  O6       1.0000 0.77310  0.95510  0.71258  Biso   1.000  O
  O7       1.0000 0.45180  0.90120  0.76756  Biso   1.000  O
  O8       1.0000 0.62470  0.35910  0.50628  Biso   1.000  O
  O9       1.0000 0.05960  0.79860  0.64940  Biso   1.000  O
  O10      1.0000 0.92240  0.02200  0.89110  Biso   1.000  O
  O11      1.0000 0.83230  0.59130  0.91026  Biso   1.000  O
  O12      1.0000 0.09250  0.68910  0.91400  Biso   1.000  O
  O13      1.0000 0.92510  0.76390  0.80180  Biso   1.000  O
  O14      1.0000 0.89450  0.30870  0.90110  Biso   1.000  O
  O15      1.0000 0.15590  0.40550  0.90670  Biso   1.000  O
  O16      1.0000 0.04490  0.22690  0.78742  Biso   1.000  O
  O17      1.0000 0.09880  0.54820  0.73244  Biso   1.000  O
  O18      1.0000 0.64090  0.37530  0.99372  Biso   1.000  O
  O19      1.0000 0.20140  0.94040  0.85060  Biso   1.000  O
  O20      1.0000 0.97800  0.07760  0.60890  Biso   1.000  O
  O21      1.0000 0.59130  0.83230  0.41026  Biso   1.000  O
  O22      1.0000 0.68910  0.09250  0.41400  Biso   1.000  O
  O23      1.0000 0.76390  0.92510  0.30180  Biso   1.000  O
  O24      1.0000 0.30870  0.89450  0.40110  Biso   1.000  O
  O25      1.0000 0.40550  0.15590  0.40670  Biso   1.000  O
  O26      1.0000 0.22690  0.04490  0.28742  Biso   1.000  O
  O27      1.0000 0.54820  0.09880  0.23244  Biso   1.000  O
  O28      1.0000 0.37530  0.64090  0.49372  Biso   1.000  O
  O29      1.0000 0.94040  0.20140  0.35060  Biso   1.000  O
  O30      1.0000 0.07760  0.97800  0.10890  Biso   1.000  O
  O31      1.0000 0.16770  0.40870  0.08974  Biso   1.000  O
  O32      1.0000 0.90750  0.31090  0.08600  Biso   1.000  O
  O33      1.0000 0.07490  0.23610  0.19820  Biso   1.000  O
  O34      1.0000 0.10550  0.69130  0.09890  Biso   1.000  O
  O35      1.0000 0.84410  0.59450  0.09330  Biso   1.000  O
  O36      1.0000 0.95510  0.77310  0.21258  Biso   1.000  O
  O37      1.0000 0.90120  0.45180  0.26756  Biso   1.000  O
  O38      1.0000 0.35910  0.62470  0.00628  Biso   1.000  O
  O39      1.0000 0.79860  0.05960  0.14940  Biso   1.000  O
  O40      1.0000 0.02200  0.92240  0.39110  Biso   1.000  O
