data_image0
_cell_length_a       9.5515
_cell_length_b       9.5515
_cell_length_c       15.39
_cell_angle_alpha    92.7105
_cell_angle_beta     92.7105
_cell_angle_gamma    98.2997

_symmetry_space_group_name_H-M    P 1
_symmetry_int_tables_number       1

loop_
  _symmetry_equiv_pos_as_xyz
  'x, y, z'

loop_
  _atom_site_label
  _atom_site_occupancy
  _atom_site_fract_x
  _atom_site_fract_y
  _atom_site_fract_z
  _atom_site_thermal_displace_type
  _atom_site_B_iso_or_equiv
  _atom_site_type_symbol
  Ho1      1.0000 0.00995  0.99005  0.75000  Biso   1.000  Ho
  Ho2      1.0000 0.99005  0.00995  0.25000  Biso   1.000  Ho
  P1       1.0000 0.35318  0.04408  0.64512  Biso   1.000  P
  P2       1.0000 0.65288  0.97686  0.65454  Biso   1.000  P
  P3       1.0000 0.95592  0.64682  0.85488  Biso   1.000  P
  P4       1.0000 0.02314  0.34712  0.84546  Biso   1.000  P
  P5       1.0000 0.64682  0.95592  0.35488  Biso   1.000  P
  P6       1.0000 0.34712  0.02314  0.34546  Biso   1.000  P
  P7       1.0000 0.04408  0.35318  0.14512  Biso   1.000  P
  P8       1.0000 0.97686  0.65288  0.15454  Biso   1.000  P
  H1       1.0000 0.42470  0.83110  0.73560  Biso   1.000  H
  H2       1.0000 0.70970  0.37030  0.49350  Biso   1.000  H
  H3       1.0000 0.61250  0.39210  0.55380  Biso   1.000  H
  H4       1.0000 0.08890  0.83810  0.60570  Biso   1.000  H
  H5       1.0000 0.12230  0.76150  0.67500  Biso   1.000  H
  H6       1.0000 0.91390  0.10670  0.89970  Biso   1.000  H
  H7       1.0000 0.83290  0.97310  0.89110  Biso   1.000  H
  H8       1.0000 0.47140  0.16600  0.81340  Biso   1.000  H
  H9       1.0000 0.62830  0.12570  0.81810  Biso   1.000  H
  H10      1.0000 0.58380  0.22940  0.74640  Biso   1.000  H
  H11      1.0000 0.16890  0.57530  0.76440  Biso   1.000  H
  H12      1.0000 0.62970  0.29030  0.00650  Biso   1.000  H
  H13      1.0000 0.60790  0.38750  0.94620  Biso   1.000  H
  H14      1.0000 0.16190  0.91110  0.89430  Biso   1.000  H
  H15      1.0000 0.23850  0.87770  0.82500  Biso   1.000  H
  H16      1.0000 0.89330  0.08610  0.60030  Biso   1.000  H
  H17      1.0000 0.02690  0.16710  0.60890  Biso   1.000  H
  H18      1.0000 0.83400  0.52860  0.68660  Biso   1.000  H
  H19      1.0000 0.87430  0.37170  0.68190  Biso   1.000  H
  H20      1.0000 0.77060  0.41620  0.75360  Biso   1.000  H
  H21      1.0000 0.57530  0.16890  0.26440  Biso   1.000  H
  H22      1.0000 0.29030  0.62970  0.50650  Biso   1.000  H
  H23      1.0000 0.38750  0.60790  0.44620  Biso   1.000  H
  H24      1.0000 0.91110  0.16190  0.39430  Biso   1.000  H
  H25      1.0000 0.87770  0.23850  0.32500  Biso   1.000  H
  H26      1.0000 0.08610  0.89330  0.10030  Biso   1.000  H
  H27      1.0000 0.16710  0.02690  0.10890  Biso   1.000  H
  H28      1.0000 0.52860  0.83400  0.18660  Biso   1.000  H
  H29      1.0000 0.37170  0.87430  0.18190  Biso   1.000  H
  H30      1.0000 0.41620  0.77060  0.25360  Biso   1.000  H
  H31      1.0000 0.83110  0.42470  0.23560  Biso   1.000  H
  H32      1.0000 0.37030  0.70970  0.99350  Biso   1.000  H
  H33      1.0000 0.39210  0.61250  0.05380  Biso   1.000  H
  H34      1.0000 0.83810  0.08890  0.10570  Biso   1.000  H
  H35      1.0000 0.76150  0.12230  0.17500  Biso   1.000  H
  H36      1.0000 0.10670  0.91390  0.39970  Biso   1.000  H
  H37      1.0000 0.97310  0.83290  0.39110  Biso   1.000  H
  H38      1.0000 0.16600  0.47140  0.31340  Biso   1.000  H
  H39      1.0000 0.12570  0.62830  0.31810  Biso   1.000  H
  H40      1.0000 0.22940  0.58380  0.24640  Biso   1.000  H
  Ru1      1.0000 0.54530  0.12146  0.50194  Biso   1.000  Ru
  Ru2      1.0000 0.87854  0.45470  0.99806  Biso   1.000  Ru
  Ru3      1.0000 0.45470  0.87854  0.49806  Biso   1.000  Ru
  Ru4      1.0000 0.12146  0.54530  0.00194  Biso   1.000  Ru
  C1       1.0000 0.50310  0.02070  0.71630  Biso   1.000  C
  C2       1.0000 0.55090  0.14650  0.77900  Biso   1.000  C
  C3       1.0000 0.97930  0.49690  0.78370  Biso   1.000  C
  C4       1.0000 0.85350  0.44910  0.72100  Biso   1.000  C
  C5       1.0000 0.49690  0.97930  0.28370  Biso   1.000  C
  C6       1.0000 0.44910  0.85350  0.22100  Biso   1.000  C
  C7       1.0000 0.02070  0.50310  0.21630  Biso   1.000  C
  C8       1.0000 0.14650  0.55090  0.27900  Biso   1.000  C
  O1       1.0000 0.40480  0.16480  0.58680  Biso   1.000  O
  O2       1.0000 0.30810  0.90970  0.58620  Biso   1.000  O
  O3       1.0000 0.23330  0.07150  0.69790  Biso   1.000  O
  O4       1.0000 0.69270  0.10550  0.59810  Biso   1.000  O
  O5       1.0000 0.59550  0.84410  0.59360  Biso   1.000  O
  O6       1.0000 0.77150  0.95230  0.71410  Biso   1.000  O
  O7       1.0000 0.45500  0.90160  0.77050  Biso   1.000  O
  O8       1.0000 0.62280  0.35600  0.50390  Biso   1.000  O
  O9       1.0000 0.05950  0.80310  0.65180  Biso   1.000  O
  O10      1.0000 0.91570  0.01930  0.88900  Biso   1.000  O
  O11      1.0000 0.83520  0.59520  0.91320  Biso   1.000  O
  O12      1.0000 0.09030  0.69190  0.91380  Biso   1.000  O
  O13      1.0000 0.92850  0.76670  0.80210  Biso   1.000  O
  O14      1.0000 0.89450  0.30730  0.90190  Biso   1.000  O
  O15      1.0000 0.15590  0.40450  0.90640  Biso   1.000  O
  O16      1.0000 0.04770  0.22850  0.78590  Biso   1.000  O
  O17      1.0000 0.09840  0.54500  0.72950  Biso   1.000  O
  O18      1.0000 0.64400  0.37720  0.99610  Biso   1.000  O
  O19      1.0000 0.19690  0.94050  0.84820  Biso   1.000  O
  O20      1.0000 0.98070  0.08430  0.61100  Biso   1.000  O
  O21      1.0000 0.59520  0.83520  0.41320  Biso   1.000  O
  O22      1.0000 0.69190  0.09030  0.41380  Biso   1.000  O
  O23      1.0000 0.76670  0.92850  0.30210  Biso   1.000  O
  O24      1.0000 0.30730  0.89450  0.40190  Biso   1.000  O
  O25      1.0000 0.40450  0.15590  0.40640  Biso   1.000  O
  O26      1.0000 0.22850  0.04770  0.28590  Biso   1.000  O
  O27      1.0000 0.54500  0.09840  0.22950  Biso   1.000  O
  O28      1.0000 0.37720  0.64400  0.49610  Biso   1.000  O
  O29      1.0000 0.94050  0.19690  0.34820  Biso   1.000  O
  O30      1.0000 0.08430  0.98070  0.11100  Biso   1.000  O
  O31      1.0000 0.16480  0.40480  0.08680  Biso   1.000  O
  O32      1.0000 0.90970  0.30810  0.08620  Biso   1.000  O
  O33      1.0000 0.07150  0.23330  0.19790  Biso   1.000  O
  O34      1.0000 0.10550  0.69270  0.09810  Biso   1.000  O
  O35      1.0000 0.84410  0.59550  0.09360  Biso   1.000  O
  O36      1.0000 0.95230  0.77150  0.21410  Biso   1.000  O
  O37      1.0000 0.90160  0.45500  0.27050  Biso   1.000  O
  O38      1.0000 0.35600  0.62280  0.00390  Biso   1.000  O
  O39      1.0000 0.80310  0.05950  0.15180  Biso   1.000  O
  O40      1.0000 0.01930  0.91570  0.38900  Biso   1.000  O
