data_GIRYOX_freeONLY
_audit_creation_date              2015-10-16
_audit_creation_method            'Materials Studio'
_symmetry_space_group_name_H-M    'P1'
_symmetry_Int_Tables_number       1
_symmetry_cell_setting            triclinic
loop_
_symmetry_equiv_pos_as_xyz
  x,y,z
_cell_length_a                    13.4420
_cell_length_b                    13.5906
_cell_length_c                    14.8129
_cell_angle_alpha                 107.2150
_cell_angle_beta                  106.8060
_cell_angle_gamma                 111.0250
loop_
_atom_site_label
_atom_site_type_symbol
_atom_site_fract_x
_atom_site_fract_y
_atom_site_fract_z
_atom_site_U_iso_or_equiv
_atom_site_adp_type
_atom_site_occupancy
Zn1    Zn    0.03268   0.25972   0.89756   0.01267  Uiso   1.00
Zn2    Zn    0.63512   0.36216   0.10244   0.01267  Uiso   1.00
Zn3    Zn    0.00000   0.50000   0.00000   0.01267  Uiso   1.00
Zn4    Zn    0.50000   0.50000   0.00000   0.01267  Uiso   1.00
Zn5    Zn    0.36488   0.63784   0.89756   0.01267  Uiso   1.00
Zn6    Zn    0.96732   0.74028   0.10244   0.01267  Uiso   1.00
H1     H     0.43150   0.11080   0.60900   0.01267  Uiso   1.00
H2     H     0.55740   0.22140   0.79660   0.01267  Uiso   1.00
H3     H     0.90650   0.78780   0.82120   0.01267  Uiso   1.00
H4     H     0.73810   0.35380   0.93820   0.01267  Uiso   1.00
H5     H     0.26190   0.64620   0.06180   0.01267  Uiso   1.00
H6     H     0.40110   0.03490   0.28860   0.01267  Uiso   1.00
H7     H     0.27150   0.50990   0.51800   0.01267  Uiso   1.00
H8     H     0.21920   0.90080   0.14920   0.01267  Uiso   1.00
H9     H     0.94200   0.99490   0.37300   0.01267  Uiso   1.00
H10    H     0.43000   0.24840   0.14920   0.01267  Uiso   1.00
H11    H     0.60380   0.66480   0.39300   0.01267  Uiso   1.00
H12    H     0.41470   0.03340   0.82120   0.01267  Uiso   1.00
H13    H     0.38750   0.25370   0.28860   0.01267  Uiso   1.00
H14    H     0.25350   0.99190   0.48200   0.01267  Uiso   1.00
H15    H     0.71020   0.55290   0.11940   0.01267  Uiso   1.00
H16    H     0.74650   0.00810   0.51800   0.01267  Uiso   1.00
H17    H     0.73920   0.57520   0.79660   0.01267  Uiso   1.00
H18    H     0.76080   0.48180   0.33820   0.01267  Uiso   1.00
H19    H     0.28980   0.44710   0.88060   0.01267  Uiso   1.00
H20    H     0.11250   0.59990   0.24580   0.01267  Uiso   1.00
H21    H     0.36670   0.35410   0.75420   0.01267  Uiso   1.00
H22    H     0.07740   0.85640   0.33820   0.01267  Uiso   1.00
H23    H     0.28920   0.72820   0.39300   0.01267  Uiso   1.00
H24    H     0.55320   0.67220   0.52300   0.01267  Uiso   1.00
H25    H     0.89200   0.13670   0.44300   0.01267  Uiso   1.00
H26    H     0.61250   0.74630   0.71140   0.01267  Uiso   1.00
H27    H     0.32250   0.50180   0.39100   0.01267  Uiso   1.00
H28    H     0.10800   0.86330   0.55700   0.01267  Uiso   1.00
H29    H     0.72850   0.49010   0.48200   0.01267  Uiso   1.00
H30    H     0.44680   0.32780   0.47700   0.01267  Uiso   1.00
H31    H     0.59890   0.96510   0.71140   0.01267  Uiso   1.00
H32    H     0.57000   0.75160   0.85080   0.01267  Uiso   1.00
H33    H     0.09350   0.21220   0.17880   0.01267  Uiso   1.00
H34    H     0.56850   0.88920   0.39100   0.01267  Uiso   1.00
H35    H     0.78080   0.09920   0.85080   0.01267  Uiso   1.00
H36    H     0.94900   0.69370   0.55700   0.01267  Uiso   1.00
H37    H     0.06900   0.62190   0.62700   0.01267  Uiso   1.00
H38    H     0.58530   0.96660   0.17880   0.01267  Uiso   1.00
H39    H     0.29990   0.41560   0.06180   0.01267  Uiso   1.00
H40    H     0.92260   0.14360   0.66180   0.01267  Uiso   1.00
H41    H     0.63330   0.64590   0.24580   0.01267  Uiso   1.00
H42    H     0.93100   0.37810   0.37300   0.01267  Uiso   1.00
H43    H     0.46980   0.85080   0.52300   0.01267  Uiso   1.00
H44    H     0.88750   0.40010   0.75420   0.01267  Uiso   1.00
H45    H     0.05100   0.30630   0.44300   0.01267  Uiso   1.00
H46    H     0.71080   0.27180   0.60700   0.01267  Uiso   1.00
H47    H     0.67750   0.49820   0.60900   0.01267  Uiso   1.00
H48    H     0.39620   0.33520   0.60700   0.01267  Uiso   1.00
H49    H     0.53020   0.14920   0.47700   0.01267  Uiso   1.00
H50    H     0.26080   0.42480   0.20340   0.01267  Uiso   1.00
H51    H     0.70010   0.58440   0.93820   0.01267  Uiso   1.00
H52    H     0.05800   0.00510   0.62700   0.01267  Uiso   1.00
H53    H     0.23920   0.51820   0.66180   0.01267  Uiso   1.00
H54    H     0.09080   0.43350   0.88060   0.01267  Uiso   1.00
H55    H     0.90920   0.56650   0.11940   0.01267  Uiso   1.00
H56    H     0.44260   0.77860   0.20340   0.01267  Uiso   1.00
C1     C     0.34411   0.02945   0.78234   0.01267  Uiso   1.00
C2     C     0.03518   0.30228   0.37620   0.01267  Uiso   1.00
C3     C     0.66557   0.44097   0.41494   0.01267  Uiso   1.00
C4     C     0.35068   0.02940   0.40328   0.01267  Uiso   1.00
C5     C     0.99318   0.29350   0.17684   0.01267  Uiso   1.00
C6     C     0.24937   0.97397   0.41494   0.01267  Uiso   1.00
C7     C     0.33443   0.55903   0.58506   0.01267  Uiso   1.00
C8     C     0.16479   0.19207   0.80616   0.01267  Uiso   1.00
C9     C     0.26554   0.93704   0.68358   0.01267  Uiso   1.00
C10    C     0.01647   0.69917   0.92450   0.01267  Uiso   1.00
C11    C     0.83521   0.80793   0.19384   0.01267  Uiso   1.00
C12    C     0.91804   0.74654   0.68358   0.01267  Uiso   1.00
C13    C     0.63828   0.53408   0.87068   0.01267  Uiso   1.00
C14    C     0.06177   0.24711   0.21766   0.01267  Uiso   1.00
C15    C     0.85863   0.38591   0.19384   0.01267  Uiso   1.00
C16    C     0.50629   0.85449   0.40638   0.01267  Uiso   1.00
C17    C     0.12994   0.01124   0.66594   0.01267  Uiso   1.00
C18    C     0.73240   0.33660   0.87068   0.01267  Uiso   1.00
C19    C     0.46452   0.30112   0.30094   0.01267  Uiso   1.00
C20    C     0.68366   0.88334   0.17684   0.01267  Uiso   1.00
C21    C     0.85646   0.10686   0.67192   0.01267  Uiso   1.00
C22    C     0.20685   0.10608   0.76576   0.01267  Uiso   1.00
C23    C     0.08196   0.25346   0.31642   0.01267  Uiso   1.00
C24    C     0.77355   0.08155   0.78276   0.01267  Uiso   1.00
C25    C     0.55727   0.60144   0.23738   0.01267  Uiso   1.00
C26    C     0.94109   0.34032   0.23424   0.01267  Uiso   1.00
C27    C     0.61100   0.22970   0.68358   0.01267  Uiso   1.00
C28    C     0.38900   0.77030   0.31642   0.01267  Uiso   1.00
C29    C     0.68454   0.43494   0.32808   0.01267  Uiso   1.00
C30    C     0.66358   0.00018   0.69906   0.01267  Uiso   1.00
C31    C     0.52442   0.37834   0.49260   0.01267  Uiso   1.00
C32    C     0.93823   0.75289   0.78234   0.01267  Uiso   1.00
C33    C     0.53548   0.69888   0.69906   0.01267  Uiso   1.00
C34    C     0.47558   0.62166   0.50740   0.01267  Uiso   1.00
C35    C     0.22645   0.91845   0.21724   0.01267  Uiso   1.00
C36    C     0.59991   0.44811   0.59362   0.01267  Uiso   1.00
C37    C     0.45955   0.38702   0.67336   0.01267  Uiso   1.00
C38    C     0.79315   0.89392   0.23424   0.01267  Uiso   1.00
C39    C     0.49079   0.29879   0.21724   0.01267  Uiso   1.00
C40    C     0.44740   0.62612   0.59672   0.01267  Uiso   1.00
C41    C     0.40009   0.55189   0.40638   0.01267  Uiso   1.00
C42    C     0.87006   0.98876   0.33406   0.01267  Uiso   1.00
C43    C     0.15898   0.92608   0.62380   0.01267  Uiso   1.00
C44    C     0.14137   0.61409   0.80616   0.01267  Uiso   1.00
C45    C     0.84102   0.07392   0.37620   0.01267  Uiso   1.00
C46    C     0.98353   0.30083   0.07550   0.01267  Uiso   1.00
C47    C     0.00682   0.70650   0.82316   0.01267  Uiso   1.00
C48    C     0.75063   0.02603   0.58506   0.01267  Uiso   1.00
C49    C     0.28619   0.71366   0.32664   0.01267  Uiso   1.00
C50    C     0.31546   0.56506   0.67192   0.01267  Uiso   1.00
C51    C     0.36172   0.46592   0.12932   0.01267  Uiso   1.00
C52    C     0.62319   0.25699   0.78572   0.01267  Uiso   1.00
C53    C     0.18011   0.63594   0.23738   0.01267  Uiso   1.00
C54    C     0.71381   0.28634   0.67336   0.01267  Uiso   1.00
C55    C     0.64932   0.97060   0.59672   0.01267  Uiso   1.00
C56    C     0.40803   0.22533   0.92450   0.01267  Uiso   1.00
C57    C     0.46818   0.11426   0.49260   0.01267  Uiso   1.00
C58    C     0.42742   0.54612   0.31642   0.01267  Uiso   1.00
C59    C     0.53182   0.88574   0.50740   0.01267  Uiso   1.00
C60    C     0.05891   0.65968   0.76576   0.01267  Uiso   1.00
C61    C     0.81989   0.36406   0.76262   0.01267  Uiso   1.00
C62    C     0.14354   0.89314   0.32808   0.01267  Uiso   1.00
C63    C     0.59197   0.77467   0.07550   0.01267  Uiso   1.00
C64    C     0.96400   0.34530   0.33406   0.01267  Uiso   1.00
C65    C     0.66253   0.52873   0.78572   0.01267  Uiso   1.00
C66    C     0.73446   0.06296   0.31642   0.01267  Uiso   1.00
C67    C     0.54045   0.61298   0.32664   0.01267  Uiso   1.00
C68    C     0.37681   0.74301   0.21428   0.01267  Uiso   1.00
C69    C     0.55260   0.37388   0.40328   0.01267  Uiso   1.00
C70    C     0.44273   0.39856   0.76262   0.01267  Uiso   1.00
C71    C     0.33642   0.99982   0.30094   0.01267  Uiso   1.00
C72    C     0.26760   0.66340   0.12932   0.01267  Uiso   1.00
C73    C     0.50921   0.70121   0.78276   0.01267  Uiso   1.00
C74    C     0.31634   0.11666   0.82316   0.01267  Uiso   1.00
C75    C     0.57258   0.45388   0.68358   0.01267  Uiso   1.00
C76    C     0.65589   0.97055   0.21766   0.01267  Uiso   1.00
C77    C     0.96482   0.69772   0.62380   0.01267  Uiso   1.00
C78    C     0.49371   0.14551   0.59362   0.01267  Uiso   1.00
C79    C     0.33747   0.47127   0.21428   0.01267  Uiso   1.00
C80    C     0.03600   0.65470   0.66594   0.01267  Uiso   1.00
N1     N     0.47021   0.52986   0.13954   0.01267  Uiso   1.00
N2     N     0.84254   0.79314   0.63988   0.01267  Uiso   1.00
N3     N     0.29734   0.84674   0.63988   0.01267  Uiso   1.00
N4     N     0.83067   0.39032   0.86046   0.01267  Uiso   1.00
N5     N     0.59867   0.36490   0.22884   0.01267  Uiso   1.00
N6     N     0.16933   0.60968   0.13954   0.01267  Uiso   1.00
N7     N     0.15746   0.20686   0.36012   0.01267  Uiso   1.00
N8     N     0.13017   0.86394   0.22884   0.01267  Uiso   1.00
N9     N     0.52979   0.47014   0.86046   0.01267  Uiso   1.00
N10    N     0.86983   0.13606   0.77116   0.01267  Uiso   1.00
N11    N     0.40133   0.63510   0.77116   0.01267  Uiso   1.00
N12    N     0.70266   0.15326   0.36012   0.01267  Uiso   1.00
O1     O     0.49620   0.21979   0.97890   0.01267  Uiso   1.00
O2     O     0.94672   0.36648   0.05454   0.01267  Uiso   1.00
O3     O     0.19713   0.16296   0.30652   0.01267  Uiso   1.00
O4     O     0.39218   0.31194   0.94546   0.01267  Uiso   1.00
O5     O     0.60782   0.68806   0.05454   0.01267  Uiso   1.00
O6     O     0.01730   0.24089   0.02110   0.01267  Uiso   1.00
O7     O     0.80287   0.83704   0.69348   0.01267  Uiso   1.00
O8     O     0.35191   0.50887   0.92670   0.01267  Uiso   1.00
O9     O     0.12911   0.18220   0.87514   0.01267  Uiso   1.00
O10    O     0.77076   0.23296   0.44712   0.01267  Uiso   1.00
O11    O     0.64809   0.49113   0.07330   0.01267  Uiso   1.00
O12    O     0.82364   0.78584   0.55288   0.01267  Uiso   1.00
O13    O     0.24603   0.69294   0.87514   0.01267  Uiso   1.00
O14    O     0.98270   0.75911   0.97890   0.01267  Uiso   1.00
O15    O     0.50380   0.78021   0.02110   0.01267  Uiso   1.00
O16    O     0.39061   0.85644   0.69348   0.01267  Uiso   1.00
O17    O     0.15903   0.25773   0.76532   0.01267  Uiso   1.00
O18    O     0.10629   0.50759   0.76532   0.01267  Uiso   1.00
O19    O     0.17636   0.21416   0.44712   0.01267  Uiso   1.00
O20    O     0.92521   0.58217   0.07330   0.01267  Uiso   1.00
O21    O     0.75397   0.30706   0.12486   0.01267  Uiso   1.00
O22    O     0.89371   0.49241   0.23468   0.01267  Uiso   1.00
O23    O     0.22924   0.76704   0.55288   0.01267  Uiso   1.00
O24    O     0.60939   0.14356   0.30652   0.01267  Uiso   1.00
O25    O     0.87089   0.81780   0.12486   0.01267  Uiso   1.00
O26    O     0.05328   0.63352   0.94546   0.01267  Uiso   1.00
O27    O     0.84097   0.74227   0.23468   0.01267  Uiso   1.00
O28    O     0.07479   0.41783   0.92670   0.01267  Uiso   1.00
