data_image0
_cell_length_a       16.291
_cell_length_b       24.684
_cell_length_c       13.435
_cell_angle_alpha    90
_cell_angle_beta     124.098
_cell_angle_gamma    90

_symmetry_space_group_name_H-M    "P 1"
_symmetry_int_tables_number       1

loop_
  _symmetry_equiv_pos_as_xyz
  'x, y, z'

loop_
  _atom_site_label
  _atom_site_occupancy
  _atom_site_fract_x
  _atom_site_fract_y
  _atom_site_fract_z
  _atom_site_thermal_displace_type
  _atom_site_B_iso_or_equiv
  _atom_site_type_symbol
  Zn1      1.0000 0.82509  0.55238  0.72903  Biso   1.000  Zn
  O1       1.0000 0.23610  0.56340  0.94360  Biso   1.000  O
  O2       1.0000 0.12000  0.62230  0.91050  Biso   1.000  O
  O3       1.0000 0.15090  0.52980  0.08350  Biso   1.000  O
  O4       1.0000 0.25080  0.51290  0.28030  Biso   1.000  O
  O5       1.0000 0.46900  0.65680  0.53610  Biso   1.000  O
  O6       1.0000 0.51800  0.71640  0.47030  Biso   1.000  O
  O7       1.0000 0.95980  0.53897  0.84560  Biso   1.000  O
  H1       1.0000 0.99850  0.56200  0.84530  Biso   1.000  H
  N1       1.0000 0.46810  0.67780  0.45500  Biso   1.000  N
  N2       1.0000 0.95970  0.57100  0.05920  Biso   1.000  N
  N3       1.0000 0.73720  0.88440  0.23560  Biso   1.000  N
  C1       1.0000 0.26830  0.61800  0.10420  Biso   1.000  C
  C2       1.0000 0.28150  0.59030  0.20350  Biso   1.000  C
  C3       1.0000 0.34900  0.60960  0.31830  Biso   1.000  C
  H2       1.0000 0.35980  0.59080  0.38460  Biso   1.000  H
  C4       1.0000 0.40010  0.65670  0.33430  Biso   1.000  C
  C5       1.0000 0.38850  0.68540  0.23930  Biso   1.000  C
  H3       1.0000 0.42450  0.71680  0.25200  Biso   1.000  H
  C6       1.0000 0.32130  0.66590  0.12410  Biso   1.000  C
  H4       1.0000 0.31130  0.68520  0.05860  Biso   1.000  H
  C7       1.0000 0.20050  0.59970  0.97660  Biso   1.000  C
  C8       1.0000 0.22150  0.54040  0.18540  Biso   1.000  C
  C9       1.0000 0.97930  0.62160  0.04590  Biso   1.000  C
  H5       1.0000 0.01800  0.62700  0.01580  Biso   1.000  H
  C10      1.0000 0.94600  0.66630  0.07360  Biso   1.000  C
  H6       1.0000 0.96160  0.70100  0.06200  Biso   1.000  H
  C11      1.0000 0.88750  0.65900  0.12000  Biso   1.000  C
  C12      1.0000 0.86730  0.60570  0.13330  Biso   1.000  C
  H7       1.0000 0.82900  0.59870  0.16340  Biso   1.000  H
  C13      1.0000 0.90310  0.56360  0.10280  Biso   1.000  C
  H8       1.0000 0.88810  0.52840  0.11230  Biso   1.000  H
  C14      1.0000 0.84880  0.70330  0.15470  Biso   1.000  C
  H9       1.0000 0.80900  0.69350  0.18120  Biso   1.000  H
  C15      1.0000 0.86390  0.75520  0.15230  Biso   1.000  C
  H10      1.0000 0.90550  0.76530  0.12860  Biso   1.000  H
  C16      1.0000 0.79460  0.89300  0.19590  Biso   1.000  C
  H11      1.0000 0.80710  0.92860  0.18580  Biso   1.000  H
  C17      1.0000 0.83660  0.85230  0.16900  Biso   1.000  C
  H12      1.0000 0.87550  0.86080  0.14050  Biso   1.000  H
  C18      1.0000 0.82120  0.79920  0.18400  Biso   1.000  C
  C19      1.0000 0.76270  0.78960  0.22800  Biso   1.000  C
  H13      1.0000 0.75110  0.75440  0.24170  Biso   1.000  H
  C20      1.0000 0.72230  0.83290  0.25090  Biso   1.000  C
  H14      1.0000 0.68230  0.82570  0.27860  Biso   1.000  H
  Zn2      1.0000 0.32509  0.05238  0.72903  Biso   1.000  Zn
  O8       1.0000 0.73610  0.06340  0.94360  Biso   1.000  O
  O9       1.0000 0.62000  0.12230  0.91050  Biso   1.000  O
  O10      1.0000 0.65090  0.02980  0.08350  Biso   1.000  O
  O11      1.0000 0.75080  0.01290  0.28030  Biso   1.000  O
  O12      1.0000 0.96900  0.15680  0.53610  Biso   1.000  O
  O13      1.0000 0.01800  0.21640  0.47030  Biso   1.000  O
  O14      1.0000 0.45980  0.03897  0.84560  Biso   1.000  O
  H15      1.0000 0.49850  0.06200  0.84530  Biso   1.000  H
  N4       1.0000 0.96810  0.17780  0.45500  Biso   1.000  N
  N5       1.0000 0.45970  0.07100  0.05920  Biso   1.000  N
  N6       1.0000 0.23720  0.38440  0.23560  Biso   1.000  N
  C21      1.0000 0.76830  0.11800  0.10420  Biso   1.000  C
  C22      1.0000 0.78150  0.09030  0.20350  Biso   1.000  C
  C23      1.0000 0.84900  0.10960  0.31830  Biso   1.000  C
  H16      1.0000 0.85980  0.09080  0.38460  Biso   1.000  H
  C24      1.0000 0.90010  0.15670  0.33430  Biso   1.000  C
  C25      1.0000 0.88850  0.18540  0.23930  Biso   1.000  C
  H17      1.0000 0.92450  0.21680  0.25200  Biso   1.000  H
  C26      1.0000 0.82130  0.16590  0.12410  Biso   1.000  C
  H18      1.0000 0.81130  0.18520  0.05860  Biso   1.000  H
  C27      1.0000 0.70050  0.09970  0.97660  Biso   1.000  C
  C28      1.0000 0.72150  0.04040  0.18540  Biso   1.000  C
  C29      1.0000 0.47930  0.12160  0.04590  Biso   1.000  C
  H19      1.0000 0.51800  0.12700  0.01580  Biso   1.000  H
  C30      1.0000 0.44600  0.16630  0.07360  Biso   1.000  C
  H20      1.0000 0.46160  0.20100  0.06200  Biso   1.000  H
  C31      1.0000 0.38750  0.15900  0.12000  Biso   1.000  C
  C32      1.0000 0.36730  0.10570  0.13330  Biso   1.000  C
  H21      1.0000 0.32900  0.09870  0.16340  Biso   1.000  H
  C33      1.0000 0.40310  0.06360  0.10280  Biso   1.000  C
  H22      1.0000 0.38810  0.02840  0.11230  Biso   1.000  H
  C34      1.0000 0.34880  0.20330  0.15470  Biso   1.000  C
  H23      1.0000 0.30900  0.19350  0.18120  Biso   1.000  H
  C35      1.0000 0.36390  0.25520  0.15230  Biso   1.000  C
  H24      1.0000 0.40550  0.26530  0.12860  Biso   1.000  H
  C36      1.0000 0.29460  0.39300  0.19590  Biso   1.000  C
  H25      1.0000 0.30710  0.42860  0.18580  Biso   1.000  H
  C37      1.0000 0.33660  0.35230  0.16900  Biso   1.000  C
  H26      1.0000 0.37550  0.36080  0.14050  Biso   1.000  H
  C38      1.0000 0.32120  0.29920  0.18400  Biso   1.000  C
  C39      1.0000 0.26270  0.28960  0.22800  Biso   1.000  C
  H27      1.0000 0.25110  0.25440  0.24170  Biso   1.000  H
  C40      1.0000 0.22230  0.33290  0.25090  Biso   1.000  C
  H28      1.0000 0.18230  0.32570  0.27860  Biso   1.000  H
  Zn3      1.0000 0.17491  0.55238  0.77097  Biso   1.000  Zn
  O15      1.0000 0.76390  0.56340  0.55640  Biso   1.000  O
  O16      1.0000 0.88000  0.62230  0.58950  Biso   1.000  O
  O17      1.0000 0.84910  0.52980  0.41650  Biso   1.000  O
  O18      1.0000 0.74920  0.51290  0.21970  Biso   1.000  O
  O19      1.0000 0.53100  0.65680  0.96390  Biso   1.000  O
  O20      1.0000 0.48200  0.71640  0.02970  Biso   1.000  O
  O21      1.0000 0.04020  0.53897  0.65440  Biso   1.000  O
  H29      1.0000 0.00150  0.56200  0.65470  Biso   1.000  H
  N7       1.0000 0.53190  0.67780  0.04500  Biso   1.000  N
  N8       1.0000 0.04030  0.57100  0.44080  Biso   1.000  N
  N9       1.0000 0.26280  0.88440  0.26440  Biso   1.000  N
  C41      1.0000 0.73170  0.61800  0.39580  Biso   1.000  C
  C42      1.0000 0.71850  0.59030  0.29650  Biso   1.000  C
  C43      1.0000 0.65100  0.60960  0.18170  Biso   1.000  C
  H30      1.0000 0.64020  0.59080  0.11540  Biso   1.000  H
  C44      1.0000 0.59990  0.65670  0.16570  Biso   1.000  C
  C45      1.0000 0.61150  0.68540  0.26070  Biso   1.000  C
  H31      1.0000 0.57550  0.71680  0.24800  Biso   1.000  H
  C46      1.0000 0.67870  0.66590  0.37590  Biso   1.000  C
  H32      1.0000 0.68870  0.68520  0.44140  Biso   1.000  H
  C47      1.0000 0.79950  0.59970  0.52340  Biso   1.000  C
  C48      1.0000 0.77850  0.54040  0.31460  Biso   1.000  C
  C49      1.0000 0.02070  0.62160  0.45410  Biso   1.000  C
  H33      1.0000 0.98200  0.62700  0.48420  Biso   1.000  H
  C50      1.0000 0.05400  0.66630  0.42640  Biso   1.000  C
  H34      1.0000 0.03840  0.70100  0.43800  Biso   1.000  H
  C51      1.0000 0.11250  0.65900  0.38000  Biso   1.000  C
  C52      1.0000 0.13270  0.60570  0.36670  Biso   1.000  C
  H35      1.0000 0.17100  0.59870  0.33660  Biso   1.000  H
  C53      1.0000 0.09690  0.56360  0.39720  Biso   1.000  C
  H36      1.0000 0.11190  0.52840  0.38770  Biso   1.000  H
  C54      1.0000 0.15120  0.70330  0.34530  Biso   1.000  C
  H37      1.0000 0.19100  0.69350  0.31880  Biso   1.000  H
  C55      1.0000 0.13610  0.75520  0.34770  Biso   1.000  C
  H38      1.0000 0.09450  0.76530  0.37140  Biso   1.000  H
  C56      1.0000 0.20540  0.89300  0.30410  Biso   1.000  C
  H39      1.0000 0.19290  0.92860  0.31420  Biso   1.000  H
  C57      1.0000 0.16340  0.85230  0.33100  Biso   1.000  C
  H40      1.0000 0.12450  0.86080  0.35950  Biso   1.000  H
  C58      1.0000 0.17880  0.79920  0.31600  Biso   1.000  C
  C59      1.0000 0.23730  0.78960  0.27200  Biso   1.000  C
  H41      1.0000 0.24890  0.75440  0.25830  Biso   1.000  H
  C60      1.0000 0.27770  0.83290  0.24910  Biso   1.000  C
  H42      1.0000 0.31770  0.82570  0.22140  Biso   1.000  H
  Zn4      1.0000 0.67491  0.05238  0.77097  Biso   1.000  Zn
  O22      1.0000 0.26390  0.06340  0.55640  Biso   1.000  O
  O23      1.0000 0.38000  0.12230  0.58950  Biso   1.000  O
  O24      1.0000 0.34910  0.02980  0.41650  Biso   1.000  O
  O25      1.0000 0.24920  0.01290  0.21970  Biso   1.000  O
  O26      1.0000 0.03100  0.15680  0.96390  Biso   1.000  O
  O27      1.0000 0.98200  0.21640  0.02970  Biso   1.000  O
  O28      1.0000 0.54020  0.03897  0.65440  Biso   1.000  O
  H43      1.0000 0.50150  0.06200  0.65470  Biso   1.000  H
  N10      1.0000 0.03190  0.17780  0.04500  Biso   1.000  N
  N11      1.0000 0.54030  0.07100  0.44080  Biso   1.000  N
  N12      1.0000 0.76280  0.38440  0.26440  Biso   1.000  N
  C61      1.0000 0.23170  0.11800  0.39580  Biso   1.000  C
  C62      1.0000 0.21850  0.09030  0.29650  Biso   1.000  C
  C63      1.0000 0.15100  0.10960  0.18170  Biso   1.000  C
  H44      1.0000 0.14020  0.09080  0.11540  Biso   1.000  H
  C64      1.0000 0.09990  0.15670  0.16570  Biso   1.000  C
  C65      1.0000 0.11150  0.18540  0.26070  Biso   1.000  C
  H45      1.0000 0.07550  0.21680  0.24800  Biso   1.000  H
  C66      1.0000 0.17870  0.16590  0.37590  Biso   1.000  C
  H46      1.0000 0.18870  0.18520  0.44140  Biso   1.000  H
  C67      1.0000 0.29950  0.09970  0.52340  Biso   1.000  C
  C68      1.0000 0.27850  0.04040  0.31460  Biso   1.000  C
  C69      1.0000 0.52070  0.12160  0.45410  Biso   1.000  C
  H47      1.0000 0.48200  0.12700  0.48420  Biso   1.000  H
  C70      1.0000 0.55400  0.16630  0.42640  Biso   1.000  C
  H48      1.0000 0.53840  0.20100  0.43800  Biso   1.000  H
  C71      1.0000 0.61250  0.15900  0.38000  Biso   1.000  C
  C72      1.0000 0.63270  0.10570  0.36670  Biso   1.000  C
  H49      1.0000 0.67100  0.09870  0.33660  Biso   1.000  H
  C73      1.0000 0.59690  0.06360  0.39720  Biso   1.000  C
  H50      1.0000 0.61190  0.02840  0.38770  Biso   1.000  H
  C74      1.0000 0.65120  0.20330  0.34530  Biso   1.000  C
  H51      1.0000 0.69100  0.19350  0.31880  Biso   1.000  H
  C75      1.0000 0.63610  0.25520  0.34770  Biso   1.000  C
  H52      1.0000 0.59450  0.26530  0.37140  Biso   1.000  H
  C76      1.0000 0.70540  0.39300  0.30410  Biso   1.000  C
  H53      1.0000 0.69290  0.42860  0.31420  Biso   1.000  H
  C77      1.0000 0.66340  0.35230  0.33100  Biso   1.000  C
  H54      1.0000 0.62450  0.36080  0.35950  Biso   1.000  H
  C78      1.0000 0.67880  0.29920  0.31600  Biso   1.000  C
  C79      1.0000 0.73730  0.28960  0.27200  Biso   1.000  C
  H55      1.0000 0.74890  0.25440  0.25830  Biso   1.000  H
  C80      1.0000 0.77770  0.33290  0.24910  Biso   1.000  C
  H56      1.0000 0.81770  0.32570  0.22140  Biso   1.000  H
  Zn5      1.0000 0.17491  0.44762  0.27097  Biso   1.000  Zn
  O29      1.0000 0.76390  0.43660  0.05640  Biso   1.000  O
  O30      1.0000 0.88000  0.37770  0.08950  Biso   1.000  O
  O31      1.0000 0.84910  0.47020  0.91650  Biso   1.000  O
  O32      1.0000 0.74920  0.48710  0.71970  Biso   1.000  O
  O33      1.0000 0.53100  0.34320  0.46390  Biso   1.000  O
  O34      1.0000 0.48200  0.28360  0.52970  Biso   1.000  O
  O35      1.0000 0.04020  0.46103  0.15440  Biso   1.000  O
  H57      1.0000 0.00150  0.43800  0.15470  Biso   1.000  H
  N13      1.0000 0.53190  0.32220  0.54500  Biso   1.000  N
  N14      1.0000 0.04030  0.42900  0.94080  Biso   1.000  N
  N15      1.0000 0.26280  0.11560  0.76440  Biso   1.000  N
  C81      1.0000 0.73170  0.38200  0.89580  Biso   1.000  C
  C82      1.0000 0.71850  0.40970  0.79650  Biso   1.000  C
  C83      1.0000 0.65100  0.39040  0.68170  Biso   1.000  C
  H58      1.0000 0.64020  0.40920  0.61540  Biso   1.000  H
  C84      1.0000 0.59990  0.34330  0.66570  Biso   1.000  C
  C85      1.0000 0.61150  0.31460  0.76070  Biso   1.000  C
  H59      1.0000 0.57550  0.28320  0.74800  Biso   1.000  H
  C86      1.0000 0.67870  0.33410  0.87590  Biso   1.000  C
  H60      1.0000 0.68870  0.31480  0.94140  Biso   1.000  H
  C87      1.0000 0.79950  0.40030  0.02340  Biso   1.000  C
  C88      1.0000 0.77850  0.45960  0.81460  Biso   1.000  C
  C89      1.0000 0.02070  0.37840  0.95410  Biso   1.000  C
  H61      1.0000 0.98200  0.37300  0.98420  Biso   1.000  H
  C90      1.0000 0.05400  0.33370  0.92640  Biso   1.000  C
  H62      1.0000 0.03840  0.29900  0.93800  Biso   1.000  H
  C91      1.0000 0.11250  0.34100  0.88000  Biso   1.000  C
  C92      1.0000 0.13270  0.39430  0.86670  Biso   1.000  C
  H63      1.0000 0.17100  0.40130  0.83660  Biso   1.000  H
  C93      1.0000 0.09690  0.43640  0.89720  Biso   1.000  C
  H64      1.0000 0.11190  0.47160  0.88770  Biso   1.000  H
  C94      1.0000 0.15120  0.29670  0.84530  Biso   1.000  C
  H65      1.0000 0.19100  0.30650  0.81880  Biso   1.000  H
  C95      1.0000 0.13610  0.24480  0.84770  Biso   1.000  C
  H66      1.0000 0.09450  0.23470  0.87140  Biso   1.000  H
  C96      1.0000 0.20540  0.10700  0.80410  Biso   1.000  C
  H67      1.0000 0.19290  0.07140  0.81420  Biso   1.000  H
  C97      1.0000 0.16340  0.14770  0.83100  Biso   1.000  C
  H68      1.0000 0.12450  0.13920  0.85950  Biso   1.000  H
  C98      1.0000 0.17880  0.20080  0.81600  Biso   1.000  C
  C99      1.0000 0.23730  0.21040  0.77200  Biso   1.000  C
  H69      1.0000 0.24890  0.24560  0.75830  Biso   1.000  H
  C100     1.0000 0.27770  0.16710  0.74910  Biso   1.000  C
  H70      1.0000 0.31770  0.17430  0.72140  Biso   1.000  H
  Zn6      1.0000 0.67491  0.94762  0.27097  Biso   1.000  Zn
  O36      1.0000 0.26390  0.93660  0.05640  Biso   1.000  O
  O37      1.0000 0.38000  0.87770  0.08950  Biso   1.000  O
  O38      1.0000 0.34910  0.97020  0.91650  Biso   1.000  O
  O39      1.0000 0.24920  0.98710  0.71970  Biso   1.000  O
  O40      1.0000 0.03100  0.84320  0.46390  Biso   1.000  O
  O41      1.0000 0.98200  0.78360  0.52970  Biso   1.000  O
  O42      1.0000 0.54020  0.96103  0.15440  Biso   1.000  O
  H71      1.0000 0.50150  0.93800  0.15470  Biso   1.000  H
  N16      1.0000 0.03190  0.82220  0.54500  Biso   1.000  N
  N17      1.0000 0.54030  0.92900  0.94080  Biso   1.000  N
  N18      1.0000 0.76280  0.61560  0.76440  Biso   1.000  N
  C101     1.0000 0.23170  0.88200  0.89580  Biso   1.000  C
  C102     1.0000 0.21850  0.90970  0.79650  Biso   1.000  C
  C103     1.0000 0.15100  0.89040  0.68170  Biso   1.000  C
  H72      1.0000 0.14020  0.90920  0.61540  Biso   1.000  H
  C104     1.0000 0.09990  0.84330  0.66570  Biso   1.000  C
  C105     1.0000 0.11150  0.81460  0.76070  Biso   1.000  C
  H73      1.0000 0.07550  0.78320  0.74800  Biso   1.000  H
  C106     1.0000 0.17870  0.83410  0.87590  Biso   1.000  C
  H74      1.0000 0.18870  0.81480  0.94140  Biso   1.000  H
  C107     1.0000 0.29950  0.90030  0.02340  Biso   1.000  C
  C108     1.0000 0.27850  0.95960  0.81460  Biso   1.000  C
  C109     1.0000 0.52070  0.87840  0.95410  Biso   1.000  C
  H75      1.0000 0.48200  0.87300  0.98420  Biso   1.000  H
  C110     1.0000 0.55400  0.83370  0.92640  Biso   1.000  C
  H76      1.0000 0.53840  0.79900  0.93800  Biso   1.000  H
  C111     1.0000 0.61250  0.84100  0.88000  Biso   1.000  C
  C112     1.0000 0.63270  0.89430  0.86670  Biso   1.000  C
  H77      1.0000 0.67100  0.90130  0.83660  Biso   1.000  H
  C113     1.0000 0.59690  0.93640  0.89720  Biso   1.000  C
  H78      1.0000 0.61190  0.97160  0.88770  Biso   1.000  H
  C114     1.0000 0.65120  0.79670  0.84530  Biso   1.000  C
  H79      1.0000 0.69100  0.80650  0.81880  Biso   1.000  H
  C115     1.0000 0.63610  0.74480  0.84770  Biso   1.000  C
  H80      1.0000 0.59450  0.73470  0.87140  Biso   1.000  H
  C116     1.0000 0.70540  0.60700  0.80410  Biso   1.000  C
  H81      1.0000 0.69290  0.57140  0.81420  Biso   1.000  H
  C117     1.0000 0.66340  0.64770  0.83100  Biso   1.000  C
  H82      1.0000 0.62450  0.63920  0.85950  Biso   1.000  H
  C118     1.0000 0.67880  0.70080  0.81600  Biso   1.000  C
  C119     1.0000 0.73730  0.71040  0.77200  Biso   1.000  C
  H83      1.0000 0.74890  0.74560  0.75830  Biso   1.000  H
  C120     1.0000 0.77770  0.66710  0.74910  Biso   1.000  C
  H84      1.0000 0.81770  0.67430  0.72140  Biso   1.000  H
  Zn7      1.0000 0.82509  0.44762  0.22903  Biso   1.000  Zn
  O43      1.0000 0.23610  0.43660  0.44360  Biso   1.000  O
  O44      1.0000 0.12000  0.37770  0.41050  Biso   1.000  O
  O45      1.0000 0.15090  0.47020  0.58350  Biso   1.000  O
  O46      1.0000 0.25080  0.48710  0.78030  Biso   1.000  O
  O47      1.0000 0.46900  0.34320  0.03610  Biso   1.000  O
  O48      1.0000 0.51800  0.28360  0.97030  Biso   1.000  O
  O49      1.0000 0.95980  0.46103  0.34560  Biso   1.000  O
  H85      1.0000 0.99850  0.43800  0.34530  Biso   1.000  H
  N19      1.0000 0.46810  0.32220  0.95500  Biso   1.000  N
  N20      1.0000 0.95970  0.42900  0.55920  Biso   1.000  N
  N21      1.0000 0.73720  0.11560  0.73560  Biso   1.000  N
  C121     1.0000 0.26830  0.38200  0.60420  Biso   1.000  C
  C122     1.0000 0.28150  0.40970  0.70350  Biso   1.000  C
  C123     1.0000 0.34900  0.39040  0.81830  Biso   1.000  C
  H86      1.0000 0.35980  0.40920  0.88460  Biso   1.000  H
  C124     1.0000 0.40010  0.34330  0.83430  Biso   1.000  C
  C125     1.0000 0.38850  0.31460  0.73930  Biso   1.000  C
  H87      1.0000 0.42450  0.28320  0.75200  Biso   1.000  H
  C126     1.0000 0.32130  0.33410  0.62410  Biso   1.000  C
  H88      1.0000 0.31130  0.31480  0.55860  Biso   1.000  H
  C127     1.0000 0.20050  0.40030  0.47660  Biso   1.000  C
  C128     1.0000 0.22150  0.45960  0.68540  Biso   1.000  C
  C129     1.0000 0.97930  0.37840  0.54590  Biso   1.000  C
  H89      1.0000 0.01800  0.37300  0.51580  Biso   1.000  H
  C130     1.0000 0.94600  0.33370  0.57360  Biso   1.000  C
  H90      1.0000 0.96160  0.29900  0.56200  Biso   1.000  H
  C131     1.0000 0.88750  0.34100  0.62000  Biso   1.000  C
  C132     1.0000 0.86730  0.39430  0.63330  Biso   1.000  C
  H91      1.0000 0.82900  0.40130  0.66340  Biso   1.000  H
  C133     1.0000 0.90310  0.43640  0.60280  Biso   1.000  C
  H92      1.0000 0.88810  0.47160  0.61230  Biso   1.000  H
  C134     1.0000 0.84880  0.29670  0.65470  Biso   1.000  C
  H93      1.0000 0.80900  0.30650  0.68120  Biso   1.000  H
  C135     1.0000 0.86390  0.24480  0.65230  Biso   1.000  C
  H94      1.0000 0.90550  0.23470  0.62860  Biso   1.000  H
  C136     1.0000 0.79460  0.10700  0.69590  Biso   1.000  C
  H95      1.0000 0.80710  0.07140  0.68580  Biso   1.000  H
  C137     1.0000 0.83660  0.14770  0.66900  Biso   1.000  C
  H96      1.0000 0.87550  0.13920  0.64050  Biso   1.000  H
  C138     1.0000 0.82120  0.20080  0.68400  Biso   1.000  C
  C139     1.0000 0.76270  0.21040  0.72800  Biso   1.000  C
  H97      1.0000 0.75110  0.24560  0.74170  Biso   1.000  H
  C140     1.0000 0.72230  0.16710  0.75090  Biso   1.000  C
  H98      1.0000 0.68230  0.17430  0.77860  Biso   1.000  H
  Zn8      1.0000 0.32509  0.94762  0.22903  Biso   1.000  Zn
  O50      1.0000 0.73610  0.93660  0.44360  Biso   1.000  O
  O51      1.0000 0.62000  0.87770  0.41050  Biso   1.000  O
  O52      1.0000 0.65090  0.97020  0.58350  Biso   1.000  O
  O53      1.0000 0.75080  0.98710  0.78030  Biso   1.000  O
  O54      1.0000 0.96900  0.84320  0.03610  Biso   1.000  O
  O55      1.0000 0.01800  0.78360  0.97030  Biso   1.000  O
  O56      1.0000 0.45980  0.96103  0.34560  Biso   1.000  O
  H99      1.0000 0.49850  0.93800  0.34530  Biso   1.000  H
  N22      1.0000 0.96810  0.82220  0.95500  Biso   1.000  N
  N23      1.0000 0.45970  0.92900  0.55920  Biso   1.000  N
  N24      1.0000 0.23720  0.61560  0.73560  Biso   1.000  N
  C141     1.0000 0.76830  0.88200  0.60420  Biso   1.000  C
  C142     1.0000 0.78150  0.90970  0.70350  Biso   1.000  C
  C143     1.0000 0.84900  0.89040  0.81830  Biso   1.000  C
  H100     1.0000 0.85980  0.90920  0.88460  Biso   1.000  H
  C144     1.0000 0.90010  0.84330  0.83430  Biso   1.000  C
  C145     1.0000 0.88850  0.81460  0.73930  Biso   1.000  C
  H101     1.0000 0.92450  0.78320  0.75200  Biso   1.000  H
  C146     1.0000 0.82130  0.83410  0.62410  Biso   1.000  C
  H102     1.0000 0.81130  0.81480  0.55860  Biso   1.000  H
  C147     1.0000 0.70050  0.90030  0.47660  Biso   1.000  C
  C148     1.0000 0.72150  0.95960  0.68540  Biso   1.000  C
  C149     1.0000 0.47930  0.87840  0.54590  Biso   1.000  C
  H103     1.0000 0.51800  0.87300  0.51580  Biso   1.000  H
  C150     1.0000 0.44600  0.83370  0.57360  Biso   1.000  C
  H104     1.0000 0.46160  0.79900  0.56200  Biso   1.000  H
  C151     1.0000 0.38750  0.84100  0.62000  Biso   1.000  C
  C152     1.0000 0.36730  0.89430  0.63330  Biso   1.000  C
  H105     1.0000 0.32900  0.90130  0.66340  Biso   1.000  H
  C153     1.0000 0.40310  0.93640  0.60280  Biso   1.000  C
  H106     1.0000 0.38810  0.97160  0.61230  Biso   1.000  H
  C154     1.0000 0.34880  0.79670  0.65470  Biso   1.000  C
  H107     1.0000 0.30900  0.80650  0.68120  Biso   1.000  H
  C155     1.0000 0.36390  0.74480  0.65230  Biso   1.000  C
  H108     1.0000 0.40550  0.73470  0.62860  Biso   1.000  H
  C156     1.0000 0.29460  0.60700  0.69590  Biso   1.000  C
  H109     1.0000 0.30710  0.57140  0.68580  Biso   1.000  H
  C157     1.0000 0.33660  0.64770  0.66900  Biso   1.000  C
  H110     1.0000 0.37550  0.63920  0.64050  Biso   1.000  H
  C158     1.0000 0.32120  0.70080  0.68400  Biso   1.000  C
  C159     1.0000 0.26270  0.71040  0.72800  Biso   1.000  C
  H111     1.0000 0.25110  0.74560  0.74170  Biso   1.000  H
  C160     1.0000 0.22230  0.66710  0.75090  Biso   1.000  C
  H112     1.0000 0.18230  0.67430  0.77860  Biso   1.000  H
  Zn9      1.0000 0.00000  0.50000  0.00000  Biso   1.000  Zn
  Zn10     1.0000 0.50000  0.00000  0.00000  Biso   1.000  Zn
  Zn11     1.0000 0.00000  0.50000  0.50000  Biso   1.000  Zn
  Zn12     1.0000 0.50000  0.00000  0.50000  Biso   1.000  Zn
