data_GIRZAK_freeONLY
_audit_creation_date              2015-10-16
_audit_creation_method            'Materials Studio'
_symmetry_space_group_name_H-M    'P1'
_symmetry_Int_Tables_number       1
_symmetry_cell_setting            triclinic
loop_
_symmetry_equiv_pos_as_xyz
  x,y,z
_cell_length_a                    13.8380
_cell_length_b                    13.8440
_cell_length_c                    14.4200
_cell_angle_alpha                 108.3100
_cell_angle_beta                  110.4300
_cell_angle_gamma                 107.0460
loop_
_atom_site_label
_atom_site_type_symbol
_atom_site_fract_x
_atom_site_fract_y
_atom_site_fract_z
_atom_site_U_iso_or_equiv
_atom_site_adp_type
_atom_site_occupancy
Zn1    Zn    0.44700   0.72600   0.59980   0.01267  Uiso   1.00
Zn2    Zn    0.50000   0.50000   0.50000   0.01267  Uiso   1.00
Zn3    Zn    0.55300   0.27400   0.40020   0.01267  Uiso   1.00
Zn4    Zn    0.15590   0.36930   0.60020   0.01267  Uiso   1.00
Zn5    Zn    0.84410   0.63070   0.39980   0.01267  Uiso   1.00
Zn6    Zn    0.00000   0.50000   0.50000   0.01267  Uiso   1.00
H1     H     0.85830   0.00440   0.75970   0.01267  Uiso   1.00
H2     H     0.55460   0.61620   0.11700   0.01267  Uiso   1.00
H3     H     0.21940   0.59230   0.29560   0.01267  Uiso   1.00
H4     H     0.12540   0.65630   0.76680   0.01267  Uiso   1.00
H5     H     0.92450   0.77700   0.70450   0.01267  Uiso   1.00
H6     H     0.35740   0.39300   0.22970   0.01267  Uiso   1.00
H7     H     0.87460   0.34370   0.23320   0.01267  Uiso   1.00
H8     H     0.44520   0.99250   0.87210   0.01267  Uiso   1.00
H9     H     0.59880   0.85700   0.05760   0.01267  Uiso   1.00
H10    H     0.62370   0.22840   0.69780   0.01267  Uiso   1.00
H11    H     0.44540   0.38380   0.88300   0.01267  Uiso   1.00
H12    H     0.81460   0.75470   0.91710   0.01267  Uiso   1.00
H13    H     0.85380   0.45640   0.90350   0.01267  Uiso   1.00
H14    H     0.55760   0.29430   0.95360   0.01267  Uiso   1.00
H15    H     0.74820   0.63610   0.56470   0.01267  Uiso   1.00
H16    H     0.77750   0.50670   0.00910   0.01267  Uiso   1.00
H17    H     0.07550   0.22300   0.29550   0.01267  Uiso   1.00
H18    H     0.37630   0.77160   0.30220   0.01267  Uiso   1.00
H19    H     0.55480   0.00750   0.12790   0.01267  Uiso   1.00
H20    H     0.18540   0.24530   0.08290   0.01267  Uiso   1.00
H21    H     0.58220   0.86620   0.85730   0.01267  Uiso   1.00
H22    H     0.81430   0.42140   0.56200   0.01267  Uiso   1.00
H23    H     0.89780   0.35000   0.08300   0.01267  Uiso   1.00
H24    H     0.77200   0.00340   0.99130   0.01267  Uiso   1.00
H25    H     0.06250   0.65430   0.05690   0.01267  Uiso   1.00
H26    H     0.96290   0.22510   0.63130   0.01267  Uiso   1.00
H27    H     0.25180   0.36390   0.43530   0.01267  Uiso   1.00
H28    H     0.93750   0.34570   0.94310   0.01267  Uiso   1.00
H29    H     0.06910   0.95620   0.69460   0.01267  Uiso   1.00
H30    H     0.22250   0.49330   0.99090   0.01267  Uiso   1.00
H31    H     0.90460   0.25500   0.76440   0.01267  Uiso   1.00
H32    H     0.66900   0.88850   0.62430   0.01267  Uiso   1.00
H33    H     0.33100   0.11150   0.37570   0.01267  Uiso   1.00
H34    H     0.10220   0.65000   0.91700   0.01267  Uiso   1.00
H35    H     0.27730   0.47540   0.85990   0.01267  Uiso   1.00
H36    H     0.57680   0.44430   0.37500   0.01267  Uiso   1.00
H37    H     0.09540   0.74500   0.23560   0.01267  Uiso   1.00
H38    H     0.78060   0.40770   0.70440   0.01267  Uiso   1.00
H39    H     0.41780   0.13380   0.14270   0.01267  Uiso   1.00
H40    H     0.03710   0.77490   0.36870   0.01267  Uiso   1.00
H41    H     0.93090   0.04380   0.30540   0.01267  Uiso   1.00
H42    H     0.14170   0.99560   0.24030   0.01267  Uiso   1.00
H43    H     0.64260   0.60700   0.77030   0.01267  Uiso   1.00
H44    H     0.44240   0.70570   0.04640   0.01267  Uiso   1.00
H45    H     0.22800   0.99660   0.00870   0.01267  Uiso   1.00
H46    H     0.72270   0.52460   0.14010   0.01267  Uiso   1.00
H47    H     0.20180   0.56470   0.62680   0.01267  Uiso   1.00
H48    H     0.79820   0.43530   0.37320   0.01267  Uiso   1.00
H49    H     0.18570   0.57860   0.43800   0.01267  Uiso   1.00
H50    H     0.14620   0.54360   0.09650   0.01267  Uiso   1.00
H51    H     0.42320   0.55570   0.62500   0.01267  Uiso   1.00
H52    H     0.40120   0.14300   0.94240   0.01267  Uiso   1.00
C1     C     0.12500   0.53300   0.36510   0.01267  Uiso   1.00
C2     C     0.92400   0.24100   0.41660   0.01267  Uiso   1.00
C3     C     0.45870   0.34200   0.74390   0.01267  Uiso   1.00
C4     C     0.69820   0.64200   0.75400   0.01267  Uiso   1.00
C5     C     0.62900   0.61100   0.30700   0.01267  Uiso   1.00
C6     C     0.80500   0.73500   0.84500   0.01267  Uiso   1.00
C7     C     0.97900   0.30200   0.78300   0.01267  Uiso   1.00
C8     C     0.99400   0.91600   0.92100   0.01267  Uiso   1.00
C9     C     0.04140   0.59700   0.84550   0.01267  Uiso   1.00
C10    C     0.67300   0.19700   0.30800   0.01267  Uiso   1.00
C11    C     0.45300   0.70200   0.11220   0.01267  Uiso   1.00
C12    C     0.83300   0.00800   0.88600   0.01267  Uiso   1.00
C13    C     0.65500   0.92500   0.12130   0.01267  Uiso   1.00
C14    C     0.03900   0.93200   0.03900   0.01267  Uiso   1.00
C15    C     0.75100   0.97300   0.91600   0.01267  Uiso   1.00
C16    C     0.59750   0.25600   0.82900   0.01267  Uiso   1.00
C17    C     0.79900   0.56800   0.16150   0.01267  Uiso   1.00
C18    C     0.20100   0.43200   0.83850   0.01267  Uiso   1.00
C19    C     0.40250   0.74400   0.17100   0.01267  Uiso   1.00
C20    C     0.16700   0.99200   0.11400   0.01267  Uiso   1.00
C21    C     0.94800   0.61300   0.11340   0.01267  Uiso   1.00
C22    C     0.01400   0.28500   0.70300   0.01267  Uiso   1.00
C23    C     0.47970   0.69100   0.30890   0.01267  Uiso   1.00
C24    C     0.94480   0.39700   0.24790   0.01267  Uiso   1.00
C25    C     0.77000   0.94200   0.17800   0.01267  Uiso   1.00
C26    C     0.13200   0.25100   0.27700   0.01267  Uiso   1.00
C27    C     0.99420   0.41500   0.95250   0.01267  Uiso   1.00
C28    C     0.69000   0.90600   0.69800   0.01267  Uiso   1.00
C29    C     0.16800   0.44500   0.91600   0.01267  Uiso   1.00
C30    C     0.95860   0.40300   0.15450   0.01267  Uiso   1.00
C31    C     0.24000   0.34100   0.36300   0.01267  Uiso   1.00
C32    C     0.16930   0.86800   0.68220   0.01267  Uiso   1.00
C33    C     0.32700   0.80300   0.69200   0.01267  Uiso   1.00
C34    C     0.37100   0.38900   0.69300   0.01267  Uiso   1.00
C35    C     0.48890   0.67700   0.41140   0.01267  Uiso   1.00
C36    C     0.14590   0.54400   0.27800   0.01267  Uiso   1.00
C37    C     0.31000   0.09400   0.30200   0.01267  Uiso   1.00
C38    C     0.80300   0.97700   0.78000   0.01267  Uiso   1.00
C39    C     0.52320   0.65100   0.15600   0.01267  Uiso   1.00
C40    C     0.05520   0.60300   0.75210   0.01267  Uiso   1.00
C41    C     0.00600   0.08400   0.07900   0.01267  Uiso   1.00
C42    C     0.85410   0.45600   0.72200   0.01267  Uiso   1.00
C43    C     0.54700   0.29800   0.88780   0.01267  Uiso   1.00
C44    C     0.63600   0.89400   0.83600   0.01267  Uiso   1.00
C45    C     0.94550   0.52000   0.83690   0.01267  Uiso   1.00
C46    C     0.00580   0.58500   0.04750   0.01267  Uiso   1.00
C47    C     0.19500   0.26500   0.15500   0.01267  Uiso   1.00
C48    C     0.96100   0.06800   0.96100   0.01267  Uiso   1.00
C49    C     0.89400   0.79800   0.83400   0.01267  Uiso   1.00
C50    C     0.23000   0.05800   0.82200   0.01267  Uiso   1.00
C51    C     0.83070   0.13200   0.31780   0.01267  Uiso   1.00
C52    C     0.86800   0.74900   0.72300   0.01267  Uiso   1.00
C53    C     0.58760   0.25900   0.73400   0.01267  Uiso   1.00
C54    C     0.30180   0.35800   0.24600   0.01267  Uiso   1.00
C55    C     0.51110   0.32300   0.58860   0.01267  Uiso   1.00
C56    C     0.47680   0.34900   0.84400   0.01267  Uiso   1.00
C57    C     0.37100   0.98500   0.83600   0.01267  Uiso   1.00
C58    C     0.28500   0.88600   0.73800   0.01267  Uiso   1.00
C59    C     0.76000   0.65900   0.63700   0.01267  Uiso   1.00
C60    C     0.19700   0.02300   0.22000   0.01267  Uiso   1.00
C61    C     0.05200   0.38700   0.88660   0.01267  Uiso   1.00
C62    C     0.36400   0.10600   0.16400   0.01267  Uiso   1.00
C63    C     0.93560   0.49300   0.92410   0.01267  Uiso   1.00
C64    C     0.41240   0.74100   0.26600   0.01267  Uiso   1.00
C65    C     0.14300   0.96200   0.72800   0.01267  Uiso   1.00
C66    C     0.02100   0.69800   0.21700   0.01267  Uiso   1.00
C67    C     0.10600   0.20200   0.16600   0.01267  Uiso   1.00
C68    C     0.52030   0.30900   0.69110   0.01267  Uiso   1.00
C69    C     0.71500   0.11400   0.26200   0.01267  Uiso   1.00
C70    C     0.24900   0.02700   0.08400   0.01267  Uiso   1.00
C71    C     0.83200   0.55500   0.08400   0.01267  Uiso   1.00
C72    C     0.87500   0.46700   0.63490   0.01267  Uiso   1.00
C73    C     0.05450   0.48000   0.16310   0.01267  Uiso   1.00
C74    C     0.07600   0.75900   0.58340   0.01267  Uiso   1.00
C75    C     0.54130   0.65800   0.25610   0.01267  Uiso   1.00
C76    C     0.34500   0.07500   0.87870   0.01267  Uiso   1.00
C77    C     0.62900   0.01500   0.16400   0.01267  Uiso   1.00
C78    C     0.85700   0.03800   0.27200   0.01267  Uiso   1.00
C79    C     0.98600   0.71500   0.29700   0.01267  Uiso   1.00
C80    C     0.06440   0.50700   0.07590   0.01267  Uiso   1.00
N1     N     0.87420   0.64420   0.27100   0.01267  Uiso   1.00
N2     N     0.32600   0.79100   0.12300   0.01267  Uiso   1.00
N3     N     0.12580   0.35580   0.72900   0.01267  Uiso   1.00
N4     N     0.20200   0.15300   0.86600   0.01267  Uiso   1.00
N5     N     0.02540   0.46150   0.35100   0.01267  Uiso   1.00
N6     N     0.67250   0.60200   0.64990   0.01267  Uiso   1.00
N7     N     0.32750   0.39800   0.35010   0.01267  Uiso   1.00
N8     N     0.79800   0.84700   0.13400   0.01267  Uiso   1.00
N9     N     0.60360   0.85800   0.72400   0.01267  Uiso   1.00
N10    N     0.39640   0.14200   0.27600   0.01267  Uiso   1.00
N11    N     0.67400   0.20900   0.87700   0.01267  Uiso   1.00
N12    N     0.97460   0.53850   0.64900   0.01267  Uiso   1.00
O1     O     0.72830   0.68490   0.38630   0.01267  Uiso   1.00
O2     O     0.56920   0.42040   0.42070   0.01267  Uiso   1.00
O3     O     0.10100   0.13000   0.83100   0.01267  Uiso   1.00
O4     O     0.66300   0.18600   0.94990   0.01267  Uiso   1.00
O5     O     0.46770   0.38290   0.56180   0.01267  Uiso   1.00
O6     O     0.14990   0.49620   0.58280   0.01267  Uiso   1.00
O7     O     0.90600   0.32480   0.44400   0.01267  Uiso   1.00
O8     O     0.73610   0.19000   0.83800   0.01267  Uiso   1.00
O9     O     0.55500   0.27190   0.53740   0.01267  Uiso   1.00
O10    O     0.33700   0.81400   0.05010   0.01267  Uiso   1.00
O11    O     0.44500   0.72810   0.46260   0.01267  Uiso   1.00
O12    O     0.27170   0.31510   0.61370   0.01267  Uiso   1.00
O13    O     0.09400   0.67520   0.55600   0.01267  Uiso   1.00
O14    O     0.85010   0.50380   0.41720   0.01267  Uiso   1.00
O15    O     0.66470   0.25730   0.25830   0.01267  Uiso   1.00
O16    O     0.43080   0.57960   0.57930   0.01267  Uiso   1.00
O17    O     0.97790   0.76230   0.53700   0.01267  Uiso   1.00
O18    O     0.34630   0.79790   0.61300   0.01267  Uiso   1.00
O19    O     0.28600   0.24400   0.94300   0.01267  Uiso   1.00
O20    O     0.02210   0.23770   0.46300   0.01267  Uiso   1.00
O21    O     0.65370   0.20210   0.38700   0.01267  Uiso   1.00
O22    O     0.40480   0.49200   0.74310   0.01267  Uiso   1.00
O23    O     0.33530   0.74270   0.74170   0.01267  Uiso   1.00
O24    O     0.71400   0.75600   0.05700   0.01267  Uiso   1.00
O25    O     0.89900   0.87000   0.16900   0.01267  Uiso   1.00
O26    O     0.53230   0.61710   0.43820   0.01267  Uiso   1.00
O27    O     0.26390   0.81000   0.16200   0.01267  Uiso   1.00
O28    O     0.59520   0.50800   0.25690   0.01267  Uiso   1.00
