data_image0
_cell_length_a       18.4882
_cell_length_b       26.6407
_cell_length_c       26.6407
_cell_angle_alpha    120
_cell_angle_beta     90
_cell_angle_gamma    90

_symmetry_space_group_name_H-M    P 1
_symmetry_int_tables_number       1

loop_
  _symmetry_equiv_pos_as_xyz
  'x, y, z'

loop_
  _atom_site_label
  _atom_site_occupancy
  _atom_site_fract_x
  _atom_site_fract_y
  _atom_site_fract_z
  _atom_site_thermal_displace_type
  _atom_site_B_iso_or_equiv
  _atom_site_type_symbol
  Zn1      1.0000 0.41282  0.89177  0.33177  Biso   1.000  Zn
  Zn2      1.0000 0.41282  0.44000  0.10823  Biso   1.000  Zn
  Zn3      1.0000 0.41282  0.66823  0.56000  Biso   1.000  Zn
  Zn4      1.0000 0.91282  0.10823  0.66823  Biso   1.000  Zn
  Zn5      1.0000 0.91282  0.56000  0.89177  Biso   1.000  Zn
  Zn6      1.0000 0.91282  0.33177  0.44000  Biso   1.000  Zn
  Zn7      1.0000 0.58718  0.56000  0.66823  Biso   1.000  Zn
  Zn8      1.0000 0.58718  0.33177  0.89177  Biso   1.000  Zn
  Zn9      1.0000 0.58718  0.10823  0.44000  Biso   1.000  Zn
  Zn10     1.0000 0.08718  0.44000  0.33177  Biso   1.000  Zn
  Zn11     1.0000 0.08718  0.66823  0.10823  Biso   1.000  Zn
  Zn12     1.0000 0.08718  0.89177  0.56000  Biso   1.000  Zn
  Zn13     1.0000 0.58718  0.10823  0.66823  Biso   1.000  Zn
  Zn14     1.0000 0.58718  0.56000  0.89177  Biso   1.000  Zn
  Zn15     1.0000 0.58718  0.33177  0.44000  Biso   1.000  Zn
  Zn16     1.0000 0.08718  0.89177  0.33177  Biso   1.000  Zn
  Zn17     1.0000 0.08718  0.44000  0.10823  Biso   1.000  Zn
  Zn18     1.0000 0.08718  0.66823  0.56000  Biso   1.000  Zn
  Zn19     1.0000 0.41282  0.44000  0.33177  Biso   1.000  Zn
  Zn20     1.0000 0.41282  0.66823  0.10823  Biso   1.000  Zn
  Zn21     1.0000 0.41282  0.89177  0.56000  Biso   1.000  Zn
  Zn22     1.0000 0.91282  0.56000  0.66823  Biso   1.000  Zn
  Zn23     1.0000 0.91282  0.33177  0.89177  Biso   1.000  Zn
  Zn24     1.0000 0.91282  0.10823  0.44000  Biso   1.000  Zn
  H1       1.0000 0.58000  0.87240  0.30290  Biso   1.000  H
  H2       1.0000 0.68880  0.83310  0.25450  Biso   1.000  H
  H3       1.0000 0.50530  0.80870  0.35540  Biso   1.000  H
  H4       1.0000 0.42830  0.91170  0.21900  Biso   1.000  H
  H5       1.0000 0.46900  0.95470  0.16510  Biso   1.000  H
  H6       1.0000 0.31050  0.98240  0.31440  Biso   1.000  H
  H7       1.0000 0.58000  0.43050  0.12760  Biso   1.000  H
  H8       1.0000 0.68880  0.42140  0.16690  Biso   1.000  H
  H9       1.0000 0.50530  0.54670  0.19130  Biso   1.000  H
  H10      1.0000 0.42830  0.30730  0.08830  Biso   1.000  H
  H11      1.0000 0.46900  0.21040  0.04530  Biso   1.000  H
  H12      1.0000 0.31050  0.33200  0.01760  Biso   1.000  H
  H13      1.0000 0.58000  0.69710  0.56950  Biso   1.000  H
  H14      1.0000 0.68880  0.74550  0.57860  Biso   1.000  H
  H15      1.0000 0.50530  0.64460  0.45330  Biso   1.000  H
  H16      1.0000 0.42830  0.78100  0.69270  Biso   1.000  H
  H17      1.0000 0.46900  0.83490  0.78960  Biso   1.000  H
  H18      1.0000 0.31050  0.68560  0.66800  Biso   1.000  H
  H19      1.0000 0.08000  0.12760  0.69710  Biso   1.000  H
  H20      1.0000 0.18880  0.16690  0.74550  Biso   1.000  H
  H21      1.0000 0.00530  0.19130  0.64460  Biso   1.000  H
  H22      1.0000 0.92830  0.08830  0.78100  Biso   1.000  H
  H23      1.0000 0.96900  0.04530  0.83490  Biso   1.000  H
  H24      1.0000 0.81050  0.01760  0.68560  Biso   1.000  H
  H25      1.0000 0.08000  0.56950  0.87240  Biso   1.000  H
  H26      1.0000 0.18880  0.57860  0.83310  Biso   1.000  H
  H27      1.0000 0.00530  0.45330  0.80870  Biso   1.000  H
  H28      1.0000 0.92830  0.69270  0.91170  Biso   1.000  H
  H29      1.0000 0.96900  0.78960  0.95470  Biso   1.000  H
  H30      1.0000 0.81050  0.66800  0.98240  Biso   1.000  H
  H31      1.0000 0.08000  0.30290  0.43050  Biso   1.000  H
  H32      1.0000 0.18880  0.25450  0.42140  Biso   1.000  H
  H33      1.0000 0.00530  0.35540  0.54670  Biso   1.000  H
  H34      1.0000 0.92830  0.21900  0.30730  Biso   1.000  H
  H35      1.0000 0.96900  0.16510  0.21040  Biso   1.000  H
  H36      1.0000 0.81050  0.31440  0.33200  Biso   1.000  H
  H37      1.0000 0.42000  0.56950  0.69710  Biso   1.000  H
  H38      1.0000 0.31120  0.57860  0.74550  Biso   1.000  H
  H39      1.0000 0.49470  0.45330  0.64460  Biso   1.000  H
  H40      1.0000 0.57170  0.69270  0.78100  Biso   1.000  H
  H41      1.0000 0.53100  0.78960  0.83490  Biso   1.000  H
  H42      1.0000 0.68950  0.66800  0.68560  Biso   1.000  H
  H43      1.0000 0.42000  0.30290  0.87240  Biso   1.000  H
  H44      1.0000 0.31120  0.25450  0.83310  Biso   1.000  H
  H45      1.0000 0.49470  0.35540  0.80870  Biso   1.000  H
  H46      1.0000 0.57170  0.21900  0.91170  Biso   1.000  H
  H47      1.0000 0.53100  0.16510  0.95470  Biso   1.000  H
  H48      1.0000 0.68950  0.31440  0.98240  Biso   1.000  H
  H49      1.0000 0.42000  0.12760  0.43050  Biso   1.000  H
  H50      1.0000 0.31120  0.16690  0.42140  Biso   1.000  H
  H51      1.0000 0.49470  0.19130  0.54670  Biso   1.000  H
  H52      1.0000 0.57170  0.08830  0.30730  Biso   1.000  H
  H53      1.0000 0.53100  0.04530  0.21040  Biso   1.000  H
  H54      1.0000 0.68950  0.01760  0.33200  Biso   1.000  H
  H55      1.0000 0.92000  0.43050  0.30290  Biso   1.000  H
  H56      1.0000 0.81120  0.42140  0.25450  Biso   1.000  H
  H57      1.0000 0.99470  0.54670  0.35540  Biso   1.000  H
  H58      1.0000 0.07170  0.30730  0.21900  Biso   1.000  H
  H59      1.0000 0.03100  0.21040  0.16510  Biso   1.000  H
  H60      1.0000 0.18950  0.33200  0.31440  Biso   1.000  H
  H61      1.0000 0.92000  0.69710  0.12760  Biso   1.000  H
  H62      1.0000 0.81120  0.74550  0.16690  Biso   1.000  H
  H63      1.0000 0.99470  0.64460  0.19130  Biso   1.000  H
  H64      1.0000 0.07170  0.78100  0.08830  Biso   1.000  H
  H65      1.0000 0.03100  0.83490  0.04530  Biso   1.000  H
  H66      1.0000 0.18950  0.68560  0.01760  Biso   1.000  H
  H67      1.0000 0.92000  0.87240  0.56950  Biso   1.000  H
  H68      1.0000 0.81120  0.83310  0.57860  Biso   1.000  H
  H69      1.0000 0.99470  0.80870  0.45330  Biso   1.000  H
  H70      1.0000 0.07170  0.91170  0.69270  Biso   1.000  H
  H71      1.0000 0.03100  0.95470  0.78960  Biso   1.000  H
  H72      1.0000 0.18950  0.98240  0.66800  Biso   1.000  H
  H73      1.0000 0.42000  0.12760  0.69710  Biso   1.000  H
  H74      1.0000 0.31120  0.16690  0.74550  Biso   1.000  H
  H75      1.0000 0.49470  0.19130  0.64460  Biso   1.000  H
  H76      1.0000 0.57170  0.08830  0.78100  Biso   1.000  H
  H77      1.0000 0.53100  0.04530  0.83490  Biso   1.000  H
  H78      1.0000 0.68950  0.01760  0.68560  Biso   1.000  H
  H79      1.0000 0.42000  0.56950  0.87240  Biso   1.000  H
  H80      1.0000 0.31120  0.57860  0.83310  Biso   1.000  H
  H81      1.0000 0.49470  0.45330  0.80870  Biso   1.000  H
  H82      1.0000 0.57170  0.69270  0.91170  Biso   1.000  H
  H83      1.0000 0.53100  0.78960  0.95470  Biso   1.000  H
  H84      1.0000 0.68950  0.66800  0.98240  Biso   1.000  H
  H85      1.0000 0.42000  0.30290  0.43050  Biso   1.000  H
  H86      1.0000 0.31120  0.25450  0.42140  Biso   1.000  H
  H87      1.0000 0.49470  0.35540  0.54670  Biso   1.000  H
  H88      1.0000 0.57170  0.21900  0.30730  Biso   1.000  H
  H89      1.0000 0.53100  0.16510  0.21040  Biso   1.000  H
  H90      1.0000 0.68950  0.31440  0.33200  Biso   1.000  H
  H91      1.0000 0.92000  0.87240  0.30290  Biso   1.000  H
  H92      1.0000 0.81120  0.83310  0.25450  Biso   1.000  H
  H93      1.0000 0.99470  0.80870  0.35540  Biso   1.000  H
  H94      1.0000 0.07170  0.91170  0.21900  Biso   1.000  H
  H95      1.0000 0.03100  0.95470  0.16510  Biso   1.000  H
  H96      1.0000 0.18950  0.98240  0.31440  Biso   1.000  H
  H97      1.0000 0.92000  0.43050  0.12760  Biso   1.000  H
  H98      1.0000 0.81120  0.42140  0.16690  Biso   1.000  H
  H99      1.0000 0.99470  0.54670  0.19130  Biso   1.000  H
  H100     1.0000 0.07170  0.30730  0.08830  Biso   1.000  H
  H101     1.0000 0.03100  0.21040  0.04530  Biso   1.000  H
  H102     1.0000 0.18950  0.33200  0.01760  Biso   1.000  H
  H103     1.0000 0.92000  0.69710  0.56950  Biso   1.000  H
  H104     1.0000 0.81120  0.74550  0.57860  Biso   1.000  H
  H105     1.0000 0.99470  0.64460  0.45330  Biso   1.000  H
  H106     1.0000 0.07170  0.78100  0.69270  Biso   1.000  H
  H107     1.0000 0.03100  0.83490  0.78960  Biso   1.000  H
  H108     1.0000 0.18950  0.68560  0.66800  Biso   1.000  H
  H109     1.0000 0.58000  0.43050  0.30290  Biso   1.000  H
  H110     1.0000 0.68880  0.42140  0.25450  Biso   1.000  H
  H111     1.0000 0.50530  0.54670  0.35540  Biso   1.000  H
  H112     1.0000 0.42830  0.30730  0.21900  Biso   1.000  H
  H113     1.0000 0.46900  0.21040  0.16510  Biso   1.000  H
  H114     1.0000 0.31050  0.33200  0.31440  Biso   1.000  H
  H115     1.0000 0.58000  0.69710  0.12760  Biso   1.000  H
  H116     1.0000 0.68880  0.74550  0.16690  Biso   1.000  H
  H117     1.0000 0.50530  0.64460  0.19130  Biso   1.000  H
  H118     1.0000 0.42830  0.78100  0.08830  Biso   1.000  H
  H119     1.0000 0.46900  0.83490  0.04530  Biso   1.000  H
  H120     1.0000 0.31050  0.68560  0.01760  Biso   1.000  H
  H121     1.0000 0.58000  0.87240  0.56950  Biso   1.000  H
  H122     1.0000 0.68880  0.83310  0.57860  Biso   1.000  H
  H123     1.0000 0.50530  0.80870  0.45330  Biso   1.000  H
  H124     1.0000 0.42830  0.91170  0.69270  Biso   1.000  H
  H125     1.0000 0.46900  0.95470  0.78960  Biso   1.000  H
  H126     1.0000 0.31050  0.98240  0.66800  Biso   1.000  H
  H127     1.0000 0.08000  0.56950  0.69710  Biso   1.000  H
  H128     1.0000 0.18880  0.57860  0.74550  Biso   1.000  H
  H129     1.0000 0.00530  0.45330  0.64460  Biso   1.000  H
  H130     1.0000 0.92830  0.69270  0.78100  Biso   1.000  H
  H131     1.0000 0.96900  0.78960  0.83490  Biso   1.000  H
  H132     1.0000 0.81050  0.66800  0.68560  Biso   1.000  H
  H133     1.0000 0.08000  0.30290  0.87240  Biso   1.000  H
  H134     1.0000 0.18880  0.25450  0.83310  Biso   1.000  H
  H135     1.0000 0.00530  0.35540  0.80870  Biso   1.000  H
  H136     1.0000 0.92830  0.21900  0.91170  Biso   1.000  H
  H137     1.0000 0.96900  0.16510  0.95470  Biso   1.000  H
  H138     1.0000 0.81050  0.31440  0.98240  Biso   1.000  H
  H139     1.0000 0.08000  0.12760  0.43050  Biso   1.000  H
  H140     1.0000 0.18880  0.16690  0.42140  Biso   1.000  H
  H141     1.0000 0.00530  0.19130  0.54670  Biso   1.000  H
  H142     1.0000 0.92830  0.08830  0.30730  Biso   1.000  H
  H143     1.0000 0.96900  0.04530  0.21040  Biso   1.000  H
  H144     1.0000 0.81050  0.01760  0.33200  Biso   1.000  H
  H145     1.0000 0.36260  0.77895  0.22105  Biso   1.000  H
  H146     1.0000 0.36260  0.44210  0.22105  Biso   1.000  H
  H147     1.0000 0.36260  0.77895  0.55790  Biso   1.000  H
  H148     1.0000 0.86260  0.22105  0.77895  Biso   1.000  H
  H149     1.0000 0.86260  0.55790  0.77895  Biso   1.000  H
  H150     1.0000 0.86260  0.22105  0.44210  Biso   1.000  H
  H151     1.0000 0.63740  0.55790  0.77895  Biso   1.000  H
  H152     1.0000 0.63740  0.22105  0.77895  Biso   1.000  H
  H153     1.0000 0.63740  0.22105  0.44210  Biso   1.000  H
  H154     1.0000 0.13740  0.44210  0.22105  Biso   1.000  H
  H155     1.0000 0.13740  0.77895  0.22105  Biso   1.000  H
  H156     1.0000 0.13740  0.77895  0.55790  Biso   1.000  H
  H157     1.0000 0.50000  0.00000  0.41960  Biso   1.000  H
  H158     1.0000 0.50000  0.41960  0.00000  Biso   1.000  H
  H159     1.0000 0.50000  0.58040  0.58040  Biso   1.000  H
  H160     1.0000 0.00000  0.00000  0.58040  Biso   1.000  H
  H161     1.0000 0.00000  0.58040  0.00000  Biso   1.000  H
  H162     1.0000 0.00000  0.41960  0.41960  Biso   1.000  H
  H163     1.0000 0.50000  0.00000  0.58040  Biso   1.000  H
  H164     1.0000 0.50000  0.58040  0.00000  Biso   1.000  H
  H165     1.0000 0.50000  0.41960  0.41960  Biso   1.000  H
  H166     1.0000 0.00000  0.00000  0.41960  Biso   1.000  H
  H167     1.0000 0.00000  0.41960  0.00000  Biso   1.000  H
  H168     1.0000 0.00000  0.58040  0.58040  Biso   1.000  H
  C1       1.0000 0.51500  0.81020  0.24190  Biso   1.000  C
  C2       1.0000 0.57990  0.83740  0.26650  Biso   1.000  C
  C3       1.0000 0.64450  0.81370  0.23830  Biso   1.000  C
  C4       1.0000 0.48200  0.83670  0.38990  Biso   1.000  C
  C5       1.0000 0.47900  0.97290  0.29540  Biso   1.000  C
  C6       1.0000 0.45700  0.94590  0.23640  Biso   1.000  C
  C7       1.0000 0.47990  0.97270  0.20530  Biso   1.000  C
  C8       1.0000 0.28040  0.95440  0.31610  Biso   1.000  C
  C9       1.0000 0.51500  0.43170  0.18980  Biso   1.000  C
  C10      1.0000 0.57990  0.42910  0.16260  Biso   1.000  C
  C11      1.0000 0.64450  0.42460  0.18630  Biso   1.000  C
  C12      1.0000 0.48200  0.55320  0.16330  Biso   1.000  C
  C13      1.0000 0.47900  0.32250  0.02710  Biso   1.000  C
  C14      1.0000 0.45700  0.29050  0.05410  Biso   1.000  C
  C15      1.0000 0.47990  0.23260  0.02730  Biso   1.000  C
  C16      1.0000 0.28040  0.36170  0.04560  Biso   1.000  C
  C17      1.0000 0.51500  0.75810  0.56830  Biso   1.000  C
  C18      1.0000 0.57990  0.73350  0.57090  Biso   1.000  C
  C19      1.0000 0.64450  0.76170  0.57540  Biso   1.000  C
  C20      1.0000 0.48200  0.61010  0.44680  Biso   1.000  C
  C21      1.0000 0.47900  0.70460  0.67750  Biso   1.000  C
  C22      1.0000 0.45700  0.76360  0.70950  Biso   1.000  C
  C23      1.0000 0.47990  0.79470  0.76740  Biso   1.000  C
  C24      1.0000 0.28040  0.68390  0.63830  Biso   1.000  C
  C25      1.0000 0.01500  0.18980  0.75810  Biso   1.000  C
  C26      1.0000 0.07990  0.16260  0.73350  Biso   1.000  C
  C27      1.0000 0.14450  0.18630  0.76170  Biso   1.000  C
  C28      1.0000 0.98200  0.16330  0.61010  Biso   1.000  C
  C29      1.0000 0.97900  0.02710  0.70460  Biso   1.000  C
  C30      1.0000 0.95700  0.05410  0.76360  Biso   1.000  C
  C31      1.0000 0.97990  0.02730  0.79470  Biso   1.000  C
  C32      1.0000 0.78040  0.04560  0.68390  Biso   1.000  C
  C33      1.0000 0.01500  0.56830  0.81020  Biso   1.000  C
  C34      1.0000 0.07990  0.57090  0.83740  Biso   1.000  C
  C35      1.0000 0.14450  0.57540  0.81370  Biso   1.000  C
  C36      1.0000 0.98200  0.44680  0.83670  Biso   1.000  C
  C37      1.0000 0.97900  0.67750  0.97290  Biso   1.000  C
  C38      1.0000 0.95700  0.70950  0.94590  Biso   1.000  C
  C39      1.0000 0.97990  0.76740  0.97270  Biso   1.000  C
  C40      1.0000 0.78040  0.63830  0.95440  Biso   1.000  C
  C41      1.0000 0.01500  0.24190  0.43170  Biso   1.000  C
  C42      1.0000 0.07990  0.26650  0.42910  Biso   1.000  C
  C43      1.0000 0.14450  0.23830  0.42460  Biso   1.000  C
  C44      1.0000 0.98200  0.38990  0.55320  Biso   1.000  C
  C45      1.0000 0.97900  0.29540  0.32250  Biso   1.000  C
  C46      1.0000 0.95700  0.23640  0.29050  Biso   1.000  C
  C47      1.0000 0.97990  0.20530  0.23260  Biso   1.000  C
  C48      1.0000 0.78040  0.31610  0.36170  Biso   1.000  C
  C49      1.0000 0.48500  0.56830  0.75810  Biso   1.000  C
  C50      1.0000 0.42010  0.57090  0.73350  Biso   1.000  C
  C51      1.0000 0.35550  0.57540  0.76170  Biso   1.000  C
  C52      1.0000 0.51800  0.44680  0.61010  Biso   1.000  C
  C53      1.0000 0.52100  0.67750  0.70460  Biso   1.000  C
  C54      1.0000 0.54300  0.70950  0.76360  Biso   1.000  C
  C55      1.0000 0.52010  0.76740  0.79470  Biso   1.000  C
  C56      1.0000 0.71960  0.63830  0.68390  Biso   1.000  C
  C57      1.0000 0.48500  0.24190  0.81020  Biso   1.000  C
  C58      1.0000 0.42010  0.26650  0.83740  Biso   1.000  C
  C59      1.0000 0.35550  0.23830  0.81370  Biso   1.000  C
  C60      1.0000 0.51800  0.38990  0.83670  Biso   1.000  C
  C61      1.0000 0.52100  0.29540  0.97290  Biso   1.000  C
  C62      1.0000 0.54300  0.23640  0.94590  Biso   1.000  C
  C63      1.0000 0.52010  0.20530  0.97270  Biso   1.000  C
  C64      1.0000 0.71960  0.31610  0.95440  Biso   1.000  C
  C65      1.0000 0.48500  0.18980  0.43170  Biso   1.000  C
  C66      1.0000 0.42010  0.16260  0.42910  Biso   1.000  C
  C67      1.0000 0.35550  0.18630  0.42460  Biso   1.000  C
  C68      1.0000 0.51800  0.16330  0.55320  Biso   1.000  C
  C69      1.0000 0.52100  0.02710  0.32250  Biso   1.000  C
  C70      1.0000 0.54300  0.05410  0.29050  Biso   1.000  C
  C71      1.0000 0.52010  0.02730  0.23260  Biso   1.000  C
  C72      1.0000 0.71960  0.04560  0.36170  Biso   1.000  C
  C73      1.0000 0.98500  0.43170  0.24190  Biso   1.000  C
  C74      1.0000 0.92010  0.42910  0.26650  Biso   1.000  C
  C75      1.0000 0.85550  0.42460  0.23830  Biso   1.000  C
  C76      1.0000 0.01800  0.55320  0.38990  Biso   1.000  C
  C77      1.0000 0.02100  0.32250  0.29540  Biso   1.000  C
  C78      1.0000 0.04300  0.29050  0.23640  Biso   1.000  C
  C79      1.0000 0.02010  0.23260  0.20530  Biso   1.000  C
  C80      1.0000 0.21960  0.36170  0.31610  Biso   1.000  C
  C81      1.0000 0.98500  0.75810  0.18980  Biso   1.000  C
  C82      1.0000 0.92010  0.73350  0.16260  Biso   1.000  C
  C83      1.0000 0.85550  0.76170  0.18630  Biso   1.000  C
  C84      1.0000 0.01800  0.61010  0.16330  Biso   1.000  C
  C85      1.0000 0.02100  0.70460  0.02710  Biso   1.000  C
  C86      1.0000 0.04300  0.76360  0.05410  Biso   1.000  C
  C87      1.0000 0.02010  0.79470  0.02730  Biso   1.000  C
  C88      1.0000 0.21960  0.68390  0.04560  Biso   1.000  C
  C89      1.0000 0.98500  0.81020  0.56830  Biso   1.000  C
  C90      1.0000 0.92010  0.83740  0.57090  Biso   1.000  C
  C91      1.0000 0.85550  0.81370  0.57540  Biso   1.000  C
  C92      1.0000 0.01800  0.83670  0.44680  Biso   1.000  C
  C93      1.0000 0.02100  0.97290  0.67750  Biso   1.000  C
  C94      1.0000 0.04300  0.94590  0.70950  Biso   1.000  C
  C95      1.0000 0.02010  0.97270  0.76740  Biso   1.000  C
  C96      1.0000 0.21960  0.95440  0.63830  Biso   1.000  C
  C97      1.0000 0.48500  0.18980  0.75810  Biso   1.000  C
  C98      1.0000 0.42010  0.16260  0.73350  Biso   1.000  C
  C99      1.0000 0.35550  0.18630  0.76170  Biso   1.000  C
  C100     1.0000 0.51800  0.16330  0.61010  Biso   1.000  C
  C101     1.0000 0.52100  0.02710  0.70460  Biso   1.000  C
  C102     1.0000 0.54300  0.05410  0.76360  Biso   1.000  C
  C103     1.0000 0.52010  0.02730  0.79470  Biso   1.000  C
  C104     1.0000 0.71960  0.04560  0.68390  Biso   1.000  C
  C105     1.0000 0.48500  0.56830  0.81020  Biso   1.000  C
  C106     1.0000 0.42010  0.57090  0.83740  Biso   1.000  C
  C107     1.0000 0.35550  0.57540  0.81370  Biso   1.000  C
  C108     1.0000 0.51800  0.44680  0.83670  Biso   1.000  C
  C109     1.0000 0.52100  0.67750  0.97290  Biso   1.000  C
  C110     1.0000 0.54300  0.70950  0.94590  Biso   1.000  C
  C111     1.0000 0.52010  0.76740  0.97270  Biso   1.000  C
  C112     1.0000 0.71960  0.63830  0.95440  Biso   1.000  C
  C113     1.0000 0.48500  0.24190  0.43170  Biso   1.000  C
  C114     1.0000 0.42010  0.26650  0.42910  Biso   1.000  C
  C115     1.0000 0.35550  0.23830  0.42460  Biso   1.000  C
  C116     1.0000 0.51800  0.38990  0.55320  Biso   1.000  C
  C117     1.0000 0.52100  0.29540  0.32250  Biso   1.000  C
  C118     1.0000 0.54300  0.23640  0.29050  Biso   1.000  C
  C119     1.0000 0.52010  0.20530  0.23260  Biso   1.000  C
  C120     1.0000 0.71960  0.31610  0.36170  Biso   1.000  C
  C121     1.0000 0.98500  0.81020  0.24190  Biso   1.000  C
  C122     1.0000 0.92010  0.83740  0.26650  Biso   1.000  C
  C123     1.0000 0.85550  0.81370  0.23830  Biso   1.000  C
  C124     1.0000 0.01800  0.83670  0.38990  Biso   1.000  C
  C125     1.0000 0.02100  0.97290  0.29540  Biso   1.000  C
  C126     1.0000 0.04300  0.94590  0.23640  Biso   1.000  C
  C127     1.0000 0.02010  0.97270  0.20530  Biso   1.000  C
  C128     1.0000 0.21960  0.95440  0.31610  Biso   1.000  C
  C129     1.0000 0.98500  0.43170  0.18980  Biso   1.000  C
  C130     1.0000 0.92010  0.42910  0.16260  Biso   1.000  C
  C131     1.0000 0.85550  0.42460  0.18630  Biso   1.000  C
  C132     1.0000 0.01800  0.55320  0.16330  Biso   1.000  C
  C133     1.0000 0.02100  0.32250  0.02710  Biso   1.000  C
  C134     1.0000 0.04300  0.29050  0.05410  Biso   1.000  C
  C135     1.0000 0.02010  0.23260  0.02730  Biso   1.000  C
  C136     1.0000 0.21960  0.36170  0.04560  Biso   1.000  C
  C137     1.0000 0.98500  0.75810  0.56830  Biso   1.000  C
  C138     1.0000 0.92010  0.73350  0.57090  Biso   1.000  C
  C139     1.0000 0.85550  0.76170  0.57540  Biso   1.000  C
  C140     1.0000 0.01800  0.61010  0.44680  Biso   1.000  C
  C141     1.0000 0.02100  0.70460  0.67750  Biso   1.000  C
  C142     1.0000 0.04300  0.76360  0.70950  Biso   1.000  C
  C143     1.0000 0.02010  0.79470  0.76740  Biso   1.000  C
  C144     1.0000 0.21960  0.68390  0.63830  Biso   1.000  C
  C145     1.0000 0.51500  0.43170  0.24190  Biso   1.000  C
  C146     1.0000 0.57990  0.42910  0.26650  Biso   1.000  C
  C147     1.0000 0.64450  0.42460  0.23830  Biso   1.000  C
  C148     1.0000 0.48200  0.55320  0.38990  Biso   1.000  C
  C149     1.0000 0.47900  0.32250  0.29540  Biso   1.000  C
  C150     1.0000 0.45700  0.29050  0.23640  Biso   1.000  C
  C151     1.0000 0.47990  0.23260  0.20530  Biso   1.000  C
  C152     1.0000 0.28040  0.36170  0.31610  Biso   1.000  C
  C153     1.0000 0.51500  0.75810  0.18980  Biso   1.000  C
  C154     1.0000 0.57990  0.73350  0.16260  Biso   1.000  C
  C155     1.0000 0.64450  0.76170  0.18630  Biso   1.000  C
  C156     1.0000 0.48200  0.61010  0.16330  Biso   1.000  C
  C157     1.0000 0.47900  0.70460  0.02710  Biso   1.000  C
  C158     1.0000 0.45700  0.76360  0.05410  Biso   1.000  C
  C159     1.0000 0.47990  0.79470  0.02730  Biso   1.000  C
  C160     1.0000 0.28040  0.68390  0.04560  Biso   1.000  C
  C161     1.0000 0.51500  0.81020  0.56830  Biso   1.000  C
  C162     1.0000 0.57990  0.83740  0.57090  Biso   1.000  C
  C163     1.0000 0.64450  0.81370  0.57540  Biso   1.000  C
  C164     1.0000 0.48200  0.83670  0.44680  Biso   1.000  C
  C165     1.0000 0.47900  0.97290  0.67750  Biso   1.000  C
  C166     1.0000 0.45700  0.94590  0.70950  Biso   1.000  C
  C167     1.0000 0.47990  0.97270  0.76740  Biso   1.000  C
  C168     1.0000 0.28040  0.95440  0.63830  Biso   1.000  C
  C169     1.0000 0.01500  0.56830  0.75810  Biso   1.000  C
  C170     1.0000 0.07990  0.57090  0.73350  Biso   1.000  C
  C171     1.0000 0.14450  0.57540  0.76170  Biso   1.000  C
  C172     1.0000 0.98200  0.44680  0.61010  Biso   1.000  C
  C173     1.0000 0.97900  0.67750  0.70460  Biso   1.000  C
  C174     1.0000 0.95700  0.70950  0.76360  Biso   1.000  C
  C175     1.0000 0.97990  0.76740  0.79470  Biso   1.000  C
  C176     1.0000 0.78040  0.63830  0.68390  Biso   1.000  C
  C177     1.0000 0.01500  0.24190  0.81020  Biso   1.000  C
  C178     1.0000 0.07990  0.26650  0.83740  Biso   1.000  C
  C179     1.0000 0.14450  0.23830  0.81370  Biso   1.000  C
  C180     1.0000 0.98200  0.38990  0.83670  Biso   1.000  C
  C181     1.0000 0.97900  0.29540  0.97290  Biso   1.000  C
  C182     1.0000 0.95700  0.23640  0.94590  Biso   1.000  C
  C183     1.0000 0.97990  0.20530  0.97270  Biso   1.000  C
  C184     1.0000 0.78040  0.31610  0.95440  Biso   1.000  C
  C185     1.0000 0.01500  0.18980  0.43170  Biso   1.000  C
  C186     1.0000 0.07990  0.16260  0.42910  Biso   1.000  C
  C187     1.0000 0.14450  0.18630  0.42460  Biso   1.000  C
  C188     1.0000 0.98200  0.16330  0.55320  Biso   1.000  C
  C189     1.0000 0.97900  0.02710  0.32250  Biso   1.000  C
  C190     1.0000 0.95700  0.05410  0.29050  Biso   1.000  C
  C191     1.0000 0.97990  0.02730  0.23260  Biso   1.000  C
  C192     1.0000 0.78040  0.04560  0.36170  Biso   1.000  C
  C193     1.0000 0.41380  0.78055  0.21945  Biso   1.000  C
  C194     1.0000 0.41380  0.43890  0.21945  Biso   1.000  C
  C195     1.0000 0.41380  0.78055  0.56110  Biso   1.000  C
  C196     1.0000 0.91380  0.21945  0.78055  Biso   1.000  C
  C197     1.0000 0.91380  0.56110  0.78055  Biso   1.000  C
  C198     1.0000 0.91380  0.21945  0.43890  Biso   1.000  C
  C199     1.0000 0.58620  0.56110  0.78055  Biso   1.000  C
  C200     1.0000 0.58620  0.21945  0.78055  Biso   1.000  C
  C201     1.0000 0.58620  0.21945  0.43890  Biso   1.000  C
  C202     1.0000 0.08620  0.43890  0.21945  Biso   1.000  C
  C203     1.0000 0.08620  0.78055  0.21945  Biso   1.000  C
  C204     1.0000 0.08620  0.78055  0.56110  Biso   1.000  C
  C205     1.0000 0.42230  0.90460  0.45230  Biso   1.000  C
  C206     1.0000 0.42230  0.54770  0.09540  Biso   1.000  C
  C207     1.0000 0.42230  0.54770  0.45230  Biso   1.000  C
  C208     1.0000 0.92230  0.09540  0.54770  Biso   1.000  C
  C209     1.0000 0.92230  0.45230  0.90460  Biso   1.000  C
  C210     1.0000 0.92230  0.45230  0.54770  Biso   1.000  C
  C211     1.0000 0.57770  0.45230  0.54770  Biso   1.000  C
  C212     1.0000 0.57770  0.45230  0.90460  Biso   1.000  C
  C213     1.0000 0.57770  0.09540  0.54770  Biso   1.000  C
  C214     1.0000 0.07770  0.54770  0.45230  Biso   1.000  C
  C215     1.0000 0.07770  0.54770  0.09540  Biso   1.000  C
  C216     1.0000 0.07770  0.90460  0.45230  Biso   1.000  C
  C217     1.0000 0.50000  0.00000  0.38390  Biso   1.000  C
  C218     1.0000 0.50000  0.38390  0.00000  Biso   1.000  C
  C219     1.0000 0.50000  0.61610  0.61610  Biso   1.000  C
  C220     1.0000 0.00000  0.00000  0.61610  Biso   1.000  C
  C221     1.0000 0.00000  0.61610  0.00000  Biso   1.000  C
  C222     1.0000 0.00000  0.38390  0.38390  Biso   1.000  C
  C223     1.0000 0.50000  0.00000  0.61610  Biso   1.000  C
  C224     1.0000 0.50000  0.61610  0.00000  Biso   1.000  C
  C225     1.0000 0.50000  0.38390  0.38390  Biso   1.000  C
  C226     1.0000 0.00000  0.00000  0.38390  Biso   1.000  C
  C227     1.0000 0.00000  0.38390  0.00000  Biso   1.000  C
  C228     1.0000 0.00000  0.61610  0.61610  Biso   1.000  C
  C229     1.0000 0.25000  0.87390  0.32170  Biso   1.000  C
  C230     1.0000 0.25000  0.44780  0.12610  Biso   1.000  C
  C231     1.0000 0.25000  0.67830  0.55220  Biso   1.000  C
  C232     1.0000 0.75000  0.12610  0.67830  Biso   1.000  C
  C233     1.0000 0.75000  0.55220  0.87390  Biso   1.000  C
  C234     1.0000 0.75000  0.32170  0.44780  Biso   1.000  C
  C235     1.0000 0.75000  0.55220  0.67830  Biso   1.000  C
  C236     1.0000 0.75000  0.32170  0.87390  Biso   1.000  C
  C237     1.0000 0.75000  0.12610  0.44780  Biso   1.000  C
  C238     1.0000 0.25000  0.44780  0.32170  Biso   1.000  C
  C239     1.0000 0.25000  0.67830  0.12610  Biso   1.000  C
  C240     1.0000 0.25000  0.87390  0.55220  Biso   1.000  C
  N1       1.0000 0.45050  0.82340  0.26000  Biso   1.000  N
  N2       1.0000 0.44710  0.87860  0.39520  Biso   1.000  N
  N3       1.0000 0.46600  0.95630  0.33790  Biso   1.000  N
  N4       1.0000 0.30480  0.90420  0.31920  Biso   1.000  N
  N5       1.0000 0.45050  0.43660  0.17660  Biso   1.000  N
  N6       1.0000 0.44710  0.51660  0.12140  Biso   1.000  N
  N7       1.0000 0.46600  0.38160  0.04370  Biso   1.000  N
  N8       1.0000 0.30480  0.41500  0.09580  Biso   1.000  N
  N9       1.0000 0.45050  0.74000  0.56340  Biso   1.000  N
  N10      1.0000 0.44710  0.60480  0.48340  Biso   1.000  N
  N11      1.0000 0.46600  0.66210  0.61840  Biso   1.000  N
  N12      1.0000 0.30480  0.68080  0.58500  Biso   1.000  N
  N13      1.0000 0.95050  0.17660  0.74000  Biso   1.000  N
  N14      1.0000 0.94710  0.12140  0.60480  Biso   1.000  N
  N15      1.0000 0.96600  0.04370  0.66210  Biso   1.000  N
  N16      1.0000 0.80480  0.09580  0.68080  Biso   1.000  N
  N17      1.0000 0.95050  0.56340  0.82340  Biso   1.000  N
  N18      1.0000 0.94710  0.48340  0.87860  Biso   1.000  N
  N19      1.0000 0.96600  0.61840  0.95630  Biso   1.000  N
  N20      1.0000 0.80480  0.58500  0.90420  Biso   1.000  N
  N21      1.0000 0.95050  0.26000  0.43660  Biso   1.000  N
  N22      1.0000 0.94710  0.39520  0.51660  Biso   1.000  N
  N23      1.0000 0.96600  0.33790  0.38160  Biso   1.000  N
  N24      1.0000 0.80480  0.31920  0.41500  Biso   1.000  N
  N25      1.0000 0.54950  0.56340  0.74000  Biso   1.000  N
  N26      1.0000 0.55290  0.48340  0.60480  Biso   1.000  N
  N27      1.0000 0.53400  0.61840  0.66210  Biso   1.000  N
  N28      1.0000 0.69520  0.58500  0.68080  Biso   1.000  N
  N29      1.0000 0.54950  0.26000  0.82340  Biso   1.000  N
  N30      1.0000 0.55290  0.39520  0.87860  Biso   1.000  N
  N31      1.0000 0.53400  0.33790  0.95630  Biso   1.000  N
  N32      1.0000 0.69520  0.31920  0.90420  Biso   1.000  N
  N33      1.0000 0.54950  0.17660  0.43660  Biso   1.000  N
  N34      1.0000 0.55290  0.12140  0.51660  Biso   1.000  N
  N35      1.0000 0.53400  0.04370  0.38160  Biso   1.000  N
  N36      1.0000 0.69520  0.09580  0.41500  Biso   1.000  N
  N37      1.0000 0.04950  0.43660  0.26000  Biso   1.000  N
  N38      1.0000 0.05290  0.51660  0.39520  Biso   1.000  N
  N39      1.0000 0.03400  0.38160  0.33790  Biso   1.000  N
  N40      1.0000 0.19520  0.41500  0.31920  Biso   1.000  N
  N41      1.0000 0.04950  0.74000  0.17660  Biso   1.000  N
  N42      1.0000 0.05290  0.60480  0.12140  Biso   1.000  N
  N43      1.0000 0.03400  0.66210  0.04370  Biso   1.000  N
  N44      1.0000 0.19520  0.68080  0.09580  Biso   1.000  N
  N45      1.0000 0.04950  0.82340  0.56340  Biso   1.000  N
  N46      1.0000 0.05290  0.87860  0.48340  Biso   1.000  N
  N47      1.0000 0.03400  0.95630  0.61840  Biso   1.000  N
  N48      1.0000 0.19520  0.90420  0.58500  Biso   1.000  N
  N49      1.0000 0.54950  0.17660  0.74000  Biso   1.000  N
  N50      1.0000 0.55290  0.12140  0.60480  Biso   1.000  N
  N51      1.0000 0.53400  0.04370  0.66210  Biso   1.000  N
  N52      1.0000 0.69520  0.09580  0.68080  Biso   1.000  N
  N53      1.0000 0.54950  0.56340  0.82340  Biso   1.000  N
  N54      1.0000 0.55290  0.48340  0.87860  Biso   1.000  N
  N55      1.0000 0.53400  0.61840  0.95630  Biso   1.000  N
  N56      1.0000 0.69520  0.58500  0.90420  Biso   1.000  N
  N57      1.0000 0.54950  0.26000  0.43660  Biso   1.000  N
  N58      1.0000 0.55290  0.39520  0.51660  Biso   1.000  N
  N59      1.0000 0.53400  0.33790  0.38160  Biso   1.000  N
  N60      1.0000 0.69520  0.31920  0.41500  Biso   1.000  N
  N61      1.0000 0.04950  0.82340  0.26000  Biso   1.000  N
  N62      1.0000 0.05290  0.87860  0.39520  Biso   1.000  N
  N63      1.0000 0.03400  0.95630  0.33790  Biso   1.000  N
  N64      1.0000 0.19520  0.90420  0.31920  Biso   1.000  N
  N65      1.0000 0.04950  0.43660  0.17660  Biso   1.000  N
  N66      1.0000 0.05290  0.51660  0.12140  Biso   1.000  N
  N67      1.0000 0.03400  0.38160  0.04370  Biso   1.000  N
  N68      1.0000 0.19520  0.41500  0.09580  Biso   1.000  N
  N69      1.0000 0.04950  0.74000  0.56340  Biso   1.000  N
  N70      1.0000 0.05290  0.60480  0.48340  Biso   1.000  N
  N71      1.0000 0.03400  0.66210  0.61840  Biso   1.000  N
  N72      1.0000 0.19520  0.68080  0.58500  Biso   1.000  N
  N73      1.0000 0.45050  0.43660  0.26000  Biso   1.000  N
  N74      1.0000 0.44710  0.51660  0.39520  Biso   1.000  N
  N75      1.0000 0.46600  0.38160  0.33790  Biso   1.000  N
  N76      1.0000 0.30480  0.41500  0.31920  Biso   1.000  N
  N77      1.0000 0.45050  0.74000  0.17660  Biso   1.000  N
  N78      1.0000 0.44710  0.60480  0.12140  Biso   1.000  N
  N79      1.0000 0.46600  0.66210  0.04370  Biso   1.000  N
  N80      1.0000 0.30480  0.68080  0.09580  Biso   1.000  N
  N81      1.0000 0.45050  0.82340  0.56340  Biso   1.000  N
  N82      1.0000 0.44710  0.87860  0.48340  Biso   1.000  N
  N83      1.0000 0.46600  0.95630  0.61840  Biso   1.000  N
  N84      1.0000 0.30480  0.90420  0.58500  Biso   1.000  N
  N85      1.0000 0.95050  0.56340  0.74000  Biso   1.000  N
  N86      1.0000 0.94710  0.48340  0.60480  Biso   1.000  N
  N87      1.0000 0.96600  0.61840  0.66210  Biso   1.000  N
  N88      1.0000 0.80480  0.58500  0.68080  Biso   1.000  N
  N89      1.0000 0.95050  0.26000  0.82340  Biso   1.000  N
  N90      1.0000 0.94710  0.39520  0.87860  Biso   1.000  N
  N91      1.0000 0.96600  0.33790  0.95630  Biso   1.000  N
  N92      1.0000 0.80480  0.31920  0.90420  Biso   1.000  N
  N93      1.0000 0.95050  0.17660  0.43660  Biso   1.000  N
  N94      1.0000 0.94710  0.12140  0.51660  Biso   1.000  N
  N95      1.0000 0.96600  0.04370  0.38160  Biso   1.000  N
  N96      1.0000 0.80480  0.09580  0.41500  Biso   1.000  N
  N97      1.0000 0.38640  0.94970  0.47485  Biso   1.000  N
  N98      1.0000 0.38640  0.52515  0.05030  Biso   1.000  N
  N99      1.0000 0.38640  0.52515  0.47485  Biso   1.000  N
  N100     1.0000 0.88640  0.05030  0.52515  Biso   1.000  N
  N101     1.0000 0.88640  0.47485  0.94970  Biso   1.000  N
  N102     1.0000 0.88640  0.47485  0.52515  Biso   1.000  N
  N103     1.0000 0.61360  0.47485  0.52515  Biso   1.000  N
  N104     1.0000 0.61360  0.47485  0.94970  Biso   1.000  N
  N105     1.0000 0.61360  0.05030  0.52515  Biso   1.000  N
  N106     1.0000 0.11360  0.52515  0.47485  Biso   1.000  N
  N107     1.0000 0.11360  0.52515  0.05030  Biso   1.000  N
  N108     1.0000 0.11360  0.94970  0.47485  Biso   1.000  N
  N109     1.0000 0.25000  0.82890  0.32490  Biso   1.000  N
  N110     1.0000 0.25000  0.49600  0.17110  Biso   1.000  N
  N111     1.0000 0.25000  0.67510  0.50400  Biso   1.000  N
  N112     1.0000 0.75000  0.17110  0.67510  Biso   1.000  N
  N113     1.0000 0.75000  0.50400  0.82890  Biso   1.000  N
  N114     1.0000 0.75000  0.32490  0.49600  Biso   1.000  N
  N115     1.0000 0.75000  0.50400  0.67510  Biso   1.000  N
  N116     1.0000 0.75000  0.32490  0.82890  Biso   1.000  N
  N117     1.0000 0.75000  0.17110  0.49600  Biso   1.000  N
  N118     1.0000 0.25000  0.49600  0.32490  Biso   1.000  N
  N119     1.0000 0.25000  0.67510  0.17110  Biso   1.000  N
  N120     1.0000 0.25000  0.82890  0.50400  Biso   1.000  N
  O1       1.0000 0.37550  0.97320  0.44490  Biso   1.000  O
  O2       1.0000 0.30580  0.81210  0.32790  Biso   1.000  O
  O3       1.0000 0.37550  0.47170  0.02680  Biso   1.000  O
  O4       1.0000 0.30580  0.51580  0.18790  Biso   1.000  O
  O5       1.0000 0.37550  0.55510  0.52830  Biso   1.000  O
  O6       1.0000 0.30580  0.67210  0.48420  Biso   1.000  O
  O7       1.0000 0.87550  0.02680  0.55510  Biso   1.000  O
  O8       1.0000 0.80580  0.18790  0.67210  Biso   1.000  O
  O9       1.0000 0.87550  0.52830  0.97320  Biso   1.000  O
  O10      1.0000 0.80580  0.48420  0.81210  Biso   1.000  O
  O11      1.0000 0.87550  0.44490  0.47170  Biso   1.000  O
  O12      1.0000 0.80580  0.32790  0.51580  Biso   1.000  O
  O13      1.0000 0.62450  0.52830  0.55510  Biso   1.000  O
  O14      1.0000 0.69420  0.48420  0.67210  Biso   1.000  O
  O15      1.0000 0.62450  0.44490  0.97320  Biso   1.000  O
  O16      1.0000 0.69420  0.32790  0.81210  Biso   1.000  O
  O17      1.0000 0.62450  0.02680  0.47170  Biso   1.000  O
  O18      1.0000 0.69420  0.18790  0.51580  Biso   1.000  O
  O19      1.0000 0.12450  0.47170  0.44490  Biso   1.000  O
  O20      1.0000 0.19420  0.51580  0.32790  Biso   1.000  O
  O21      1.0000 0.12450  0.55510  0.02680  Biso   1.000  O
  O22      1.0000 0.19420  0.67210  0.18790  Biso   1.000  O
  O23      1.0000 0.12450  0.97320  0.52830  Biso   1.000  O
  O24      1.0000 0.19420  0.81210  0.48420  Biso   1.000  O
  O25      1.0000 0.62450  0.02680  0.55510  Biso   1.000  O
  O26      1.0000 0.69420  0.18790  0.67210  Biso   1.000  O
  O27      1.0000 0.62450  0.52830  0.97320  Biso   1.000  O
  O28      1.0000 0.69420  0.48420  0.81210  Biso   1.000  O
  O29      1.0000 0.62450  0.44490  0.47170  Biso   1.000  O
  O30      1.0000 0.69420  0.32790  0.51580  Biso   1.000  O
  O31      1.0000 0.12450  0.97320  0.44490  Biso   1.000  O
  O32      1.0000 0.19420  0.81210  0.32790  Biso   1.000  O
  O33      1.0000 0.12450  0.47170  0.02680  Biso   1.000  O
  O34      1.0000 0.19420  0.51580  0.18790  Biso   1.000  O
  O35      1.0000 0.12450  0.55510  0.52830  Biso   1.000  O
  O36      1.0000 0.19420  0.67210  0.48420  Biso   1.000  O
  O37      1.0000 0.37550  0.47170  0.44490  Biso   1.000  O
  O38      1.0000 0.30580  0.51580  0.32790  Biso   1.000  O
  O39      1.0000 0.37550  0.55510  0.02680  Biso   1.000  O
  O40      1.0000 0.30580  0.67210  0.18790  Biso   1.000  O
  O41      1.0000 0.37550  0.97320  0.52830  Biso   1.000  O
  O42      1.0000 0.30580  0.81210  0.48420  Biso   1.000  O
  O43      1.0000 0.87550  0.52830  0.55510  Biso   1.000  O
  O44      1.0000 0.80580  0.48420  0.67210  Biso   1.000  O
  O45      1.0000 0.87550  0.44490  0.97320  Biso   1.000  O
  O46      1.0000 0.80580  0.32790  0.81210  Biso   1.000  O
  O47      1.0000 0.87550  0.02680  0.47170  Biso   1.000  O
  O48      1.0000 0.80580  0.18790  0.51580  Biso   1.000  O
