data_image0
_cell_length_a       18.0208
_cell_length_b       27.0111
_cell_length_c       27.0111
_cell_angle_alpha    120
_cell_angle_beta     90
_cell_angle_gamma    90

_symmetry_space_group_name_H-M    P 1
_symmetry_int_tables_number       1

loop_
  _symmetry_equiv_pos_as_xyz
  'x, y, z'

loop_
  _atom_site_label
  _atom_site_occupancy
  _atom_site_fract_x
  _atom_site_fract_y
  _atom_site_fract_z
  _atom_site_thermal_displace_type
  _atom_site_B_iso_or_equiv
  _atom_site_type_symbol
  Zn1      1.0000 0.57966  0.33278  0.44352  Biso   1.000  Zn
  Zn2      1.0000 0.57966  0.11074  0.66722  Biso   1.000  Zn
  Zn3      1.0000 0.57966  0.55648  0.88926  Biso   1.000  Zn
  Zn4      1.0000 0.07966  0.66722  0.55648  Biso   1.000  Zn
  Zn5      1.0000 0.07966  0.88926  0.33278  Biso   1.000  Zn
  Zn6      1.0000 0.07966  0.44352  0.11074  Biso   1.000  Zn
  Zn7      1.0000 0.42034  0.88926  0.55648  Biso   1.000  Zn
  Zn8      1.0000 0.42034  0.44352  0.33278  Biso   1.000  Zn
  Zn9      1.0000 0.42034  0.66722  0.11074  Biso   1.000  Zn
  Zn10     1.0000 0.92034  0.11074  0.44352  Biso   1.000  Zn
  Zn11     1.0000 0.92034  0.55648  0.66722  Biso   1.000  Zn
  Zn12     1.0000 0.92034  0.33278  0.88926  Biso   1.000  Zn
  Zn13     1.0000 0.42034  0.66722  0.55648  Biso   1.000  Zn
  Zn14     1.0000 0.42034  0.88926  0.33278  Biso   1.000  Zn
  Zn15     1.0000 0.42034  0.44352  0.11074  Biso   1.000  Zn
  Zn16     1.0000 0.92034  0.33278  0.44352  Biso   1.000  Zn
  Zn17     1.0000 0.92034  0.11074  0.66722  Biso   1.000  Zn
  Zn18     1.0000 0.92034  0.55648  0.88926  Biso   1.000  Zn
  Zn19     1.0000 0.57966  0.11074  0.44352  Biso   1.000  Zn
  Zn20     1.0000 0.57966  0.55648  0.66722  Biso   1.000  Zn
  Zn21     1.0000 0.57966  0.33278  0.88926  Biso   1.000  Zn
  Zn22     1.0000 0.07966  0.88926  0.55648  Biso   1.000  Zn
  Zn23     1.0000 0.07966  0.44352  0.33278  Biso   1.000  Zn
  Zn24     1.0000 0.07966  0.66722  0.11074  Biso   1.000  Zn
  H1       1.0000 0.44520  0.24470  0.39810  Biso   1.000  H
  H2       1.0000 0.68210  0.33190  0.34730  Biso   1.000  H
  H3       1.0000 0.43200  0.40130  0.50890  Biso   1.000  H
  H4       1.0000 0.53040  0.26200  0.30840  Biso   1.000  H
  H5       1.0000 0.44520  0.15340  0.75530  Biso   1.000  H
  H6       1.0000 0.68210  0.01540  0.66810  Biso   1.000  H
  H7       1.0000 0.43200  0.10760  0.59870  Biso   1.000  H
  H8       1.0000 0.53040  0.04640  0.73800  Biso   1.000  H
  H9       1.0000 0.44520  0.60190  0.84660  Biso   1.000  H
  H10      1.0000 0.68210  0.65270  0.98460  Biso   1.000  H
  H11      1.0000 0.43200  0.49110  0.89240  Biso   1.000  H
  H12      1.0000 0.53040  0.69160  0.95360  Biso   1.000  H
  H13      1.0000 0.94520  0.75530  0.60190  Biso   1.000  H
  H14      1.0000 0.18210  0.66810  0.65270  Biso   1.000  H
  H15      1.0000 0.93200  0.59870  0.49110  Biso   1.000  H
  H16      1.0000 0.03040  0.73800  0.69160  Biso   1.000  H
  H17      1.0000 0.94520  0.84660  0.24470  Biso   1.000  H
  H18      1.0000 0.18210  0.98460  0.33190  Biso   1.000  H
  H19      1.0000 0.93200  0.89240  0.40130  Biso   1.000  H
  H20      1.0000 0.03040  0.95360  0.26200  Biso   1.000  H
  H21      1.0000 0.94520  0.39810  0.15340  Biso   1.000  H
  H22      1.0000 0.18210  0.34730  0.01540  Biso   1.000  H
  H23      1.0000 0.93200  0.50890  0.10760  Biso   1.000  H
  H24      1.0000 0.03040  0.30840  0.04640  Biso   1.000  H
  H25      1.0000 0.55480  0.84660  0.60190  Biso   1.000  H
  H26      1.0000 0.31790  0.98460  0.65270  Biso   1.000  H
  H27      1.0000 0.56800  0.89240  0.49110  Biso   1.000  H
  H28      1.0000 0.46960  0.95360  0.69160  Biso   1.000  H
  H29      1.0000 0.55480  0.39810  0.24470  Biso   1.000  H
  H30      1.0000 0.31790  0.34730  0.33190  Biso   1.000  H
  H31      1.0000 0.56800  0.50890  0.40130  Biso   1.000  H
  H32      1.0000 0.46960  0.30840  0.26200  Biso   1.000  H
  H33      1.0000 0.55480  0.75530  0.15340  Biso   1.000  H
  H34      1.0000 0.31790  0.66810  0.01540  Biso   1.000  H
  H35      1.0000 0.56800  0.59870  0.10760  Biso   1.000  H
  H36      1.0000 0.46960  0.73800  0.04640  Biso   1.000  H
  H37      1.0000 0.05480  0.15340  0.39810  Biso   1.000  H
  H38      1.0000 0.81790  0.01540  0.34730  Biso   1.000  H
  H39      1.0000 0.06800  0.10760  0.50890  Biso   1.000  H
  H40      1.0000 0.96960  0.04640  0.30840  Biso   1.000  H
  H41      1.0000 0.05480  0.60190  0.75530  Biso   1.000  H
  H42      1.0000 0.81790  0.65270  0.66810  Biso   1.000  H
  H43      1.0000 0.06800  0.49110  0.59870  Biso   1.000  H
  H44      1.0000 0.96960  0.69160  0.73800  Biso   1.000  H
  H45      1.0000 0.05480  0.24470  0.84660  Biso   1.000  H
  H46      1.0000 0.81790  0.33190  0.98460  Biso   1.000  H
  H47      1.0000 0.06800  0.40130  0.89240  Biso   1.000  H
  H48      1.0000 0.96960  0.26200  0.95360  Biso   1.000  H
  H49      1.0000 0.55480  0.75530  0.60190  Biso   1.000  H
  H50      1.0000 0.31790  0.66810  0.65270  Biso   1.000  H
  H51      1.0000 0.56800  0.59870  0.49110  Biso   1.000  H
  H52      1.0000 0.46960  0.73800  0.69160  Biso   1.000  H
  H53      1.0000 0.55480  0.84660  0.24470  Biso   1.000  H
  H54      1.0000 0.31790  0.98460  0.33190  Biso   1.000  H
  H55      1.0000 0.56800  0.89240  0.40130  Biso   1.000  H
  H56      1.0000 0.46960  0.95360  0.26200  Biso   1.000  H
  H57      1.0000 0.55480  0.39810  0.15340  Biso   1.000  H
  H58      1.0000 0.31790  0.34730  0.01540  Biso   1.000  H
  H59      1.0000 0.56800  0.50890  0.10760  Biso   1.000  H
  H60      1.0000 0.46960  0.30840  0.04640  Biso   1.000  H
  H61      1.0000 0.05480  0.24470  0.39810  Biso   1.000  H
  H62      1.0000 0.81790  0.33190  0.34730  Biso   1.000  H
  H63      1.0000 0.06800  0.40130  0.50890  Biso   1.000  H
  H64      1.0000 0.96960  0.26200  0.30840  Biso   1.000  H
  H65      1.0000 0.05480  0.15340  0.75530  Biso   1.000  H
  H66      1.0000 0.81790  0.01540  0.66810  Biso   1.000  H
  H67      1.0000 0.06800  0.10760  0.59870  Biso   1.000  H
  H68      1.0000 0.96960  0.04640  0.73800  Biso   1.000  H
  H69      1.0000 0.05480  0.60190  0.84660  Biso   1.000  H
  H70      1.0000 0.81790  0.65270  0.98460  Biso   1.000  H
  H71      1.0000 0.06800  0.49110  0.89240  Biso   1.000  H
  H72      1.0000 0.96960  0.69160  0.95360  Biso   1.000  H
  H73      1.0000 0.44520  0.15340  0.39810  Biso   1.000  H
  H74      1.0000 0.68210  0.01540  0.34730  Biso   1.000  H
  H75      1.0000 0.43200  0.10760  0.50890  Biso   1.000  H
  H76      1.0000 0.53040  0.04640  0.30840  Biso   1.000  H
  H77      1.0000 0.44520  0.60190  0.75530  Biso   1.000  H
  H78      1.0000 0.68210  0.65270  0.66810  Biso   1.000  H
  H79      1.0000 0.43200  0.49110  0.59870  Biso   1.000  H
  H80      1.0000 0.53040  0.69160  0.73800  Biso   1.000  H
  H81      1.0000 0.44520  0.24470  0.84660  Biso   1.000  H
  H82      1.0000 0.68210  0.33190  0.98460  Biso   1.000  H
  H83      1.0000 0.43200  0.40130  0.89240  Biso   1.000  H
  H84      1.0000 0.53040  0.26200  0.95360  Biso   1.000  H
  H85      1.0000 0.94520  0.84660  0.60190  Biso   1.000  H
  H86      1.0000 0.18210  0.98460  0.65270  Biso   1.000  H
  H87      1.0000 0.93200  0.89240  0.49110  Biso   1.000  H
  H88      1.0000 0.03040  0.95360  0.69160  Biso   1.000  H
  H89      1.0000 0.94520  0.39810  0.24470  Biso   1.000  H
  H90      1.0000 0.18210  0.34730  0.33190  Biso   1.000  H
  H91      1.0000 0.93200  0.50890  0.40130  Biso   1.000  H
  H92      1.0000 0.03040  0.30840  0.26200  Biso   1.000  H
  H93      1.0000 0.94520  0.75530  0.15340  Biso   1.000  H
  H94      1.0000 0.18210  0.66810  0.01540  Biso   1.000  H
  H95      1.0000 0.93200  0.59870  0.10760  Biso   1.000  H
  H96      1.0000 0.03040  0.73800  0.04640  Biso   1.000  H
  H97      1.0000 0.62890  0.22340  0.44680  Biso   1.000  H
  H98      1.0000 0.62890  0.22340  0.77660  Biso   1.000  H
  H99      1.0000 0.62890  0.55320  0.77660  Biso   1.000  H
  H100     1.0000 0.12890  0.77660  0.55320  Biso   1.000  H
  H101     1.0000 0.12890  0.77660  0.22340  Biso   1.000  H
  H102     1.0000 0.12890  0.44680  0.22340  Biso   1.000  H
  H103     1.0000 0.37110  0.77660  0.55320  Biso   1.000  H
  H104     1.0000 0.37110  0.44680  0.22340  Biso   1.000  H
  H105     1.0000 0.37110  0.77660  0.22340  Biso   1.000  H
  H106     1.0000 0.87110  0.22340  0.44680  Biso   1.000  H
  H107     1.0000 0.87110  0.55320  0.77660  Biso   1.000  H
  H108     1.0000 0.87110  0.22340  0.77660  Biso   1.000  H
  H109     1.0000 0.62730  0.45385  0.54615  Biso   1.000  H
  H110     1.0000 0.62730  0.09230  0.54615  Biso   1.000  H
  H111     1.0000 0.62730  0.45385  0.90770  Biso   1.000  H
  H112     1.0000 0.12730  0.54615  0.45385  Biso   1.000  H
  H113     1.0000 0.12730  0.90770  0.45385  Biso   1.000  H
  H114     1.0000 0.12730  0.54615  0.09230  Biso   1.000  H
  H115     1.0000 0.37270  0.90770  0.45385  Biso   1.000  H
  H116     1.0000 0.37270  0.54615  0.45385  Biso   1.000  H
  H117     1.0000 0.37270  0.54615  0.09230  Biso   1.000  H
  H118     1.0000 0.87270  0.09230  0.54615  Biso   1.000  H
  H119     1.0000 0.87270  0.45385  0.54615  Biso   1.000  H
  H120     1.0000 0.87270  0.45385  0.90770  Biso   1.000  H
  H121     1.0000 0.50000  0.42150  0.42150  Biso   1.000  H
  H122     1.0000 0.50000  1.00000  0.57850  Biso   1.000  H
  H123     1.0000 0.50000  0.57850  0.00000  Biso   1.000  H
  H124     1.0000 0.00000  0.57850  0.57850  Biso   1.000  H
  H125     1.0000 0.00000  1.00000  0.42150  Biso   1.000  H
  H126     1.0000 0.00000  0.42150  0.00000  Biso   1.000  H
  H127     1.0000 0.50000  0.57850  0.57850  Biso   1.000  H
  H128     1.0000 0.50000  1.00000  0.42150  Biso   1.000  H
  H129     1.0000 0.50000  0.42150  0.00000  Biso   1.000  H
  H130     1.0000 0.00000  0.42150  0.42150  Biso   1.000  H
  H131     1.0000 0.00000  1.00000  0.57850  Biso   1.000  H
  H132     1.0000 0.00000  0.57850  0.00000  Biso   1.000  H
  C1       1.0000 0.48140  0.23250  0.41420  Biso   1.000  C
  C2       1.0000 0.71200  0.33160  0.37520  Biso   1.000  C
  C3       1.0000 0.47360  0.41950  0.53070  Biso   1.000  C
  C4       1.0000 0.51700  0.30039  0.32612  Biso   1.000  C
  C5       1.0000 0.48140  0.18170  0.76750  Biso   1.000  C
  C6       1.0000 0.71200  0.04360  0.66840  Biso   1.000  C
  C7       1.0000 0.47360  0.11120  0.58050  Biso   1.000  C
  C8       1.0000 0.51700  0.02573  0.69961  Biso   1.000  C
  C9       1.0000 0.48140  0.58580  0.81830  Biso   1.000  C
  C10      1.0000 0.71200  0.62480  0.95640  Biso   1.000  C
  C11      1.0000 0.47360  0.46930  0.88880  Biso   1.000  C
  C12      1.0000 0.51700  0.67388  0.97427  Biso   1.000  C
  C13      1.0000 0.98140  0.76750  0.58580  Biso   1.000  C
  C14      1.0000 0.21200  0.66840  0.62480  Biso   1.000  C
  C15      1.0000 0.97360  0.58050  0.46930  Biso   1.000  C
  C16      1.0000 0.01700  0.69961  0.67388  Biso   1.000  C
  C17      1.0000 0.98140  0.81830  0.23250  Biso   1.000  C
  C18      1.0000 0.21200  0.95640  0.33160  Biso   1.000  C
  C19      1.0000 0.97360  0.88880  0.41950  Biso   1.000  C
  C20      1.0000 0.01700  0.97427  0.30039  Biso   1.000  C
  C21      1.0000 0.98140  0.41420  0.18170  Biso   1.000  C
  C22      1.0000 0.21200  0.37520  0.04360  Biso   1.000  C
  C23      1.0000 0.97360  0.53070  0.11120  Biso   1.000  C
  C24      1.0000 0.01700  0.32612  0.02573  Biso   1.000  C
  C25      1.0000 0.51860  0.81830  0.58580  Biso   1.000  C
  C26      1.0000 0.28800  0.95640  0.62480  Biso   1.000  C
  C27      1.0000 0.52640  0.88880  0.46930  Biso   1.000  C
  C28      1.0000 0.48300  0.97427  0.67388  Biso   1.000  C
  C29      1.0000 0.51860  0.41420  0.23250  Biso   1.000  C
  C30      1.0000 0.28800  0.37520  0.33160  Biso   1.000  C
  C31      1.0000 0.52640  0.53070  0.41950  Biso   1.000  C
  C32      1.0000 0.48300  0.32612  0.30039  Biso   1.000  C
  C33      1.0000 0.51860  0.76750  0.18170  Biso   1.000  C
  C34      1.0000 0.28800  0.66840  0.04360  Biso   1.000  C
  C35      1.0000 0.52640  0.58050  0.11120  Biso   1.000  C
  C36      1.0000 0.48300  0.69961  0.02573  Biso   1.000  C
  C37      1.0000 0.01860  0.18170  0.41420  Biso   1.000  C
  C38      1.0000 0.78800  0.04360  0.37520  Biso   1.000  C
  C39      1.0000 0.02640  0.11120  0.53070  Biso   1.000  C
  C40      1.0000 0.98300  0.02573  0.32612  Biso   1.000  C
  C41      1.0000 0.01860  0.58580  0.76750  Biso   1.000  C
  C42      1.0000 0.78800  0.62480  0.66840  Biso   1.000  C
  C43      1.0000 0.02640  0.46930  0.58050  Biso   1.000  C
  C44      1.0000 0.98300  0.67388  0.69961  Biso   1.000  C
  C45      1.0000 0.01860  0.23250  0.81830  Biso   1.000  C
  C46      1.0000 0.78800  0.33160  0.95640  Biso   1.000  C
  C47      1.0000 0.02640  0.41950  0.88880  Biso   1.000  C
  C48      1.0000 0.98300  0.30039  0.97427  Biso   1.000  C
  C49      1.0000 0.51860  0.76750  0.58580  Biso   1.000  C
  C50      1.0000 0.28800  0.66840  0.62480  Biso   1.000  C
  C51      1.0000 0.52640  0.58050  0.46930  Biso   1.000  C
  C52      1.0000 0.48300  0.69961  0.67388  Biso   1.000  C
  C53      1.0000 0.51860  0.81830  0.23250  Biso   1.000  C
  C54      1.0000 0.28800  0.95640  0.33160  Biso   1.000  C
  C55      1.0000 0.52640  0.88880  0.41950  Biso   1.000  C
  C56      1.0000 0.48300  0.97427  0.30039  Biso   1.000  C
  C57      1.0000 0.51860  0.41420  0.18170  Biso   1.000  C
  C58      1.0000 0.28800  0.37520  0.04360  Biso   1.000  C
  C59      1.0000 0.52640  0.53070  0.11120  Biso   1.000  C
  C60      1.0000 0.48300  0.32612  0.02573  Biso   1.000  C
  C61      1.0000 0.01860  0.23250  0.41420  Biso   1.000  C
  C62      1.0000 0.78800  0.33160  0.37520  Biso   1.000  C
  C63      1.0000 0.02640  0.41950  0.53070  Biso   1.000  C
  C64      1.0000 0.98300  0.30039  0.32612  Biso   1.000  C
  C65      1.0000 0.01860  0.18170  0.76750  Biso   1.000  C
  C66      1.0000 0.78800  0.04360  0.66840  Biso   1.000  C
  C67      1.0000 0.02640  0.11120  0.58050  Biso   1.000  C
  C68      1.0000 0.98300  0.02573  0.69961  Biso   1.000  C
  C69      1.0000 0.01860  0.58580  0.81830  Biso   1.000  C
  C70      1.0000 0.78800  0.62480  0.95640  Biso   1.000  C
  C71      1.0000 0.02640  0.46930  0.88880  Biso   1.000  C
  C72      1.0000 0.98300  0.67388  0.97427  Biso   1.000  C
  C73      1.0000 0.48140  0.18170  0.41420  Biso   1.000  C
  C74      1.0000 0.71200  0.04360  0.37520  Biso   1.000  C
  C75      1.0000 0.47360  0.11120  0.53070  Biso   1.000  C
  C76      1.0000 0.51700  0.02573  0.32612  Biso   1.000  C
  C77      1.0000 0.48140  0.58580  0.76750  Biso   1.000  C
  C78      1.0000 0.71200  0.62480  0.66840  Biso   1.000  C
  C79      1.0000 0.47360  0.46930  0.58050  Biso   1.000  C
  C80      1.0000 0.51700  0.67388  0.69961  Biso   1.000  C
  C81      1.0000 0.48140  0.23250  0.81830  Biso   1.000  C
  C82      1.0000 0.71200  0.33160  0.95640  Biso   1.000  C
  C83      1.0000 0.47360  0.41950  0.88880  Biso   1.000  C
  C84      1.0000 0.51700  0.30039  0.97427  Biso   1.000  C
  C85      1.0000 0.98140  0.81830  0.58580  Biso   1.000  C
  C86      1.0000 0.21200  0.95640  0.62480  Biso   1.000  C
  C87      1.0000 0.97360  0.88880  0.46930  Biso   1.000  C
  C88      1.0000 0.01700  0.97427  0.67388  Biso   1.000  C
  C89      1.0000 0.98140  0.41420  0.23250  Biso   1.000  C
  C90      1.0000 0.21200  0.37520  0.33160  Biso   1.000  C
  C91      1.0000 0.97360  0.53070  0.41950  Biso   1.000  C
  C92      1.0000 0.01700  0.32612  0.30039  Biso   1.000  C
  C93      1.0000 0.98140  0.76750  0.18170  Biso   1.000  C
  C94      1.0000 0.21200  0.66840  0.04360  Biso   1.000  C
  C95      1.0000 0.97360  0.58050  0.11120  Biso   1.000  C
  C96      1.0000 0.01700  0.69961  0.02573  Biso   1.000  C
  C97      1.0000 0.57740  0.22206  0.44412  Biso   1.000  C
  C98      1.0000 0.57740  0.22206  0.77794  Biso   1.000  C
  C99      1.0000 0.57740  0.55588  0.77794  Biso   1.000  C
  C100     1.0000 0.07740  0.77794  0.55588  Biso   1.000  C
  C101     1.0000 0.07740  0.77794  0.22206  Biso   1.000  C
  C102     1.0000 0.07740  0.44412  0.22206  Biso   1.000  C
  C103     1.0000 0.42260  0.77794  0.55588  Biso   1.000  C
  C104     1.0000 0.42260  0.44412  0.22206  Biso   1.000  C
  C105     1.0000 0.42260  0.77794  0.22206  Biso   1.000  C
  C106     1.0000 0.92260  0.22206  0.44412  Biso   1.000  C
  C107     1.0000 0.92260  0.55588  0.77794  Biso   1.000  C
  C108     1.0000 0.92260  0.22206  0.77794  Biso   1.000  C
  C109     1.0000 0.75000  0.33153  0.44716  Biso   1.000  C
  C110     1.0000 0.75000  0.11563  0.66847  Biso   1.000  C
  C111     1.0000 0.75000  0.55284  0.88437  Biso   1.000  C
  C112     1.0000 0.25000  0.66847  0.55284  Biso   1.000  C
  C113     1.0000 0.25000  0.88437  0.33153  Biso   1.000  C
  C114     1.0000 0.25000  0.44716  0.11563  Biso   1.000  C
  C115     1.0000 0.25000  0.88437  0.55284  Biso   1.000  C
  C116     1.0000 0.25000  0.44716  0.33153  Biso   1.000  C
  C117     1.0000 0.25000  0.66847  0.11563  Biso   1.000  C
  C118     1.0000 0.75000  0.11563  0.44716  Biso   1.000  C
  C119     1.0000 0.75000  0.55284  0.66847  Biso   1.000  C
  C120     1.0000 0.75000  0.33153  0.88437  Biso   1.000  C
  C121     1.0000 0.57950  0.44640  0.55360  Biso   1.000  C
  C122     1.0000 0.57950  0.10720  0.55360  Biso   1.000  C
  C123     1.0000 0.57950  0.44640  0.89280  Biso   1.000  C
  C124     1.0000 0.07950  0.55360  0.44640  Biso   1.000  C
  C125     1.0000 0.07950  0.89280  0.44640  Biso   1.000  C
  C126     1.0000 0.07950  0.55360  0.10720  Biso   1.000  C
  C127     1.0000 0.42050  0.89280  0.44640  Biso   1.000  C
  C128     1.0000 0.42050  0.55360  0.44640  Biso   1.000  C
  C129     1.0000 0.42050  0.55360  0.10720  Biso   1.000  C
  C130     1.0000 0.92050  0.10720  0.55360  Biso   1.000  C
  C131     1.0000 0.92050  0.44640  0.55360  Biso   1.000  C
  C132     1.0000 0.92050  0.44640  0.89280  Biso   1.000  C
  C133     1.0000 0.50000  0.38708  0.38708  Biso   1.000  C
  C134     1.0000 0.50000  1.00000  0.61292  Biso   1.000  C
  C135     1.0000 0.50000  0.61292  0.00000  Biso   1.000  C
  C136     1.0000 0.00000  0.61292  0.61292  Biso   1.000  C
  C137     1.0000 0.00000  0.00000  0.38708  Biso   1.000  C
  C138     1.0000 0.00000  0.38708  0.00000  Biso   1.000  C
  C139     1.0000 0.50000  0.61292  0.61292  Biso   1.000  C
  C140     1.0000 0.50000  0.00000  0.38708  Biso   1.000  C
  C141     1.0000 0.50000  0.38708  0.00000  Biso   1.000  C
  C142     1.0000 0.00000  0.38708  0.38708  Biso   1.000  C
  C143     1.0000 0.00000  1.00000  0.61292  Biso   1.000  C
  C144     1.0000 0.00000  0.61292  0.00000  Biso   1.000  C
  N1       1.0000 0.54544  0.26262  0.44250  Biso   1.000  N
  N2       1.0000 0.68760  0.33109  0.42210  Biso   1.000  N
  N3       1.0000 0.54620  0.39980  0.51741  Biso   1.000  N
  N4       1.0000 0.52836  0.33960  0.38191  Biso   1.000  N
  N5       1.0000 0.54544  0.17988  0.73738  Biso   1.000  N
  N6       1.0000 0.68760  0.09101  0.66891  Biso   1.000  N
  N7       1.0000 0.54620  0.11761  0.60020  Biso   1.000  N
  N8       1.0000 0.52836  0.04231  0.66040  Biso   1.000  N
  N9       1.0000 0.54544  0.55750  0.82012  Biso   1.000  N
  N10      1.0000 0.68760  0.57790  0.90899  Biso   1.000  N
  N11      1.0000 0.54620  0.48259  0.88239  Biso   1.000  N
  N12      1.0000 0.52836  0.61809  0.95769  Biso   1.000  N
  N13      1.0000 0.04544  0.73738  0.55750  Biso   1.000  N
  N14      1.0000 0.18760  0.66891  0.57790  Biso   1.000  N
  N15      1.0000 0.04620  0.60020  0.48259  Biso   1.000  N
  N16      1.0000 0.02836  0.66040  0.61809  Biso   1.000  N
  N17      1.0000 0.04544  0.82012  0.26262  Biso   1.000  N
  N18      1.0000 0.18760  0.90899  0.33109  Biso   1.000  N
  N19      1.0000 0.04620  0.88239  0.39980  Biso   1.000  N
  N20      1.0000 0.02836  0.95769  0.33960  Biso   1.000  N
  N21      1.0000 0.04544  0.44250  0.17988  Biso   1.000  N
  N22      1.0000 0.18760  0.42210  0.09101  Biso   1.000  N
  N23      1.0000 0.04620  0.51741  0.11761  Biso   1.000  N
  N24      1.0000 0.02836  0.38191  0.04231  Biso   1.000  N
  N25      1.0000 0.45456  0.82012  0.55750  Biso   1.000  N
  N26      1.0000 0.31240  0.90899  0.57790  Biso   1.000  N
  N27      1.0000 0.45380  0.88239  0.48259  Biso   1.000  N
  N28      1.0000 0.47164  0.95769  0.61809  Biso   1.000  N
  N29      1.0000 0.45456  0.44250  0.26262  Biso   1.000  N
  N30      1.0000 0.31240  0.42210  0.33109  Biso   1.000  N
  N31      1.0000 0.45380  0.51741  0.39980  Biso   1.000  N
  N32      1.0000 0.47164  0.38191  0.33960  Biso   1.000  N
  N33      1.0000 0.45456  0.73738  0.17988  Biso   1.000  N
  N34      1.0000 0.31240  0.66891  0.09101  Biso   1.000  N
  N35      1.0000 0.45380  0.60020  0.11761  Biso   1.000  N
  N36      1.0000 0.47164  0.66040  0.04231  Biso   1.000  N
  N37      1.0000 0.95456  0.17988  0.44250  Biso   1.000  N
  N38      1.0000 0.81240  0.09101  0.42210  Biso   1.000  N
  N39      1.0000 0.95380  0.11761  0.51741  Biso   1.000  N
  N40      1.0000 0.97164  0.04231  0.38191  Biso   1.000  N
  N41      1.0000 0.95456  0.55750  0.73738  Biso   1.000  N
  N42      1.0000 0.81240  0.57790  0.66891  Biso   1.000  N
  N43      1.0000 0.95380  0.48259  0.60020  Biso   1.000  N
  N44      1.0000 0.97164  0.61809  0.66040  Biso   1.000  N
  N45      1.0000 0.95456  0.26262  0.82012  Biso   1.000  N
  N46      1.0000 0.81240  0.33109  0.90899  Biso   1.000  N
  N47      1.0000 0.95380  0.39980  0.88239  Biso   1.000  N
  N48      1.0000 0.97164  0.33960  0.95769  Biso   1.000  N
  N49      1.0000 0.45456  0.73738  0.55750  Biso   1.000  N
  N50      1.0000 0.31240  0.66891  0.57790  Biso   1.000  N
  N51      1.0000 0.45380  0.60020  0.48259  Biso   1.000  N
  N52      1.0000 0.47164  0.66040  0.61809  Biso   1.000  N
  N53      1.0000 0.45456  0.82012  0.26262  Biso   1.000  N
  N54      1.0000 0.31240  0.90899  0.33109  Biso   1.000  N
  N55      1.0000 0.45380  0.88239  0.39980  Biso   1.000  N
  N56      1.0000 0.47164  0.95769  0.33960  Biso   1.000  N
  N57      1.0000 0.45456  0.44250  0.17988  Biso   1.000  N
  N58      1.0000 0.31240  0.42210  0.09101  Biso   1.000  N
  N59      1.0000 0.45380  0.51741  0.11761  Biso   1.000  N
  N60      1.0000 0.47164  0.38191  0.04231  Biso   1.000  N
  N61      1.0000 0.95456  0.26262  0.44250  Biso   1.000  N
  N62      1.0000 0.81240  0.33109  0.42210  Biso   1.000  N
  N63      1.0000 0.95380  0.39980  0.51741  Biso   1.000  N
  N64      1.0000 0.97164  0.33960  0.38191  Biso   1.000  N
  N65      1.0000 0.95456  0.17988  0.73738  Biso   1.000  N
  N66      1.0000 0.81240  0.09101  0.66891  Biso   1.000  N
  N67      1.0000 0.95380  0.11761  0.60020  Biso   1.000  N
  N68      1.0000 0.97164  0.04231  0.66040  Biso   1.000  N
  N69      1.0000 0.95456  0.55750  0.82012  Biso   1.000  N
  N70      1.0000 0.81240  0.57790  0.90899  Biso   1.000  N
  N71      1.0000 0.95380  0.48259  0.88239  Biso   1.000  N
  N72      1.0000 0.97164  0.61809  0.95769  Biso   1.000  N
  N73      1.0000 0.54544  0.17988  0.44250  Biso   1.000  N
  N74      1.0000 0.68760  0.09101  0.42210  Biso   1.000  N
  N75      1.0000 0.54620  0.11761  0.51741  Biso   1.000  N
  N76      1.0000 0.52836  0.04231  0.38191  Biso   1.000  N
  N77      1.0000 0.54544  0.55750  0.73738  Biso   1.000  N
  N78      1.0000 0.68760  0.57790  0.66891  Biso   1.000  N
  N79      1.0000 0.54620  0.48259  0.60020  Biso   1.000  N
  N80      1.0000 0.52836  0.61809  0.66040  Biso   1.000  N
  N81      1.0000 0.54544  0.26262  0.82012  Biso   1.000  N
  N82      1.0000 0.68760  0.33109  0.90899  Biso   1.000  N
  N83      1.0000 0.54620  0.39980  0.88239  Biso   1.000  N
  N84      1.0000 0.52836  0.33960  0.95769  Biso   1.000  N
  N85      1.0000 0.04544  0.82012  0.55750  Biso   1.000  N
  N86      1.0000 0.18760  0.90899  0.57790  Biso   1.000  N
  N87      1.0000 0.04620  0.88239  0.48259  Biso   1.000  N
  N88      1.0000 0.02836  0.95769  0.61809  Biso   1.000  N
  N89      1.0000 0.04544  0.44250  0.26262  Biso   1.000  N
  N90      1.0000 0.18760  0.42210  0.33109  Biso   1.000  N
  N91      1.0000 0.04620  0.51741  0.39980  Biso   1.000  N
  N92      1.0000 0.02836  0.38191  0.33960  Biso   1.000  N
  N93      1.0000 0.04544  0.73738  0.17988  Biso   1.000  N
  N94      1.0000 0.18760  0.66891  0.09101  Biso   1.000  N
  N95      1.0000 0.04620  0.60020  0.11761  Biso   1.000  N
  N96      1.0000 0.02836  0.66040  0.04231  Biso   1.000  N
  N97      1.0000 0.75000  0.33199  0.50153  Biso   1.000  N
  N98      1.0000 0.75000  0.16954  0.66801  Biso   1.000  N
  N99      1.0000 0.75000  0.49847  0.83046  Biso   1.000  N
  N100     1.0000 0.25000  0.66801  0.49847  Biso   1.000  N
  N101     1.0000 0.25000  0.83046  0.33199  Biso   1.000  N
  N102     1.0000 0.25000  0.50153  0.16954  Biso   1.000  N
  N103     1.0000 0.25000  0.83046  0.49847  Biso   1.000  N
  N104     1.0000 0.25000  0.50153  0.33199  Biso   1.000  N
  N105     1.0000 0.25000  0.66801  0.16954  Biso   1.000  N
  N106     1.0000 0.75000  0.16954  0.50153  Biso   1.000  N
  N107     1.0000 0.75000  0.49847  0.66801  Biso   1.000  N
  N108     1.0000 0.75000  0.33199  0.83046  Biso   1.000  N
  O1       1.0000 0.69035  0.33212  0.52274  Biso   1.000  O
  O2       1.0000 0.69035  0.19062  0.66788  Biso   1.000  O
  O3       1.0000 0.69035  0.47726  0.80938  Biso   1.000  O
  O4       1.0000 0.19035  0.66788  0.47726  Biso   1.000  O
  O5       1.0000 0.19035  0.80938  0.33212  Biso   1.000  O
  O6       1.0000 0.19035  0.52274  0.19062  Biso   1.000  O
  O7       1.0000 0.30965  0.80938  0.47726  Biso   1.000  O
  O8       1.0000 0.30965  0.52274  0.33212  Biso   1.000  O
  O9       1.0000 0.30965  0.66788  0.19062  Biso   1.000  O
  O10      1.0000 0.80965  0.19062  0.52274  Biso   1.000  O
  O11      1.0000 0.80965  0.47726  0.66788  Biso   1.000  O
  O12      1.0000 0.80965  0.33212  0.80938  Biso   1.000  O
  O13      1.0000 0.30965  0.66788  0.47726  Biso   1.000  O
  O14      1.0000 0.30965  0.80938  0.33212  Biso   1.000  O
  O15      1.0000 0.30965  0.52274  0.19062  Biso   1.000  O
  O16      1.0000 0.80965  0.33212  0.52274  Biso   1.000  O
  O17      1.0000 0.80965  0.19062  0.66788  Biso   1.000  O
  O18      1.0000 0.80965  0.47726  0.80938  Biso   1.000  O
  O19      1.0000 0.69035  0.19062  0.52274  Biso   1.000  O
  O20      1.0000 0.69035  0.47726  0.66788  Biso   1.000  O
  O21      1.0000 0.69035  0.33212  0.80938  Biso   1.000  O
  O22      1.0000 0.19035  0.80938  0.47726  Biso   1.000  O
  O23      1.0000 0.19035  0.52274  0.33212  Biso   1.000  O
  O24      1.0000 0.19035  0.66788  0.19062  Biso   1.000  O
