data_image0
_cell_length_a       18.0208
_cell_length_b       27.0111
_cell_length_c       27.0111
_cell_angle_alpha    120
_cell_angle_beta     90
_cell_angle_gamma    90

_symmetry_space_group_name_H-M    P 1
_symmetry_int_tables_number       1

loop_
  _symmetry_equiv_pos_as_xyz
  'x, y, z'

loop_
  _atom_site_label
  _atom_site_occupancy
  _atom_site_fract_x
  _atom_site_fract_y
  _atom_site_fract_z
  _atom_site_thermal_displace_type
  _atom_site_B_iso_or_equiv
  _atom_site_type_symbol
  Zn1      1.0000 0.57967  0.33279  0.44353  Biso   1.000  Zn
  Zn2      1.0000 0.57967  0.11074  0.66721  Biso   1.000  Zn
  Zn3      1.0000 0.57967  0.55647  0.88926  Biso   1.000  Zn
  Zn4      1.0000 0.07967  0.66721  0.55647  Biso   1.000  Zn
  Zn5      1.0000 0.07967  0.88926  0.33279  Biso   1.000  Zn
  Zn6      1.0000 0.07967  0.44353  0.11074  Biso   1.000  Zn
  Zn7      1.0000 0.42033  0.88926  0.55647  Biso   1.000  Zn
  Zn8      1.0000 0.42033  0.44353  0.33279  Biso   1.000  Zn
  Zn9      1.0000 0.42033  0.66721  0.11074  Biso   1.000  Zn
  Zn10     1.0000 0.92033  0.11074  0.44353  Biso   1.000  Zn
  Zn11     1.0000 0.92033  0.55647  0.66721  Biso   1.000  Zn
  Zn12     1.0000 0.92033  0.33279  0.88926  Biso   1.000  Zn
  Zn13     1.0000 0.42033  0.66721  0.55647  Biso   1.000  Zn
  Zn14     1.0000 0.42033  0.88926  0.33279  Biso   1.000  Zn
  Zn15     1.0000 0.42033  0.44353  0.11074  Biso   1.000  Zn
  Zn16     1.0000 0.92033  0.33279  0.44353  Biso   1.000  Zn
  Zn17     1.0000 0.92033  0.11074  0.66721  Biso   1.000  Zn
  Zn18     1.0000 0.92033  0.55647  0.88926  Biso   1.000  Zn
  Zn19     1.0000 0.57967  0.11074  0.44353  Biso   1.000  Zn
  Zn20     1.0000 0.57967  0.55647  0.66721  Biso   1.000  Zn
  Zn21     1.0000 0.57967  0.33279  0.88926  Biso   1.000  Zn
  Zn22     1.0000 0.07967  0.88926  0.55647  Biso   1.000  Zn
  Zn23     1.0000 0.07967  0.44353  0.33279  Biso   1.000  Zn
  Zn24     1.0000 0.07967  0.66721  0.11074  Biso   1.000  Zn
  H1       1.0000 0.44540  0.24430  0.39930  Biso   1.000  H
  H2       1.0000 0.68280  0.32940  0.34570  Biso   1.000  H
  H3       1.0000 0.43170  0.40120  0.51110  Biso   1.000  H
  H4       1.0000 0.53230  0.26250  0.30810  Biso   1.000  H
  H5       1.0000 0.44540  0.15500  0.75570  Biso   1.000  H
  H6       1.0000 0.68280  0.01630  0.67060  Biso   1.000  H
  H7       1.0000 0.43170  0.10990  0.59880  Biso   1.000  H
  H8       1.0000 0.53230  0.04560  0.73750  Biso   1.000  H
  H9       1.0000 0.44540  0.60070  0.84500  Biso   1.000  H
  H10      1.0000 0.68280  0.65430  0.98370  Biso   1.000  H
  H11      1.0000 0.43170  0.48890  0.89010  Biso   1.000  H
  H12      1.0000 0.53230  0.69190  0.95440  Biso   1.000  H
  H13      1.0000 0.94540  0.75570  0.60070  Biso   1.000  H
  H14      1.0000 0.18280  0.67060  0.65430  Biso   1.000  H
  H15      1.0000 0.93170  0.59880  0.48890  Biso   1.000  H
  H16      1.0000 0.03230  0.73750  0.69190  Biso   1.000  H
  H17      1.0000 0.94540  0.84500  0.24430  Biso   1.000  H
  H18      1.0000 0.18280  0.98370  0.32940  Biso   1.000  H
  H19      1.0000 0.93170  0.89010  0.40120  Biso   1.000  H
  H20      1.0000 0.03230  0.95440  0.26250  Biso   1.000  H
  H21      1.0000 0.94540  0.39930  0.15500  Biso   1.000  H
  H22      1.0000 0.18280  0.34570  0.01630  Biso   1.000  H
  H23      1.0000 0.93170  0.51110  0.10990  Biso   1.000  H
  H24      1.0000 0.03230  0.30810  0.04560  Biso   1.000  H
  H25      1.0000 0.55460  0.84500  0.60070  Biso   1.000  H
  H26      1.0000 0.31720  0.98370  0.65430  Biso   1.000  H
  H27      1.0000 0.56830  0.89010  0.48890  Biso   1.000  H
  H28      1.0000 0.46770  0.95440  0.69190  Biso   1.000  H
  H29      1.0000 0.55460  0.39930  0.24430  Biso   1.000  H
  H30      1.0000 0.31720  0.34570  0.32940  Biso   1.000  H
  H31      1.0000 0.56830  0.51110  0.40120  Biso   1.000  H
  H32      1.0000 0.46770  0.30810  0.26250  Biso   1.000  H
  H33      1.0000 0.55460  0.75570  0.15500  Biso   1.000  H
  H34      1.0000 0.31720  0.67060  0.01630  Biso   1.000  H
  H35      1.0000 0.56830  0.59880  0.10990  Biso   1.000  H
  H36      1.0000 0.46770  0.73750  0.04560  Biso   1.000  H
  H37      1.0000 0.05460  0.15500  0.39930  Biso   1.000  H
  H38      1.0000 0.81720  0.01630  0.34570  Biso   1.000  H
  H39      1.0000 0.06830  0.10990  0.51110  Biso   1.000  H
  H40      1.0000 0.96770  0.04560  0.30810  Biso   1.000  H
  H41      1.0000 0.05460  0.60070  0.75570  Biso   1.000  H
  H42      1.0000 0.81720  0.65430  0.67060  Biso   1.000  H
  H43      1.0000 0.06830  0.48890  0.59880  Biso   1.000  H
  H44      1.0000 0.96770  0.69190  0.73750  Biso   1.000  H
  H45      1.0000 0.05460  0.24430  0.84500  Biso   1.000  H
  H46      1.0000 0.81720  0.32940  0.98370  Biso   1.000  H
  H47      1.0000 0.06830  0.40120  0.89010  Biso   1.000  H
  H48      1.0000 0.96770  0.26250  0.95440  Biso   1.000  H
  H49      1.0000 0.55460  0.75570  0.60070  Biso   1.000  H
  H50      1.0000 0.31720  0.67060  0.65430  Biso   1.000  H
  H51      1.0000 0.56830  0.59880  0.48890  Biso   1.000  H
  H52      1.0000 0.46770  0.73750  0.69190  Biso   1.000  H
  H53      1.0000 0.55460  0.84500  0.24430  Biso   1.000  H
  H54      1.0000 0.31720  0.98370  0.32940  Biso   1.000  H
  H55      1.0000 0.56830  0.89010  0.40120  Biso   1.000  H
  H56      1.0000 0.46770  0.95440  0.26250  Biso   1.000  H
  H57      1.0000 0.55460  0.39930  0.15500  Biso   1.000  H
  H58      1.0000 0.31720  0.34570  0.01630  Biso   1.000  H
  H59      1.0000 0.56830  0.51110  0.10990  Biso   1.000  H
  H60      1.0000 0.46770  0.30810  0.04560  Biso   1.000  H
  H61      1.0000 0.05460  0.24430  0.39930  Biso   1.000  H
  H62      1.0000 0.81720  0.32940  0.34570  Biso   1.000  H
  H63      1.0000 0.06830  0.40120  0.51110  Biso   1.000  H
  H64      1.0000 0.96770  0.26250  0.30810  Biso   1.000  H
  H65      1.0000 0.05460  0.15500  0.75570  Biso   1.000  H
  H66      1.0000 0.81720  0.01630  0.67060  Biso   1.000  H
  H67      1.0000 0.06830  0.10990  0.59880  Biso   1.000  H
  H68      1.0000 0.96770  0.04560  0.73750  Biso   1.000  H
  H69      1.0000 0.05460  0.60070  0.84500  Biso   1.000  H
  H70      1.0000 0.81720  0.65430  0.98370  Biso   1.000  H
  H71      1.0000 0.06830  0.48890  0.89010  Biso   1.000  H
  H72      1.0000 0.96770  0.69190  0.95440  Biso   1.000  H
  H73      1.0000 0.44540  0.15500  0.39930  Biso   1.000  H
  H74      1.0000 0.68280  0.01630  0.34570  Biso   1.000  H
  H75      1.0000 0.43170  0.10990  0.51110  Biso   1.000  H
  H76      1.0000 0.53230  0.04560  0.30810  Biso   1.000  H
  H77      1.0000 0.44540  0.60070  0.75570  Biso   1.000  H
  H78      1.0000 0.68280  0.65430  0.67060  Biso   1.000  H
  H79      1.0000 0.43170  0.48890  0.59880  Biso   1.000  H
  H80      1.0000 0.53230  0.69190  0.73750  Biso   1.000  H
  H81      1.0000 0.44540  0.24430  0.84500  Biso   1.000  H
  H82      1.0000 0.68280  0.32940  0.98370  Biso   1.000  H
  H83      1.0000 0.43170  0.40120  0.89010  Biso   1.000  H
  H84      1.0000 0.53230  0.26250  0.95440  Biso   1.000  H
  H85      1.0000 0.94540  0.84500  0.60070  Biso   1.000  H
  H86      1.0000 0.18280  0.98370  0.65430  Biso   1.000  H
  H87      1.0000 0.93170  0.89010  0.48890  Biso   1.000  H
  H88      1.0000 0.03230  0.95440  0.69190  Biso   1.000  H
  H89      1.0000 0.94540  0.39930  0.24430  Biso   1.000  H
  H90      1.0000 0.18280  0.34570  0.32940  Biso   1.000  H
  H91      1.0000 0.93170  0.51110  0.40120  Biso   1.000  H
  H92      1.0000 0.03230  0.30810  0.26250  Biso   1.000  H
  H93      1.0000 0.94540  0.75570  0.15500  Biso   1.000  H
  H94      1.0000 0.18280  0.67060  0.01630  Biso   1.000  H
  H95      1.0000 0.93170  0.59880  0.10990  Biso   1.000  H
  H96      1.0000 0.03230  0.73750  0.04560  Biso   1.000  H
  H97      1.0000 0.62880  0.22230  0.44460  Biso   1.000  H
  H98      1.0000 0.62880  0.22230  0.77770  Biso   1.000  H
  H99      1.0000 0.62880  0.55540  0.77770  Biso   1.000  H
  H100     1.0000 0.12880  0.77770  0.55540  Biso   1.000  H
  H101     1.0000 0.12880  0.77770  0.22230  Biso   1.000  H
  H102     1.0000 0.12880  0.44460  0.22230  Biso   1.000  H
  H103     1.0000 0.37120  0.77770  0.55540  Biso   1.000  H
  H104     1.0000 0.37120  0.44460  0.22230  Biso   1.000  H
  H105     1.0000 0.37120  0.77770  0.22230  Biso   1.000  H
  H106     1.0000 0.87120  0.22230  0.44460  Biso   1.000  H
  H107     1.0000 0.87120  0.55540  0.77770  Biso   1.000  H
  H108     1.0000 0.87120  0.22230  0.77770  Biso   1.000  H
  H109     1.0000 0.62700  0.45360  0.54640  Biso   1.000  H
  H110     1.0000 0.62700  0.09280  0.54640  Biso   1.000  H
  H111     1.0000 0.62700  0.45360  0.90720  Biso   1.000  H
  H112     1.0000 0.12700  0.54640  0.45360  Biso   1.000  H
  H113     1.0000 0.12700  0.90720  0.45360  Biso   1.000  H
  H114     1.0000 0.12700  0.54640  0.09280  Biso   1.000  H
  H115     1.0000 0.37300  0.90720  0.45360  Biso   1.000  H
  H116     1.0000 0.37300  0.54640  0.45360  Biso   1.000  H
  H117     1.0000 0.37300  0.54640  0.09280  Biso   1.000  H
  H118     1.0000 0.87300  0.09280  0.54640  Biso   1.000  H
  H119     1.0000 0.87300  0.45360  0.54640  Biso   1.000  H
  H120     1.0000 0.87300  0.45360  0.90720  Biso   1.000  H
  H121     1.0000 0.50000  0.42200  0.42200  Biso   1.000  H
  H122     1.0000 0.50000  1.00000  0.57800  Biso   1.000  H
  H123     1.0000 0.50000  0.57800  0.00000  Biso   1.000  H
  H124     1.0000 0.00000  0.57800  0.57800  Biso   1.000  H
  H125     1.0000 0.00000  1.00000  0.42200  Biso   1.000  H
  H126     1.0000 0.00000  0.42200  0.00000  Biso   1.000  H
  H127     1.0000 0.50000  0.57800  0.57800  Biso   1.000  H
  H128     1.0000 0.50000  1.00000  0.42200  Biso   1.000  H
  H129     1.0000 0.50000  0.42200  0.00000  Biso   1.000  H
  H130     1.0000 0.00000  0.42200  0.42200  Biso   1.000  H
  H131     1.0000 0.00000  1.00000  0.57800  Biso   1.000  H
  H132     1.0000 0.00000  0.57800  0.00000  Biso   1.000  H
  C1       1.0000 0.48230  0.23220  0.41500  Biso   1.000  C
  C2       1.0000 0.71270  0.33010  0.37410  Biso   1.000  C
  C3       1.0000 0.47380  0.41960  0.53230  Biso   1.000  C
  C4       1.0000 0.51760  0.30060  0.32600  Biso   1.000  C
  C5       1.0000 0.48230  0.18280  0.76780  Biso   1.000  C
  C6       1.0000 0.71270  0.04400  0.66990  Biso   1.000  C
  C7       1.0000 0.47380  0.11270  0.58040  Biso   1.000  C
  C8       1.0000 0.51760  0.02540  0.69940  Biso   1.000  C
  C9       1.0000 0.48230  0.58500  0.81720  Biso   1.000  C
  C10      1.0000 0.71270  0.62590  0.95600  Biso   1.000  C
  C11      1.0000 0.47380  0.46770  0.88730  Biso   1.000  C
  C12      1.0000 0.51760  0.67400  0.97460  Biso   1.000  C
  C13      1.0000 0.98230  0.76780  0.58500  Biso   1.000  C
  C14      1.0000 0.21270  0.66990  0.62590  Biso   1.000  C
  C15      1.0000 0.97380  0.58040  0.46770  Biso   1.000  C
  C16      1.0000 0.01760  0.69940  0.67400  Biso   1.000  C
  C17      1.0000 0.98230  0.81720  0.23220  Biso   1.000  C
  C18      1.0000 0.21270  0.95600  0.33010  Biso   1.000  C
  C19      1.0000 0.97380  0.88730  0.41960  Biso   1.000  C
  C20      1.0000 0.01760  0.97460  0.30060  Biso   1.000  C
  C21      1.0000 0.98230  0.41500  0.18280  Biso   1.000  C
  C22      1.0000 0.21270  0.37410  0.04400  Biso   1.000  C
  C23      1.0000 0.97380  0.53230  0.11270  Biso   1.000  C
  C24      1.0000 0.01760  0.32600  0.02540  Biso   1.000  C
  C25      1.0000 0.51770  0.81720  0.58500  Biso   1.000  C
  C26      1.0000 0.28730  0.95600  0.62590  Biso   1.000  C
  C27      1.0000 0.52620  0.88730  0.46770  Biso   1.000  C
  C28      1.0000 0.48240  0.97460  0.67400  Biso   1.000  C
  C29      1.0000 0.51770  0.41500  0.23220  Biso   1.000  C
  C30      1.0000 0.28730  0.37410  0.33010  Biso   1.000  C
  C31      1.0000 0.52620  0.53230  0.41960  Biso   1.000  C
  C32      1.0000 0.48240  0.32600  0.30060  Biso   1.000  C
  C33      1.0000 0.51770  0.76780  0.18280  Biso   1.000  C
  C34      1.0000 0.28730  0.66990  0.04400  Biso   1.000  C
  C35      1.0000 0.52620  0.58040  0.11270  Biso   1.000  C
  C36      1.0000 0.48240  0.69940  0.02540  Biso   1.000  C
  C37      1.0000 0.01770  0.18280  0.41500  Biso   1.000  C
  C38      1.0000 0.78730  0.04400  0.37410  Biso   1.000  C
  C39      1.0000 0.02620  0.11270  0.53230  Biso   1.000  C
  C40      1.0000 0.98240  0.02540  0.32600  Biso   1.000  C
  C41      1.0000 0.01770  0.58500  0.76780  Biso   1.000  C
  C42      1.0000 0.78730  0.62590  0.66990  Biso   1.000  C
  C43      1.0000 0.02620  0.46770  0.58040  Biso   1.000  C
  C44      1.0000 0.98240  0.67400  0.69940  Biso   1.000  C
  C45      1.0000 0.01770  0.23220  0.81720  Biso   1.000  C
  C46      1.0000 0.78730  0.33010  0.95600  Biso   1.000  C
  C47      1.0000 0.02620  0.41960  0.88730  Biso   1.000  C
  C48      1.0000 0.98240  0.30060  0.97460  Biso   1.000  C
  C49      1.0000 0.51770  0.76780  0.58500  Biso   1.000  C
  C50      1.0000 0.28730  0.66990  0.62590  Biso   1.000  C
  C51      1.0000 0.52620  0.58040  0.46770  Biso   1.000  C
  C52      1.0000 0.48240  0.69940  0.67400  Biso   1.000  C
  C53      1.0000 0.51770  0.81720  0.23220  Biso   1.000  C
  C54      1.0000 0.28730  0.95600  0.33010  Biso   1.000  C
  C55      1.0000 0.52620  0.88730  0.41960  Biso   1.000  C
  C56      1.0000 0.48240  0.97460  0.30060  Biso   1.000  C
  C57      1.0000 0.51770  0.41500  0.18280  Biso   1.000  C
  C58      1.0000 0.28730  0.37410  0.04400  Biso   1.000  C
  C59      1.0000 0.52620  0.53230  0.11270  Biso   1.000  C
  C60      1.0000 0.48240  0.32600  0.02540  Biso   1.000  C
  C61      1.0000 0.01770  0.23220  0.41500  Biso   1.000  C
  C62      1.0000 0.78730  0.33010  0.37410  Biso   1.000  C
  C63      1.0000 0.02620  0.41960  0.53230  Biso   1.000  C
  C64      1.0000 0.98240  0.30060  0.32600  Biso   1.000  C
  C65      1.0000 0.01770  0.18280  0.76780  Biso   1.000  C
  C66      1.0000 0.78730  0.04400  0.66990  Biso   1.000  C
  C67      1.0000 0.02620  0.11270  0.58040  Biso   1.000  C
  C68      1.0000 0.98240  0.02540  0.69940  Biso   1.000  C
  C69      1.0000 0.01770  0.58500  0.81720  Biso   1.000  C
  C70      1.0000 0.78730  0.62590  0.95600  Biso   1.000  C
  C71      1.0000 0.02620  0.46770  0.88730  Biso   1.000  C
  C72      1.0000 0.98240  0.67400  0.97460  Biso   1.000  C
  C73      1.0000 0.48230  0.18280  0.41500  Biso   1.000  C
  C74      1.0000 0.71270  0.04400  0.37410  Biso   1.000  C
  C75      1.0000 0.47380  0.11270  0.53230  Biso   1.000  C
  C76      1.0000 0.51760  0.02540  0.32600  Biso   1.000  C
  C77      1.0000 0.48230  0.58500  0.76780  Biso   1.000  C
  C78      1.0000 0.71270  0.62590  0.66990  Biso   1.000  C
  C79      1.0000 0.47380  0.46770  0.58040  Biso   1.000  C
  C80      1.0000 0.51760  0.67400  0.69940  Biso   1.000  C
  C81      1.0000 0.48230  0.23220  0.81720  Biso   1.000  C
  C82      1.0000 0.71270  0.33010  0.95600  Biso   1.000  C
  C83      1.0000 0.47380  0.41960  0.88730  Biso   1.000  C
  C84      1.0000 0.51760  0.30060  0.97460  Biso   1.000  C
  C85      1.0000 0.98230  0.81720  0.58500  Biso   1.000  C
  C86      1.0000 0.21270  0.95600  0.62590  Biso   1.000  C
  C87      1.0000 0.97380  0.88730  0.46770  Biso   1.000  C
  C88      1.0000 0.01760  0.97460  0.67400  Biso   1.000  C
  C89      1.0000 0.98230  0.41500  0.23220  Biso   1.000  C
  C90      1.0000 0.21270  0.37410  0.33010  Biso   1.000  C
  C91      1.0000 0.97380  0.53230  0.41960  Biso   1.000  C
  C92      1.0000 0.01760  0.32600  0.30060  Biso   1.000  C
  C93      1.0000 0.98230  0.76780  0.18280  Biso   1.000  C
  C94      1.0000 0.21270  0.66990  0.04400  Biso   1.000  C
  C95      1.0000 0.97380  0.58040  0.11270  Biso   1.000  C
  C96      1.0000 0.01760  0.69940  0.02540  Biso   1.000  C
  C97      1.0000 0.57730  0.22150  0.44300  Biso   1.000  C
  C98      1.0000 0.57730  0.22150  0.77850  Biso   1.000  C
  C99      1.0000 0.57730  0.55700  0.77850  Biso   1.000  C
  C100     1.0000 0.07730  0.77850  0.55700  Biso   1.000  C
  C101     1.0000 0.07730  0.77850  0.22150  Biso   1.000  C
  C102     1.0000 0.07730  0.44300  0.22150  Biso   1.000  C
  C103     1.0000 0.42270  0.77850  0.55700  Biso   1.000  C
  C104     1.0000 0.42270  0.44300  0.22150  Biso   1.000  C
  C105     1.0000 0.42270  0.77850  0.22150  Biso   1.000  C
  C106     1.0000 0.92270  0.22150  0.44300  Biso   1.000  C
  C107     1.0000 0.92270  0.55700  0.77850  Biso   1.000  C
  C108     1.0000 0.92270  0.22150  0.77850  Biso   1.000  C
  C109     1.0000 0.75000  0.33140  0.44720  Biso   1.000  C
  C110     1.0000 0.75000  0.11580  0.66860  Biso   1.000  C
  C111     1.0000 0.75000  0.55280  0.88420  Biso   1.000  C
  C112     1.0000 0.25000  0.66860  0.55280  Biso   1.000  C
  C113     1.0000 0.25000  0.88420  0.33140  Biso   1.000  C
  C114     1.0000 0.25000  0.44720  0.11580  Biso   1.000  C
  C115     1.0000 0.25000  0.88420  0.55280  Biso   1.000  C
  C116     1.0000 0.25000  0.44720  0.33140  Biso   1.000  C
  C117     1.0000 0.25000  0.66860  0.11580  Biso   1.000  C
  C118     1.0000 0.75000  0.11580  0.44720  Biso   1.000  C
  C119     1.0000 0.75000  0.55280  0.66860  Biso   1.000  C
  C120     1.0000 0.75000  0.33140  0.88420  Biso   1.000  C
  C121     1.0000 0.57910  0.44625  0.55375  Biso   1.000  C
  C122     1.0000 0.57910  0.10750  0.55375  Biso   1.000  C
  C123     1.0000 0.57910  0.44625  0.89250  Biso   1.000  C
  C124     1.0000 0.07910  0.55375  0.44625  Biso   1.000  C
  C125     1.0000 0.07910  0.89250  0.44625  Biso   1.000  C
  C126     1.0000 0.07910  0.55375  0.10750  Biso   1.000  C
  C127     1.0000 0.42090  0.89250  0.44625  Biso   1.000  C
  C128     1.0000 0.42090  0.55375  0.44625  Biso   1.000  C
  C129     1.0000 0.42090  0.55375  0.10750  Biso   1.000  C
  C130     1.0000 0.92090  0.10750  0.55375  Biso   1.000  C
  C131     1.0000 0.92090  0.44625  0.55375  Biso   1.000  C
  C132     1.0000 0.92090  0.44625  0.89250  Biso   1.000  C
  C133     1.0000 0.50000  0.38760  0.38760  Biso   1.000  C
  C134     1.0000 0.50000  1.00000  0.61240  Biso   1.000  C
  C135     1.0000 0.50000  0.61240  0.00000  Biso   1.000  C
  C136     1.0000 0.00000  0.61240  0.61240  Biso   1.000  C
  C137     1.0000 0.00000  0.00000  0.38760  Biso   1.000  C
  C138     1.0000 0.00000  0.38760  1.00000  Biso   1.000  C
  C139     1.0000 0.50000  0.61240  0.61240  Biso   1.000  C
  C140     1.0000 0.50000  0.00000  0.38760  Biso   1.000  C
  C141     1.0000 0.50000  0.38760  1.00000  Biso   1.000  C
  C142     1.0000 0.00000  0.38760  0.38760  Biso   1.000  C
  C143     1.0000 0.00000  1.00000  0.61240  Biso   1.000  C
  C144     1.0000 0.00000  0.61240  0.00000  Biso   1.000  C
  N1       1.0000 0.54560  0.26232  0.44194  Biso   1.000  N
  N2       1.0000 0.68790  0.33130  0.42230  Biso   1.000  N
  N3       1.0000 0.54630  0.39973  0.51737  Biso   1.000  N
  N4       1.0000 0.52790  0.33953  0.38187  Biso   1.000  N
  N5       1.0000 0.54560  0.17962  0.73768  Biso   1.000  N
  N6       1.0000 0.68790  0.09100  0.66870  Biso   1.000  N
  N7       1.0000 0.54630  0.11764  0.60027  Biso   1.000  N
  N8       1.0000 0.52790  0.04234  0.66047  Biso   1.000  N
  N9       1.0000 0.54560  0.55806  0.82038  Biso   1.000  N
  N10      1.0000 0.68790  0.57770  0.90900  Biso   1.000  N
  N11      1.0000 0.54630  0.48263  0.88236  Biso   1.000  N
  N12      1.0000 0.52790  0.61813  0.95766  Biso   1.000  N
  N13      1.0000 0.04560  0.73768  0.55806  Biso   1.000  N
  N14      1.0000 0.18790  0.66870  0.57770  Biso   1.000  N
  N15      1.0000 0.04630  0.60027  0.48263  Biso   1.000  N
  N16      1.0000 0.02790  0.66047  0.61813  Biso   1.000  N
  N17      1.0000 0.04560  0.82038  0.26232  Biso   1.000  N
  N18      1.0000 0.18790  0.90900  0.33130  Biso   1.000  N
  N19      1.0000 0.04630  0.88236  0.39973  Biso   1.000  N
  N20      1.0000 0.02790  0.95766  0.33953  Biso   1.000  N
  N21      1.0000 0.04560  0.44194  0.17962  Biso   1.000  N
  N22      1.0000 0.18790  0.42230  0.09100  Biso   1.000  N
  N23      1.0000 0.04630  0.51737  0.11764  Biso   1.000  N
  N24      1.0000 0.02790  0.38187  0.04234  Biso   1.000  N
  N25      1.0000 0.45440  0.82038  0.55806  Biso   1.000  N
  N26      1.0000 0.31210  0.90900  0.57770  Biso   1.000  N
  N27      1.0000 0.45370  0.88236  0.48263  Biso   1.000  N
  N28      1.0000 0.47210  0.95766  0.61813  Biso   1.000  N
  N29      1.0000 0.45440  0.44194  0.26232  Biso   1.000  N
  N30      1.0000 0.31210  0.42230  0.33130  Biso   1.000  N
  N31      1.0000 0.45370  0.51737  0.39973  Biso   1.000  N
  N32      1.0000 0.47210  0.38187  0.33953  Biso   1.000  N
  N33      1.0000 0.45440  0.73768  0.17962  Biso   1.000  N
  N34      1.0000 0.31210  0.66870  0.09100  Biso   1.000  N
  N35      1.0000 0.45370  0.60027  0.11764  Biso   1.000  N
  N36      1.0000 0.47210  0.66047  0.04234  Biso   1.000  N
  N37      1.0000 0.95440  0.17962  0.44194  Biso   1.000  N
  N38      1.0000 0.81210  0.09100  0.42230  Biso   1.000  N
  N39      1.0000 0.95370  0.11764  0.51737  Biso   1.000  N
  N40      1.0000 0.97210  0.04234  0.38187  Biso   1.000  N
  N41      1.0000 0.95440  0.55806  0.73768  Biso   1.000  N
  N42      1.0000 0.81210  0.57770  0.66870  Biso   1.000  N
  N43      1.0000 0.95370  0.48263  0.60027  Biso   1.000  N
  N44      1.0000 0.97210  0.61813  0.66047  Biso   1.000  N
  N45      1.0000 0.95440  0.26232  0.82038  Biso   1.000  N
  N46      1.0000 0.81210  0.33130  0.90900  Biso   1.000  N
  N47      1.0000 0.95370  0.39973  0.88236  Biso   1.000  N
  N48      1.0000 0.97210  0.33953  0.95766  Biso   1.000  N
  N49      1.0000 0.45440  0.73768  0.55806  Biso   1.000  N
  N50      1.0000 0.31210  0.66870  0.57770  Biso   1.000  N
  N51      1.0000 0.45370  0.60027  0.48263  Biso   1.000  N
  N52      1.0000 0.47210  0.66047  0.61813  Biso   1.000  N
  N53      1.0000 0.45440  0.82038  0.26232  Biso   1.000  N
  N54      1.0000 0.31210  0.90900  0.33130  Biso   1.000  N
  N55      1.0000 0.45370  0.88236  0.39973  Biso   1.000  N
  N56      1.0000 0.47210  0.95766  0.33953  Biso   1.000  N
  N57      1.0000 0.45440  0.44194  0.17962  Biso   1.000  N
  N58      1.0000 0.31210  0.42230  0.09100  Biso   1.000  N
  N59      1.0000 0.45370  0.51737  0.11764  Biso   1.000  N
  N60      1.0000 0.47210  0.38187  0.04234  Biso   1.000  N
  N61      1.0000 0.95440  0.26232  0.44194  Biso   1.000  N
  N62      1.0000 0.81210  0.33130  0.42230  Biso   1.000  N
  N63      1.0000 0.95370  0.39973  0.51737  Biso   1.000  N
  N64      1.0000 0.97210  0.33953  0.38187  Biso   1.000  N
  N65      1.0000 0.95440  0.17962  0.73768  Biso   1.000  N
  N66      1.0000 0.81210  0.09100  0.66870  Biso   1.000  N
  N67      1.0000 0.95370  0.11764  0.60027  Biso   1.000  N
  N68      1.0000 0.97210  0.04234  0.66047  Biso   1.000  N
  N69      1.0000 0.95440  0.55806  0.82038  Biso   1.000  N
  N70      1.0000 0.81210  0.57770  0.90900  Biso   1.000  N
  N71      1.0000 0.95370  0.48263  0.88236  Biso   1.000  N
  N72      1.0000 0.97210  0.61813  0.95766  Biso   1.000  N
  N73      1.0000 0.54560  0.17962  0.44194  Biso   1.000  N
  N74      1.0000 0.68790  0.09100  0.42230  Biso   1.000  N
  N75      1.0000 0.54630  0.11764  0.51737  Biso   1.000  N
  N76      1.0000 0.52790  0.04234  0.38187  Biso   1.000  N
  N77      1.0000 0.54560  0.55806  0.73768  Biso   1.000  N
  N78      1.0000 0.68790  0.57770  0.66870  Biso   1.000  N
  N79      1.0000 0.54630  0.48263  0.60027  Biso   1.000  N
  N80      1.0000 0.52790  0.61813  0.66047  Biso   1.000  N
  N81      1.0000 0.54560  0.26232  0.82038  Biso   1.000  N
  N82      1.0000 0.68790  0.33130  0.90900  Biso   1.000  N
  N83      1.0000 0.54630  0.39973  0.88236  Biso   1.000  N
  N84      1.0000 0.52790  0.33953  0.95766  Biso   1.000  N
  N85      1.0000 0.04560  0.82038  0.55806  Biso   1.000  N
  N86      1.0000 0.18790  0.90900  0.57770  Biso   1.000  N
  N87      1.0000 0.04630  0.88236  0.48263  Biso   1.000  N
  N88      1.0000 0.02790  0.95766  0.61813  Biso   1.000  N
  N89      1.0000 0.04560  0.44194  0.26232  Biso   1.000  N
  N90      1.0000 0.18790  0.42230  0.33130  Biso   1.000  N
  N91      1.0000 0.04630  0.51737  0.39973  Biso   1.000  N
  N92      1.0000 0.02790  0.38187  0.33953  Biso   1.000  N
  N93      1.0000 0.04560  0.73768  0.17962  Biso   1.000  N
  N94      1.0000 0.18790  0.66870  0.09100  Biso   1.000  N
  N95      1.0000 0.04630  0.60027  0.11764  Biso   1.000  N
  N96      1.0000 0.02790  0.66047  0.04234  Biso   1.000  N
  N97      1.0000 0.75000  0.33180  0.50120  Biso   1.000  N
  N98      1.0000 0.75000  0.16940  0.66820  Biso   1.000  N
  N99      1.0000 0.75000  0.49880  0.83060  Biso   1.000  N
  N100     1.0000 0.25000  0.66820  0.49880  Biso   1.000  N
  N101     1.0000 0.25000  0.83060  0.33180  Biso   1.000  N
  N102     1.0000 0.25000  0.50120  0.16940  Biso   1.000  N
  N103     1.0000 0.25000  0.83060  0.49880  Biso   1.000  N
  N104     1.0000 0.25000  0.50120  0.33180  Biso   1.000  N
  N105     1.0000 0.25000  0.66820  0.16940  Biso   1.000  N
  N106     1.0000 0.75000  0.16940  0.50120  Biso   1.000  N
  N107     1.0000 0.75000  0.49880  0.66820  Biso   1.000  N
  N108     1.0000 0.75000  0.33180  0.83060  Biso   1.000  N
  O1       1.0000 0.69030  0.33210  0.52250  Biso   1.000  O
  O2       1.0000 0.69030  0.19040  0.66790  Biso   1.000  O
  O3       1.0000 0.69030  0.47750  0.80960  Biso   1.000  O
  O4       1.0000 0.19030  0.66790  0.47750  Biso   1.000  O
  O5       1.0000 0.19030  0.80960  0.33210  Biso   1.000  O
  O6       1.0000 0.19030  0.52250  0.19040  Biso   1.000  O
  O7       1.0000 0.30970  0.80960  0.47750  Biso   1.000  O
  O8       1.0000 0.30970  0.52250  0.33210  Biso   1.000  O
  O9       1.0000 0.30970  0.66790  0.19040  Biso   1.000  O
  O10      1.0000 0.80970  0.19040  0.52250  Biso   1.000  O
  O11      1.0000 0.80970  0.47750  0.66790  Biso   1.000  O
  O12      1.0000 0.80970  0.33210  0.80960  Biso   1.000  O
  O13      1.0000 0.30970  0.66790  0.47750  Biso   1.000  O
  O14      1.0000 0.30970  0.80960  0.33210  Biso   1.000  O
  O15      1.0000 0.30970  0.52250  0.19040  Biso   1.000  O
  O16      1.0000 0.80970  0.33210  0.52250  Biso   1.000  O
  O17      1.0000 0.80970  0.19040  0.66790  Biso   1.000  O
  O18      1.0000 0.80970  0.47750  0.80960  Biso   1.000  O
  O19      1.0000 0.69030  0.19040  0.52250  Biso   1.000  O
  O20      1.0000 0.69030  0.47750  0.66790  Biso   1.000  O
  O21      1.0000 0.69030  0.33210  0.80960  Biso   1.000  O
  O22      1.0000 0.19030  0.80960  0.47750  Biso   1.000  O
  O23      1.0000 0.19030  0.52250  0.33210  Biso   1.000  O
  O24      1.0000 0.19030  0.66790  0.19040  Biso   1.000  O
