data_image0
_cell_length_a       11.1248
_cell_length_b       17.6323
_cell_length_c       17.6323
_cell_angle_alpha    78.6463
_cell_angle_beta     71.611
_cell_angle_gamma    71.6111

_symmetry_space_group_name_H-M    P 1
_symmetry_int_tables_number       1

loop_
  _symmetry_equiv_pos_as_xyz
  'x, y, z'

loop_
  _atom_site_label
  _atom_site_occupancy
  _atom_site_fract_x
  _atom_site_fract_y
  _atom_site_fract_z
  _atom_site_thermal_displace_type
  _atom_site_B_iso_or_equiv
  _atom_site_type_symbol
  Zn1      1.0000 0.65515  0.32287  0.92819  Biso   1.000  Zn
  Zn2      1.0000 0.09379  0.92819  0.32287  Biso   1.000  Zn
  Zn3      1.0000 0.84485  0.57181  0.17713  Biso   1.000  Zn
  Zn4      1.0000 0.40621  0.17713  0.57181  Biso   1.000  Zn
  Zn5      1.0000 0.34485  0.67713  0.07181  Biso   1.000  Zn
  Zn6      1.0000 0.90621  0.07181  0.67713  Biso   1.000  Zn
  Zn7      1.0000 0.15515  0.42819  0.82287  Biso   1.000  Zn
  Zn8      1.0000 0.59379  0.82287  0.42819  Biso   1.000  Zn
  Zn9      1.0000 0.75000  0.25000  0.25000  Biso   1.000  Zn
  Zn10     1.0000 0.25000  0.75000  0.75000  Biso   1.000  Zn
  H1       1.0000 0.74220  0.11160  0.15500  Biso   1.000  H
  H2       1.0000 0.68870  0.14080  0.02480  Biso   1.000  H
  H3       1.0000 0.88380  0.33340  0.76620  Biso   1.000  H
  H4       1.0000 0.87030  0.54770  0.83850  Biso   1.000  H
  H5       1.0000 0.66630  0.50540  0.88020  Biso   1.000  H
  H6       1.0000 0.99120  0.15500  0.11160  Biso   1.000  H
  H7       1.0000 0.14570  0.02480  0.14080  Biso   1.000  H
  H8       1.0000 0.01660  0.76620  0.33340  Biso   1.000  H
  H9       1.0000 0.74350  0.83850  0.54770  Biso   1.000  H
  H10      1.0000 0.94810  0.88020  0.50540  Biso   1.000  H
  H11      1.0000 0.75780  0.34500  0.38840  Biso   1.000  H
  H12      1.0000 0.81130  0.47520  0.35920  Biso   1.000  H
  H13      1.0000 0.61620  0.73380  0.16660  Biso   1.000  H
  H14      1.0000 0.62970  0.66150  0.95230  Biso   1.000  H
  H15      1.0000 0.83370  0.61980  0.99460  Biso   1.000  H
  H16      1.0000 0.50880  0.38840  0.34500  Biso   1.000  H
  H17      1.0000 0.35430  0.35920  0.47520  Biso   1.000  H
  H18      1.0000 0.48340  0.16660  0.73380  Biso   1.000  H
  H19      1.0000 0.75650  0.95230  0.66150  Biso   1.000  H
  H20      1.0000 0.55190  0.99460  0.61980  Biso   1.000  H
  H21      1.0000 0.25780  0.88840  0.84500  Biso   1.000  H
  H22      1.0000 0.31130  0.85920  0.97520  Biso   1.000  H
  H23      1.0000 0.11620  0.66660  0.23380  Biso   1.000  H
  H24      1.0000 0.12970  0.45230  0.16150  Biso   1.000  H
  H25      1.0000 0.33370  0.49460  0.11980  Biso   1.000  H
  H26      1.0000 0.00880  0.84500  0.88840  Biso   1.000  H
  H27      1.0000 0.85430  0.97520  0.85920  Biso   1.000  H
  H28      1.0000 0.98340  0.23380  0.66660  Biso   1.000  H
  H29      1.0000 0.25650  0.16150  0.45230  Biso   1.000  H
  H30      1.0000 0.05190  0.11980  0.49460  Biso   1.000  H
  H31      1.0000 0.24220  0.65500  0.61160  Biso   1.000  H
  H32      1.0000 0.18870  0.52480  0.64080  Biso   1.000  H
  H33      1.0000 0.38380  0.26620  0.83340  Biso   1.000  H
  H34      1.0000 0.37030  0.33850  0.04770  Biso   1.000  H
  H35      1.0000 0.16630  0.38020  0.00540  Biso   1.000  H
  H36      1.0000 0.49120  0.61160  0.65500  Biso   1.000  H
  H37      1.0000 0.64570  0.64080  0.52480  Biso   1.000  H
  H38      1.0000 0.51660  0.83340  0.26620  Biso   1.000  H
  H39      1.0000 0.24350  0.04770  0.33850  Biso   1.000  H
  H40      1.0000 0.44810  0.00540  0.38020  Biso   1.000  H
  C1       1.0000 0.71130  0.16370  0.12950  Biso   1.000  C
  C2       1.0000 0.68210  0.17980  0.05720  Biso   1.000  C
  C3       1.0000 0.64721  0.28909  0.10269  Biso   1.000  C
  C4       1.0000 0.85750  0.28660  0.76820  Biso   1.000  C
  C5       1.0000 0.90773  0.37217  0.90237  Biso   1.000  C
  C6       1.0000 0.86340  0.49490  0.85990  Biso   1.000  C
  C7       1.0000 0.75060  0.47150  0.88290  Biso   1.000  C
  C8       1.0000 0.99550  0.12950  0.16370  Biso   1.000  C
  C9       1.0000 0.08090  0.05720  0.17980  Biso   1.000  C
  C10      1.0000 0.96101  0.10269  0.28909  Biso   1.000  C
  C11      1.0000 0.08770  0.76820  0.28660  Biso   1.000  C
  C12      1.0000 0.81773  0.90237  0.37217  Biso   1.000  C
  C13      1.0000 0.78180  0.85990  0.49490  Biso   1.000  C
  C14      1.0000 0.89500  0.88290  0.47150  Biso   1.000  C
  C15      1.0000 0.78870  0.37050  0.33630  Biso   1.000  C
  C16      1.0000 0.81790  0.44280  0.32020  Biso   1.000  C
  C17      1.0000 0.85279  0.39731  0.21091  Biso   1.000  C
  C18      1.0000 0.64250  0.73180  0.21340  Biso   1.000  C
  C19      1.0000 0.59227  0.59763  0.12783  Biso   1.000  C
  C20      1.0000 0.63660  0.64010  0.00510  Biso   1.000  C
  C21      1.0000 0.74940  0.61710  0.02850  Biso   1.000  C
  C22      1.0000 0.50450  0.33630  0.37050  Biso   1.000  C
  C23      1.0000 0.41910  0.32020  0.44280  Biso   1.000  C
  C24      1.0000 0.53899  0.21091  0.39731  Biso   1.000  C
  C25      1.0000 0.41230  0.21340  0.73180  Biso   1.000  C
  C26      1.0000 0.68227  0.12783  0.59763  Biso   1.000  C
  C27      1.0000 0.71820  0.00510  0.64010  Biso   1.000  C
  C28      1.0000 0.60500  0.02850  0.61710  Biso   1.000  C
  C29      1.0000 0.28870  0.83630  0.87050  Biso   1.000  C
  C30      1.0000 0.31790  0.82020  0.94280  Biso   1.000  C
  C31      1.0000 0.35279  0.71091  0.89731  Biso   1.000  C
  C32      1.0000 0.14250  0.71340  0.23180  Biso   1.000  C
  C33      1.0000 0.09227  0.62783  0.09763  Biso   1.000  C
  C34      1.0000 0.13660  0.50510  0.14010  Biso   1.000  C
  C35      1.0000 0.24940  0.52850  0.11710  Biso   1.000  C
  C36      1.0000 0.00450  0.87050  0.83630  Biso   1.000  C
  C37      1.0000 0.91910  0.94280  0.82020  Biso   1.000  C
  C38      1.0000 0.03899  0.89731  0.71091  Biso   1.000  C
  C39      1.0000 0.91230  0.23180  0.71340  Biso   1.000  C
  C40      1.0000 0.18227  0.09763  0.62783  Biso   1.000  C
  C41      1.0000 0.21820  0.14010  0.50510  Biso   1.000  C
  C42      1.0000 0.10500  0.11710  0.52850  Biso   1.000  C
  C43      1.0000 0.21130  0.62950  0.66370  Biso   1.000  C
  C44      1.0000 0.18210  0.55720  0.67980  Biso   1.000  C
  C45      1.0000 0.14721  0.60269  0.78909  Biso   1.000  C
  C46      1.0000 0.35750  0.26820  0.78660  Biso   1.000  C
  C47      1.0000 0.40773  0.40237  0.87217  Biso   1.000  C
  C48      1.0000 0.36340  0.35990  0.99490  Biso   1.000  C
  C49      1.0000 0.25060  0.38290  0.97150  Biso   1.000  C
  C50      1.0000 0.49550  0.66370  0.62950  Biso   1.000  C
  C51      1.0000 0.58090  0.67980  0.55720  Biso   1.000  C
  C52      1.0000 0.46101  0.78909  0.60269  Biso   1.000  C
  C53      1.0000 0.58770  0.78660  0.26820  Biso   1.000  C
  C54      1.0000 0.31773  0.87217  0.40237  Biso   1.000  C
  C55      1.0000 0.28180  0.99490  0.35990  Biso   1.000  C
  C56      1.0000 0.39500  0.97150  0.38290  Biso   1.000  C
  C57      1.0000 0.75870  0.19520  0.80480  Biso   1.000  C
  C58      1.0000 0.24130  0.80480  0.19520  Biso   1.000  C
  C59      1.0000 0.74130  0.69520  0.30480  Biso   1.000  C
  C60      1.0000 0.25870  0.30480  0.69520  Biso   1.000  C
  N1       1.0000 0.68941  0.23392  0.15886  Biso   1.000  N
  N2       1.0000 0.64187  0.26078  0.03948  Biso   1.000  N
  N3       1.0000 0.60438  0.37278  0.11246  Biso   1.000  N
  N4       1.0000 0.75245  0.26085  0.82985  Biso   1.000  N
  N5       1.0000 0.77752  0.39242  0.91034  Biso   1.000  N
  N6       1.0000 0.96464  0.43104  0.87188  Biso   1.000  N
  N7       1.0000 0.97849  0.29361  0.92801  Biso   1.000  N
  N8       1.0000 0.91781  0.15886  0.23392  Biso   1.000  N
  N9       1.0000 0.05787  0.03948  0.26078  Biso   1.000  N
  N10      1.0000 0.91038  0.11246  0.37278  Biso   1.000  N
  N11      1.0000 0.15685  0.82985  0.26085  Biso   1.000  N
  N12      1.0000 0.91972  0.91034  0.39242  Biso   1.000  N
  N13      1.0000 0.73244  0.87188  0.43104  Biso   1.000  N
  N14      1.0000 0.79989  0.92801  0.29361  Biso   1.000  N
  N15      1.0000 0.81059  0.34114  0.26608  Biso   1.000  N
  N16      1.0000 0.85813  0.46052  0.23922  Biso   1.000  N
  N17      1.0000 0.89562  0.38754  0.12722  Biso   1.000  N
  N18      1.0000 0.74755  0.67015  0.23915  Biso   1.000  N
  N19      1.0000 0.72248  0.58966  0.10758  Biso   1.000  N
  N20      1.0000 0.53536  0.62812  0.06896  Biso   1.000  N
  N21      1.0000 0.52151  0.57199  0.20639  Biso   1.000  N
  N22      1.0000 0.58219  0.26608  0.34114  Biso   1.000  N
  N23      1.0000 0.44213  0.23922  0.46052  Biso   1.000  N
  N24      1.0000 0.58962  0.12722  0.38754  Biso   1.000  N
  N25      1.0000 0.34315  0.23915  0.67015  Biso   1.000  N
  N26      1.0000 0.58028  0.10758  0.58966  Biso   1.000  N
  N27      1.0000 0.76756  0.06896  0.62812  Biso   1.000  N
  N28      1.0000 0.70011  0.20639  0.57199  Biso   1.000  N
  N29      1.0000 0.31059  0.76608  0.84114  Biso   1.000  N
  N30      1.0000 0.35813  0.73922  0.96052  Biso   1.000  N
  N31      1.0000 0.39562  0.62722  0.88754  Biso   1.000  N
  N32      1.0000 0.24755  0.73915  0.17015  Biso   1.000  N
  N33      1.0000 0.22248  0.60758  0.08966  Biso   1.000  N
  N34      1.0000 0.03536  0.56896  0.12812  Biso   1.000  N
  N35      1.0000 0.02151  0.70639  0.07199  Biso   1.000  N
  N36      1.0000 0.08219  0.84114  0.76608  Biso   1.000  N
  N37      1.0000 0.94213  0.96052  0.73922  Biso   1.000  N
  N38      1.0000 0.08962  0.88754  0.62722  Biso   1.000  N
  N39      1.0000 0.84315  0.17015  0.73915  Biso   1.000  N
  N40      1.0000 0.08028  0.08966  0.60758  Biso   1.000  N
  N41      1.0000 0.26756  0.12812  0.56896  Biso   1.000  N
  N42      1.0000 0.20011  0.07199  0.70639  Biso   1.000  N
  N43      1.0000 0.18941  0.65886  0.73392  Biso   1.000  N
  N44      1.0000 0.14187  0.53948  0.76078  Biso   1.000  N
  N45      1.0000 0.10438  0.61246  0.87278  Biso   1.000  N
  N46      1.0000 0.25245  0.32985  0.76085  Biso   1.000  N
  N47      1.0000 0.27752  0.41034  0.89242  Biso   1.000  N
  N48      1.0000 0.46464  0.37188  0.93104  Biso   1.000  N
  N49      1.0000 0.47849  0.42801  0.79361  Biso   1.000  N
  N50      1.0000 0.41781  0.73392  0.65886  Biso   1.000  N
  N51      1.0000 0.55787  0.76078  0.53948  Biso   1.000  N
  N52      1.0000 0.41038  0.87278  0.61246  Biso   1.000  N
  N53      1.0000 0.65685  0.76085  0.32985  Biso   1.000  N
  N54      1.0000 0.41972  0.89242  0.41034  Biso   1.000  N
  N55      1.0000 0.23244  0.93104  0.37188  Biso   1.000  N
  N56      1.0000 0.29989  0.79361  0.42801  Biso   1.000  N
  N57      1.0000 0.66070  0.15190  0.84810  Biso   1.000  N
  N58      1.0000 0.33930  0.84810  0.15190  Biso   1.000  N
  N59      1.0000 0.83930  0.65190  0.34810  Biso   1.000  N
  N60      1.0000 0.16070  0.34810  0.65190  Biso   1.000  N
  O1       1.0000 0.60777  0.39318  0.17448  Biso   1.000  O
  O2       1.0000 0.56350  0.42032  0.05888  Biso   1.000  O
  O3       1.0000 0.92057  0.24087  0.95299  Biso   1.000  O
  O4       1.0000 0.57773  0.17931  0.90763  Biso   1.000  O
  O5       1.0000 0.09544  0.28309  0.92443  Biso   1.000  O
  O6       1.0000 0.82457  0.17448  0.39318  Biso   1.000  O
  O7       1.0000 0.95730  0.05888  0.42032  Biso   1.000  O
  O8       1.0000 0.88557  0.95299  0.24087  Biso   1.000  O
  O9       1.0000 0.33533  0.90763  0.17931  Biso   1.000  O
  O10      1.0000 0.69704  0.92443  0.28309  Biso   1.000  O
  O11      1.0000 0.89223  0.32552  0.10682  Biso   1.000  O
  O12      1.0000 0.93650  0.44112  0.07968  Biso   1.000  O
  O13      1.0000 0.57943  0.54701  0.25913  Biso   1.000  O
  O14      1.0000 0.92227  0.59237  0.32069  Biso   1.000  O
  O15      1.0000 0.40456  0.57557  0.21691  Biso   1.000  O
  O16      1.0000 0.67543  0.10682  0.32552  Biso   1.000  O
  O17      1.0000 0.54270  0.07968  0.44112  Biso   1.000  O
  O18      1.0000 0.61443  0.25913  0.54701  Biso   1.000  O
  O19      1.0000 0.16467  0.32069  0.59237  Biso   1.000  O
  O20      1.0000 0.80296  0.21691  0.57557  Biso   1.000  O
  O21      1.0000 0.39223  0.60682  0.82552  Biso   1.000  O
  O22      1.0000 0.43650  0.57968  0.94112  Biso   1.000  O
  O23      1.0000 0.07943  0.75913  0.04701  Biso   1.000  O
  O24      1.0000 0.42227  0.82069  0.09237  Biso   1.000  O
  O25      1.0000 0.90456  0.71691  0.07557  Biso   1.000  O
  O26      1.0000 0.17543  0.82552  0.60682  Biso   1.000  O
  O27      1.0000 0.04270  0.94112  0.57968  Biso   1.000  O
  O28      1.0000 0.11443  0.04701  0.75913  Biso   1.000  O
  O29      1.0000 0.66467  0.09237  0.82069  Biso   1.000  O
  O30      1.0000 0.30296  0.07557  0.71691  Biso   1.000  O
  O31      1.0000 0.10777  0.67448  0.89318  Biso   1.000  O
  O32      1.0000 0.06350  0.55888  0.92032  Biso   1.000  O
  O33      1.0000 0.42057  0.45299  0.74087  Biso   1.000  O
  O34      1.0000 0.07773  0.40763  0.67931  Biso   1.000  O
  O35      1.0000 0.59544  0.42443  0.78309  Biso   1.000  O
  O36      1.0000 0.32457  0.89318  0.67448  Biso   1.000  O
  O37      1.0000 0.45730  0.92032  0.55888  Biso   1.000  O
  O38      1.0000 0.38557  0.74087  0.45299  Biso   1.000  O
  O39      1.0000 0.83533  0.67931  0.40763  Biso   1.000  O
  O40      1.0000 0.19704  0.78309  0.42443  Biso   1.000  O
