data_image0
_cell_length_a       15.914
_cell_length_b       15.914
_cell_length_c       35.966
_cell_angle_alpha    90
_cell_angle_beta     90
_cell_angle_gamma    120

_symmetry_space_group_name_H-M    "P 1"
_symmetry_int_tables_number       1

loop_
  _symmetry_equiv_pos_as_xyz
  'x, y, z'

loop_
  _atom_site_label
  _atom_site_occupancy
  _atom_site_fract_x
  _atom_site_fract_y
  _atom_site_fract_z
  _atom_site_thermal_displace_type
  _atom_site_B_iso_or_equiv
  _atom_site_type_symbol
  S1       1.0000 0.80280  0.39520  0.03920  Biso   1.000  S
  N1       1.0000 0.96540  0.38950  0.02860  Biso   1.000  N
  C1       1.0000 0.86910  0.33670  0.03800  Biso   1.000  C
  C2       1.0000 0.83140  0.23810  0.04520  Biso   1.000  C
  C3       1.0000 0.88780  0.19620  0.04320  Biso   1.000  C
  C4       1.0000 0.98560  0.25120  0.03340  Biso   1.000  C
  C5       1.0000 0.02220  0.34820  0.02620  Biso   1.000  C
  C6       1.0000 0.01090  0.49330  0.02020  Biso   1.000  C
  H1       1.0000 0.76630  0.20010  0.05160  Biso   1.000  H
  H2       1.0000 0.86090  0.13040  0.04830  Biso   1.000  H
  H3       1.0000 0.02470  0.22310  0.03180  Biso   1.000  H
  H4       1.0000 0.08710  0.38640  0.01960  Biso   1.000  H
  H5       1.0000 0.08050  0.52410  0.02390  Biso   1.000  H
  H6       1.0000 0.98590  0.52350  0.03690  Biso   1.000  H
  S2       1.0000 0.46947  0.72853  0.37253  Biso   1.000  S
  N2       1.0000 0.63207  0.72283  0.36193  Biso   1.000  N
  C7       1.0000 0.53577  0.67003  0.37133  Biso   1.000  C
  C8       1.0000 0.49807  0.57143  0.37853  Biso   1.000  C
  C9       1.0000 0.55447  0.52953  0.37653  Biso   1.000  C
  C10      1.0000 0.65227  0.58453  0.36673  Biso   1.000  C
  C11      1.0000 0.68887  0.68153  0.35953  Biso   1.000  C
  C12      1.0000 0.67757  0.82663  0.35353  Biso   1.000  C
  H7       1.0000 0.43297  0.53343  0.38493  Biso   1.000  H
  H8       1.0000 0.52757  0.46373  0.38163  Biso   1.000  H
  H9       1.0000 0.69137  0.55643  0.36513  Biso   1.000  H
  H10      1.0000 0.75377  0.71973  0.35293  Biso   1.000  H
  H11      1.0000 0.74717  0.85743  0.35723  Biso   1.000  H
  H12      1.0000 0.65257  0.85683  0.37023  Biso   1.000  H
  S3       1.0000 0.13613  0.06187  0.70587  Biso   1.000  S
  N3       1.0000 0.29873  0.05617  0.69527  Biso   1.000  N
  C13      1.0000 0.20243  0.00337  0.70467  Biso   1.000  C
  C14      1.0000 0.16473  0.90477  0.71187  Biso   1.000  C
  C15      1.0000 0.22113  0.86287  0.70987  Biso   1.000  C
  C16      1.0000 0.31893  0.91787  0.70007  Biso   1.000  C
  C17      1.0000 0.35553  0.01487  0.69287  Biso   1.000  C
  C18      1.0000 0.34423  0.15997  0.68687  Biso   1.000  C
  H13      1.0000 0.09963  0.86677  0.71827  Biso   1.000  H
  H14      1.0000 0.19423  0.79707  0.71497  Biso   1.000  H
  H15      1.0000 0.35803  0.88977  0.69847  Biso   1.000  H
  H16      1.0000 0.42043  0.05307  0.68627  Biso   1.000  H
  H17      1.0000 0.41383  0.19077  0.69057  Biso   1.000  H
  H18      1.0000 0.31923  0.19017  0.70357  Biso   1.000  H
  S4       1.0000 0.60480  0.40760  0.03920  Biso   1.000  S
  N4       1.0000 0.61050  0.57590  0.02860  Biso   1.000  N
  C19      1.0000 0.66330  0.53240  0.03800  Biso   1.000  C
  C20      1.0000 0.76190  0.59330  0.04520  Biso   1.000  C
  C21      1.0000 0.80380  0.69160  0.04320  Biso   1.000  C
  C22      1.0000 0.74880  0.73440  0.03340  Biso   1.000  C
  C23      1.0000 0.65180  0.67400  0.02620  Biso   1.000  C
  C24      1.0000 0.50670  0.51760  0.02020  Biso   1.000  C
  H19      1.0000 0.79990  0.56620  0.05160  Biso   1.000  H
  H20      1.0000 0.86960  0.73050  0.04830  Biso   1.000  H
  H21      1.0000 0.77690  0.80160  0.03180  Biso   1.000  H
  H22      1.0000 0.61360  0.70070  0.01960  Biso   1.000  H
  H23      1.0000 0.47590  0.55640  0.02390  Biso   1.000  H
  H24      1.0000 0.47650  0.46240  0.03690  Biso   1.000  H
  S5       1.0000 0.27147  0.74093  0.37253  Biso   1.000  S
  N5       1.0000 0.27717  0.90923  0.36193  Biso   1.000  N
  C25      1.0000 0.32997  0.86573  0.37133  Biso   1.000  C
  C26      1.0000 0.42857  0.92663  0.37853  Biso   1.000  C
  C27      1.0000 0.47047  0.02493  0.37653  Biso   1.000  C
  C28      1.0000 0.41547  0.06773  0.36673  Biso   1.000  C
  C29      1.0000 0.31847  0.00733  0.35953  Biso   1.000  C
  C30      1.0000 0.17337  0.85093  0.35353  Biso   1.000  C
  H25      1.0000 0.46657  0.89953  0.38493  Biso   1.000  H
  H26      1.0000 0.53627  0.06383  0.38163  Biso   1.000  H
  H27      1.0000 0.44357  0.13493  0.36513  Biso   1.000  H
  H28      1.0000 0.28027  0.03403  0.35293  Biso   1.000  H
  H29      1.0000 0.14257  0.88973  0.35723  Biso   1.000  H
  H30      1.0000 0.14317  0.79573  0.37023  Biso   1.000  H
  S6       1.0000 0.93813  0.07427  0.70587  Biso   1.000  S
  N6       1.0000 0.94383  0.24257  0.69527  Biso   1.000  N
  C31      1.0000 0.99663  0.19907  0.70467  Biso   1.000  C
  C32      1.0000 0.09523  0.25997  0.71187  Biso   1.000  C
  C33      1.0000 0.13713  0.35827  0.70987  Biso   1.000  C
  C34      1.0000 0.08213  0.40107  0.70007  Biso   1.000  C
  C35      1.0000 0.98513  0.34067  0.69287  Biso   1.000  C
  C36      1.0000 0.84003  0.18427  0.68687  Biso   1.000  C
  H31      1.0000 0.13323  0.23287  0.71827  Biso   1.000  H
  H32      1.0000 0.20293  0.39717  0.71497  Biso   1.000  H
  H33      1.0000 0.11023  0.46827  0.69847  Biso   1.000  H
  H34      1.0000 0.94693  0.36737  0.68627  Biso   1.000  H
  H35      1.0000 0.80923  0.22307  0.69057  Biso   1.000  H
  H36      1.0000 0.80983  0.12907  0.70357  Biso   1.000  H
  S7       1.0000 0.59240  0.19720  0.03920  Biso   1.000  S
  N7       1.0000 0.42410  0.03460  0.02860  Biso   1.000  N
  C37      1.0000 0.46760  0.13090  0.03800  Biso   1.000  C
  C38      1.0000 0.40670  0.16860  0.04520  Biso   1.000  C
  C39      1.0000 0.30840  0.11220  0.04320  Biso   1.000  C
  C40      1.0000 0.26560  0.01440  0.03340  Biso   1.000  C
  C41      1.0000 0.32600  0.97780  0.02620  Biso   1.000  C
  C42      1.0000 0.48240  0.98910  0.02020  Biso   1.000  C
  H37      1.0000 0.43380  0.23370  0.05160  Biso   1.000  H
  H38      1.0000 0.26950  0.13910  0.04830  Biso   1.000  H
  H39      1.0000 0.19840  0.97530  0.03180  Biso   1.000  H
  H40      1.0000 0.29930  0.91290  0.01960  Biso   1.000  H
  H41      1.0000 0.44360  0.91950  0.02390  Biso   1.000  H
  H42      1.0000 0.53760  0.01410  0.03690  Biso   1.000  H
  S8       1.0000 0.25907  0.53053  0.37253  Biso   1.000  S
  N8       1.0000 0.09077  0.36793  0.36193  Biso   1.000  N
  C43      1.0000 0.13427  0.46423  0.37133  Biso   1.000  C
  C44      1.0000 0.07337  0.50193  0.37853  Biso   1.000  C
  C45      1.0000 0.97507  0.44553  0.37653  Biso   1.000  C
  C46      1.0000 0.93227  0.34773  0.36673  Biso   1.000  C
  C47      1.0000 0.99267  0.31113  0.35953  Biso   1.000  C
  C48      1.0000 0.14907  0.32243  0.35353  Biso   1.000  C
  H43      1.0000 0.10047  0.56703  0.38493  Biso   1.000  H
  H44      1.0000 0.93617  0.47243  0.38163  Biso   1.000  H
  H45      1.0000 0.86507  0.30863  0.36513  Biso   1.000  H
  H46      1.0000 0.96597  0.24623  0.35293  Biso   1.000  H
  H47      1.0000 0.11027  0.25283  0.35723  Biso   1.000  H
  H48      1.0000 0.20427  0.34743  0.37023  Biso   1.000  H
  S9       1.0000 0.92573  0.86387  0.70587  Biso   1.000  S
  N9       1.0000 0.75743  0.70127  0.69527  Biso   1.000  N
  C49      1.0000 0.80093  0.79757  0.70467  Biso   1.000  C
  C50      1.0000 0.74003  0.83527  0.71187  Biso   1.000  C
  C51      1.0000 0.64173  0.77887  0.70987  Biso   1.000  C
  C52      1.0000 0.59893  0.68107  0.70007  Biso   1.000  C
  C53      1.0000 0.65933  0.64447  0.69287  Biso   1.000  C
  C54      1.0000 0.81573  0.65577  0.68687  Biso   1.000  C
  H49      1.0000 0.76713  0.90037  0.71827  Biso   1.000  H
  H50      1.0000 0.60283  0.80577  0.71497  Biso   1.000  H
  H51      1.0000 0.53173  0.64197  0.69847  Biso   1.000  H
  H52      1.0000 0.63263  0.57957  0.68627  Biso   1.000  H
  H53      1.0000 0.77693  0.58617  0.69057  Biso   1.000  H
  H54      1.0000 0.87093  0.68077  0.70357  Biso   1.000  H
  S10      1.0000 0.39520  0.80280  0.46080  Biso   1.000  S
  N10      1.0000 0.38950  0.96540  0.47140  Biso   1.000  N
  C55      1.0000 0.33670  0.86910  0.46200  Biso   1.000  C
  C56      1.0000 0.23810  0.83140  0.45480  Biso   1.000  C
  C57      1.0000 0.19620  0.88780  0.45680  Biso   1.000  C
  C58      1.0000 0.25120  0.98560  0.46660  Biso   1.000  C
  C59      1.0000 0.34820  0.02220  0.47380  Biso   1.000  C
  C60      1.0000 0.49330  0.01090  0.47980  Biso   1.000  C
  H55      1.0000 0.20010  0.76630  0.44840  Biso   1.000  H
  H56      1.0000 0.13040  0.86090  0.45170  Biso   1.000  H
  H57      1.0000 0.22310  0.02470  0.46820  Biso   1.000  H
  H58      1.0000 0.38640  0.08710  0.48040  Biso   1.000  H
  H59      1.0000 0.52410  0.08050  0.47610  Biso   1.000  H
  H60      1.0000 0.52350  0.98590  0.46310  Biso   1.000  H
  S11      1.0000 0.06187  0.13613  0.79413  Biso   1.000  S
  N11      1.0000 0.05617  0.29873  0.80473  Biso   1.000  N
  C61      1.0000 0.00337  0.20243  0.79533  Biso   1.000  C
  C62      1.0000 0.90477  0.16473  0.78813  Biso   1.000  C
  C63      1.0000 0.86287  0.22113  0.79013  Biso   1.000  C
  C64      1.0000 0.91787  0.31893  0.79993  Biso   1.000  C
  C65      1.0000 0.01487  0.35553  0.80713  Biso   1.000  C
  C66      1.0000 0.15997  0.34423  0.81313  Biso   1.000  C
  H61      1.0000 0.86677  0.09963  0.78173  Biso   1.000  H
  H62      1.0000 0.79707  0.19423  0.78503  Biso   1.000  H
  H63      1.0000 0.88977  0.35803  0.80153  Biso   1.000  H
  H64      1.0000 0.05307  0.42043  0.81373  Biso   1.000  H
  H65      1.0000 0.19077  0.41383  0.80943  Biso   1.000  H
  H66      1.0000 0.19017  0.31923  0.79643  Biso   1.000  H
  S12      1.0000 0.72853  0.46947  0.12747  Biso   1.000  S
  N12      1.0000 0.72283  0.63207  0.13807  Biso   1.000  N
  C67      1.0000 0.67003  0.53577  0.12867  Biso   1.000  C
  C68      1.0000 0.57143  0.49807  0.12147  Biso   1.000  C
  C69      1.0000 0.52953  0.55447  0.12347  Biso   1.000  C
  C70      1.0000 0.58453  0.65227  0.13327  Biso   1.000  C
  C71      1.0000 0.68153  0.68887  0.14047  Biso   1.000  C
  C72      1.0000 0.82663  0.67757  0.14647  Biso   1.000  C
  H67      1.0000 0.53343  0.43297  0.11507  Biso   1.000  H
  H68      1.0000 0.46373  0.52757  0.11837  Biso   1.000  H
  H69      1.0000 0.55643  0.69137  0.13487  Biso   1.000  H
  H70      1.0000 0.71973  0.75377  0.14707  Biso   1.000  H
  H71      1.0000 0.85743  0.74717  0.14277  Biso   1.000  H
  H72      1.0000 0.85683  0.65257  0.12977  Biso   1.000  H
  S13      1.0000 0.40760  0.60480  0.46080  Biso   1.000  S
  N13      1.0000 0.57590  0.61050  0.47140  Biso   1.000  N
  C73      1.0000 0.53240  0.66330  0.46200  Biso   1.000  C
  C74      1.0000 0.59330  0.76190  0.45480  Biso   1.000  C
  C75      1.0000 0.69160  0.80380  0.45680  Biso   1.000  C
  C76      1.0000 0.73440  0.74880  0.46660  Biso   1.000  C
  C77      1.0000 0.67400  0.65180  0.47380  Biso   1.000  C
  C78      1.0000 0.51760  0.50670  0.47980  Biso   1.000  C
  H73      1.0000 0.56620  0.79990  0.44840  Biso   1.000  H
  H74      1.0000 0.73050  0.86960  0.45170  Biso   1.000  H
  H75      1.0000 0.80160  0.77690  0.46820  Biso   1.000  H
  H76      1.0000 0.70070  0.61360  0.48040  Biso   1.000  H
  H77      1.0000 0.55640  0.47590  0.47610  Biso   1.000  H
  H78      1.0000 0.46240  0.47650  0.46310  Biso   1.000  H
  S14      1.0000 0.07427  0.93813  0.79413  Biso   1.000  S
  N14      1.0000 0.24257  0.94383  0.80473  Biso   1.000  N
  C79      1.0000 0.19907  0.99663  0.79533  Biso   1.000  C
  C80      1.0000 0.25997  0.09523  0.78813  Biso   1.000  C
  C81      1.0000 0.35827  0.13713  0.79013  Biso   1.000  C
  C82      1.0000 0.40107  0.08213  0.79993  Biso   1.000  C
  C83      1.0000 0.34067  0.98513  0.80713  Biso   1.000  C
  C84      1.0000 0.18427  0.84003  0.81313  Biso   1.000  C
  H79      1.0000 0.23287  0.13323  0.78173  Biso   1.000  H
  H80      1.0000 0.39717  0.20293  0.78503  Biso   1.000  H
  H81      1.0000 0.46827  0.11023  0.80153  Biso   1.000  H
  H82      1.0000 0.36737  0.94693  0.81373  Biso   1.000  H
  H83      1.0000 0.22307  0.80923  0.80943  Biso   1.000  H
  H84      1.0000 0.12907  0.80983  0.79643  Biso   1.000  H
  S15      1.0000 0.74093  0.27147  0.12747  Biso   1.000  S
  N15      1.0000 0.90923  0.27717  0.13807  Biso   1.000  N
  C85      1.0000 0.86573  0.32997  0.12867  Biso   1.000  C
  C86      1.0000 0.92663  0.42857  0.12147  Biso   1.000  C
  C87      1.0000 0.02493  0.47047  0.12347  Biso   1.000  C
  C88      1.0000 0.06773  0.41547  0.13327  Biso   1.000  C
  C89      1.0000 0.00733  0.31847  0.14047  Biso   1.000  C
  C90      1.0000 0.85093  0.17337  0.14647  Biso   1.000  C
  H85      1.0000 0.89953  0.46657  0.11507  Biso   1.000  H
  H86      1.0000 0.06383  0.53627  0.11837  Biso   1.000  H
  H87      1.0000 0.13493  0.44357  0.13487  Biso   1.000  H
  H88      1.0000 0.03403  0.28027  0.14707  Biso   1.000  H
  H89      1.0000 0.88973  0.14257  0.14277  Biso   1.000  H
  H90      1.0000 0.79573  0.14317  0.12977  Biso   1.000  H
  S16      1.0000 0.19720  0.59240  0.46080  Biso   1.000  S
  N16      1.0000 0.03460  0.42410  0.47140  Biso   1.000  N
  C91      1.0000 0.13090  0.46760  0.46200  Biso   1.000  C
  C92      1.0000 0.16860  0.40670  0.45480  Biso   1.000  C
  C93      1.0000 0.11220  0.30840  0.45680  Biso   1.000  C
  C94      1.0000 0.01440  0.26560  0.46660  Biso   1.000  C
  C95      1.0000 0.97780  0.32600  0.47380  Biso   1.000  C
  C96      1.0000 0.98910  0.48240  0.47980  Biso   1.000  C
  H91      1.0000 0.23370  0.43380  0.44840  Biso   1.000  H
  H92      1.0000 0.13910  0.26950  0.45170  Biso   1.000  H
  H93      1.0000 0.97530  0.19840  0.46820  Biso   1.000  H
  H94      1.0000 0.91290  0.29930  0.48040  Biso   1.000  H
  H95      1.0000 0.91950  0.44360  0.47610  Biso   1.000  H
  H96      1.0000 0.01410  0.53760  0.46310  Biso   1.000  H
  S17      1.0000 0.86387  0.92573  0.79413  Biso   1.000  S
  N17      1.0000 0.70127  0.75743  0.80473  Biso   1.000  N
  C97      1.0000 0.79757  0.80093  0.79533  Biso   1.000  C
  C98      1.0000 0.83527  0.74003  0.78813  Biso   1.000  C
  C99      1.0000 0.77887  0.64173  0.79013  Biso   1.000  C
  C100     1.0000 0.68107  0.59893  0.79993  Biso   1.000  C
  C101     1.0000 0.64447  0.65933  0.80713  Biso   1.000  C
  C102     1.0000 0.65577  0.81573  0.81313  Biso   1.000  C
  H97      1.0000 0.90037  0.76713  0.78173  Biso   1.000  H
  H98      1.0000 0.80577  0.60283  0.78503  Biso   1.000  H
  H99      1.0000 0.64197  0.53173  0.80153  Biso   1.000  H
  H100     1.0000 0.57957  0.63263  0.81373  Biso   1.000  H
  H101     1.0000 0.58617  0.77693  0.80943  Biso   1.000  H
  H102     1.0000 0.68077  0.87093  0.79643  Biso   1.000  H
  S18      1.0000 0.53053  0.25907  0.12747  Biso   1.000  S
  N18      1.0000 0.36793  0.09077  0.13807  Biso   1.000  N
  C103     1.0000 0.46423  0.13427  0.12867  Biso   1.000  C
  C104     1.0000 0.50193  0.07337  0.12147  Biso   1.000  C
  C105     1.0000 0.44553  0.97507  0.12347  Biso   1.000  C
  C106     1.0000 0.34773  0.93227  0.13327  Biso   1.000  C
  C107     1.0000 0.31113  0.99267  0.14047  Biso   1.000  C
  C108     1.0000 0.32243  0.14907  0.14647  Biso   1.000  C
  H103     1.0000 0.56703  0.10047  0.11507  Biso   1.000  H
  H104     1.0000 0.47243  0.93617  0.11837  Biso   1.000  H
  H105     1.0000 0.30863  0.86507  0.13487  Biso   1.000  H
  H106     1.0000 0.24623  0.96597  0.14707  Biso   1.000  H
  H107     1.0000 0.25283  0.11027  0.14277  Biso   1.000  H
  H108     1.0000 0.34743  0.20427  0.12977  Biso   1.000  H
  S19      1.0000 0.19720  0.60480  0.96080  Biso   1.000  S
  N19      1.0000 0.03460  0.61050  0.97140  Biso   1.000  N
  C109     1.0000 0.13090  0.66330  0.96200  Biso   1.000  C
  C110     1.0000 0.16860  0.76190  0.95480  Biso   1.000  C
  C111     1.0000 0.11220  0.80380  0.95680  Biso   1.000  C
  C112     1.0000 0.01440  0.74880  0.96660  Biso   1.000  C
  C113     1.0000 0.97780  0.65180  0.97380  Biso   1.000  C
  C114     1.0000 0.98910  0.50670  0.97980  Biso   1.000  C
  H109     1.0000 0.23370  0.79990  0.94840  Biso   1.000  H
  H110     1.0000 0.13910  0.86960  0.95170  Biso   1.000  H
  H111     1.0000 0.97530  0.77690  0.96820  Biso   1.000  H
  H112     1.0000 0.91290  0.61360  0.98040  Biso   1.000  H
  H113     1.0000 0.91950  0.47590  0.97610  Biso   1.000  H
  H114     1.0000 0.01410  0.47650  0.96310  Biso   1.000  H
  S20      1.0000 0.86387  0.93813  0.29413  Biso   1.000  S
  N20      1.0000 0.70127  0.94383  0.30473  Biso   1.000  N
  C115     1.0000 0.79757  0.99663  0.29533  Biso   1.000  C
  C116     1.0000 0.83527  0.09523  0.28813  Biso   1.000  C
  C117     1.0000 0.77887  0.13713  0.29013  Biso   1.000  C
  C118     1.0000 0.68107  0.08213  0.29993  Biso   1.000  C
  C119     1.0000 0.64447  0.98513  0.30713  Biso   1.000  C
  C120     1.0000 0.65577  0.84003  0.31313  Biso   1.000  C
  H115     1.0000 0.90037  0.13323  0.28173  Biso   1.000  H
  H116     1.0000 0.80577  0.20293  0.28503  Biso   1.000  H
  H117     1.0000 0.64197  0.11023  0.30153  Biso   1.000  H
  H118     1.0000 0.57957  0.94693  0.31373  Biso   1.000  H
  H119     1.0000 0.58617  0.80923  0.30943  Biso   1.000  H
  H120     1.0000 0.68077  0.80983  0.29643  Biso   1.000  H
  S21      1.0000 0.53053  0.27147  0.62747  Biso   1.000  S
  N21      1.0000 0.36793  0.27717  0.63807  Biso   1.000  N
  C121     1.0000 0.46423  0.32997  0.62867  Biso   1.000  C
  C122     1.0000 0.50193  0.42857  0.62147  Biso   1.000  C
  C123     1.0000 0.44553  0.47047  0.62347  Biso   1.000  C
  C124     1.0000 0.34773  0.41547  0.63327  Biso   1.000  C
  C125     1.0000 0.31113  0.31847  0.64047  Biso   1.000  C
  C126     1.0000 0.32243  0.17337  0.64647  Biso   1.000  C
  H121     1.0000 0.56703  0.46657  0.61507  Biso   1.000  H
  H122     1.0000 0.47243  0.53627  0.61837  Biso   1.000  H
  H123     1.0000 0.30863  0.44357  0.63487  Biso   1.000  H
  H124     1.0000 0.24623  0.28027  0.64707  Biso   1.000  H
  H125     1.0000 0.25283  0.14257  0.64277  Biso   1.000  H
  H126     1.0000 0.34743  0.14317  0.62977  Biso   1.000  H
  S22      1.0000 0.39520  0.59240  0.96080  Biso   1.000  S
  N22      1.0000 0.38950  0.42410  0.97140  Biso   1.000  N
  C127     1.0000 0.33670  0.46760  0.96200  Biso   1.000  C
  C128     1.0000 0.23810  0.40670  0.95480  Biso   1.000  C
  C129     1.0000 0.19620  0.30840  0.95680  Biso   1.000  C
  C130     1.0000 0.25120  0.26560  0.96660  Biso   1.000  C
  C131     1.0000 0.34820  0.32600  0.97380  Biso   1.000  C
  C132     1.0000 0.49330  0.48240  0.97980  Biso   1.000  C
  H127     1.0000 0.20010  0.43380  0.94840  Biso   1.000  H
  H128     1.0000 0.13040  0.26950  0.95170  Biso   1.000  H
  H129     1.0000 0.22310  0.19840  0.96820  Biso   1.000  H
  H130     1.0000 0.38640  0.29930  0.98040  Biso   1.000  H
  H131     1.0000 0.52410  0.44360  0.97610  Biso   1.000  H
  H132     1.0000 0.52350  0.53760  0.96310  Biso   1.000  H
  S23      1.0000 0.06187  0.92573  0.29413  Biso   1.000  S
  N23      1.0000 0.05617  0.75743  0.30473  Biso   1.000  N
  C133     1.0000 0.00337  0.80093  0.29533  Biso   1.000  C
  C134     1.0000 0.90477  0.74003  0.28813  Biso   1.000  C
  C135     1.0000 0.86287  0.64173  0.29013  Biso   1.000  C
  C136     1.0000 0.91787  0.59893  0.29993  Biso   1.000  C
  C137     1.0000 0.01487  0.65933  0.30713  Biso   1.000  C
  C138     1.0000 0.15997  0.81573  0.31313  Biso   1.000  C
  H133     1.0000 0.86677  0.76713  0.28173  Biso   1.000  H
  H134     1.0000 0.79707  0.60283  0.28503  Biso   1.000  H
  H135     1.0000 0.88977  0.53173  0.30153  Biso   1.000  H
  H136     1.0000 0.05307  0.63263  0.31373  Biso   1.000  H
  H137     1.0000 0.19077  0.77693  0.30943  Biso   1.000  H
  H138     1.0000 0.19017  0.87093  0.29643  Biso   1.000  H
  S24      1.0000 0.72853  0.25907  0.62747  Biso   1.000  S
  N24      1.0000 0.72283  0.09077  0.63807  Biso   1.000  N
  C139     1.0000 0.67003  0.13427  0.62867  Biso   1.000  C
  C140     1.0000 0.57143  0.07337  0.62147  Biso   1.000  C
  C141     1.0000 0.52953  0.97507  0.62347  Biso   1.000  C
  C142     1.0000 0.58453  0.93227  0.63327  Biso   1.000  C
  C143     1.0000 0.68153  0.99267  0.64047  Biso   1.000  C
  C144     1.0000 0.82663  0.14907  0.64647  Biso   1.000  C
  H139     1.0000 0.53343  0.10047  0.61507  Biso   1.000  H
  H140     1.0000 0.46373  0.93617  0.61837  Biso   1.000  H
  H141     1.0000 0.55643  0.86507  0.63487  Biso   1.000  H
  H142     1.0000 0.71973  0.96597  0.64707  Biso   1.000  H
  H143     1.0000 0.85743  0.11027  0.64277  Biso   1.000  H
  H144     1.0000 0.85683  0.20427  0.62977  Biso   1.000  H
  S25      1.0000 0.40760  0.80280  0.96080  Biso   1.000  S
  N25      1.0000 0.57590  0.96540  0.97140  Biso   1.000  N
  C145     1.0000 0.53240  0.86910  0.96200  Biso   1.000  C
  C146     1.0000 0.59330  0.83140  0.95480  Biso   1.000  C
  C147     1.0000 0.69160  0.88780  0.95680  Biso   1.000  C
  C148     1.0000 0.73440  0.98560  0.96660  Biso   1.000  C
  C149     1.0000 0.67400  0.02220  0.97380  Biso   1.000  C
  C150     1.0000 0.51760  0.01090  0.97980  Biso   1.000  C
  H145     1.0000 0.56620  0.76630  0.94840  Biso   1.000  H
  H146     1.0000 0.73050  0.86090  0.95170  Biso   1.000  H
  H147     1.0000 0.80160  0.02470  0.96820  Biso   1.000  H
  H148     1.0000 0.70070  0.08710  0.98040  Biso   1.000  H
  H149     1.0000 0.55640  0.08050  0.97610  Biso   1.000  H
  H150     1.0000 0.46240  0.98590  0.96310  Biso   1.000  H
  S26      1.0000 0.07427  0.13613  0.29413  Biso   1.000  S
  N26      1.0000 0.24257  0.29873  0.30473  Biso   1.000  N
  C151     1.0000 0.19907  0.20243  0.29533  Biso   1.000  C
  C152     1.0000 0.25997  0.16473  0.28813  Biso   1.000  C
  C153     1.0000 0.35827  0.22113  0.29013  Biso   1.000  C
  C154     1.0000 0.40107  0.31893  0.29993  Biso   1.000  C
  C155     1.0000 0.34067  0.35553  0.30713  Biso   1.000  C
  C156     1.0000 0.18427  0.34423  0.31313  Biso   1.000  C
  H151     1.0000 0.23287  0.09963  0.28173  Biso   1.000  H
  H152     1.0000 0.39717  0.19423  0.28503  Biso   1.000  H
  H153     1.0000 0.46827  0.35803  0.30153  Biso   1.000  H
  H154     1.0000 0.36737  0.42043  0.31373  Biso   1.000  H
  H155     1.0000 0.22307  0.41383  0.30943  Biso   1.000  H
  H156     1.0000 0.12907  0.31923  0.29643  Biso   1.000  H
  S27      1.0000 0.74093  0.46947  0.62747  Biso   1.000  S
  N27      1.0000 0.90923  0.63207  0.63807  Biso   1.000  N
  C157     1.0000 0.86573  0.53577  0.62867  Biso   1.000  C
  C158     1.0000 0.92663  0.49807  0.62147  Biso   1.000  C
  C159     1.0000 0.02493  0.55447  0.62347  Biso   1.000  C
  C160     1.0000 0.06773  0.65227  0.63327  Biso   1.000  C
  C161     1.0000 0.00733  0.68887  0.64047  Biso   1.000  C
  C162     1.0000 0.85093  0.67757  0.64647  Biso   1.000  C
  H157     1.0000 0.89953  0.43297  0.61507  Biso   1.000  H
  H158     1.0000 0.06383  0.52757  0.61837  Biso   1.000  H
  H159     1.0000 0.13493  0.69137  0.63487  Biso   1.000  H
  H160     1.0000 0.03403  0.75377  0.64707  Biso   1.000  H
  H161     1.0000 0.88973  0.74717  0.64277  Biso   1.000  H
  H162     1.0000 0.79573  0.65257  0.62977  Biso   1.000  H
  S28      1.0000 0.60480  0.19720  0.53920  Biso   1.000  S
  N28      1.0000 0.61050  0.03460  0.52860  Biso   1.000  N
  C163     1.0000 0.66330  0.13090  0.53800  Biso   1.000  C
  C164     1.0000 0.76190  0.16860  0.54520  Biso   1.000  C
  C165     1.0000 0.80380  0.11220  0.54320  Biso   1.000  C
  C166     1.0000 0.74880  0.01440  0.53340  Biso   1.000  C
  C167     1.0000 0.65180  0.97780  0.52620  Biso   1.000  C
  C168     1.0000 0.50670  0.98910  0.52020  Biso   1.000  C
  H163     1.0000 0.79990  0.23370  0.55160  Biso   1.000  H
  H164     1.0000 0.86960  0.13910  0.54830  Biso   1.000  H
  H165     1.0000 0.77690  0.97530  0.53180  Biso   1.000  H
  H166     1.0000 0.61360  0.91290  0.51960  Biso   1.000  H
  H167     1.0000 0.47590  0.91950  0.52390  Biso   1.000  H
  H168     1.0000 0.47650  0.01410  0.53690  Biso   1.000  H
  S29      1.0000 0.27147  0.53053  0.87253  Biso   1.000  S
  N29      1.0000 0.27717  0.36793  0.86193  Biso   1.000  N
  C169     1.0000 0.32997  0.46423  0.87133  Biso   1.000  C
  C170     1.0000 0.42857  0.50193  0.87853  Biso   1.000  C
  C171     1.0000 0.47047  0.44553  0.87653  Biso   1.000  C
  C172     1.0000 0.41547  0.34773  0.86673  Biso   1.000  C
  C173     1.0000 0.31847  0.31113  0.85953  Biso   1.000  C
  C174     1.0000 0.17337  0.32243  0.85353  Biso   1.000  C
  H169     1.0000 0.46657  0.56703  0.88493  Biso   1.000  H
  H170     1.0000 0.53627  0.47243  0.88163  Biso   1.000  H
  H171     1.0000 0.44357  0.30863  0.86513  Biso   1.000  H
  H172     1.0000 0.28027  0.24623  0.85293  Biso   1.000  H
  H173     1.0000 0.14257  0.25283  0.85723  Biso   1.000  H
  H174     1.0000 0.14317  0.34743  0.87023  Biso   1.000  H
  S30      1.0000 0.93813  0.86387  0.20587  Biso   1.000  S
  N30      1.0000 0.94383  0.70127  0.19527  Biso   1.000  N
  C175     1.0000 0.99663  0.79757  0.20467  Biso   1.000  C
  C176     1.0000 0.09523  0.83527  0.21187  Biso   1.000  C
  C177     1.0000 0.13713  0.77887  0.20987  Biso   1.000  C
  C178     1.0000 0.08213  0.68107  0.20007  Biso   1.000  C
  C179     1.0000 0.98513  0.64447  0.19287  Biso   1.000  C
  C180     1.0000 0.84003  0.65577  0.18687  Biso   1.000  C
  H175     1.0000 0.13323  0.90037  0.21827  Biso   1.000  H
  H176     1.0000 0.20293  0.80577  0.21497  Biso   1.000  H
  H177     1.0000 0.11023  0.64197  0.19847  Biso   1.000  H
  H178     1.0000 0.94693  0.57957  0.18627  Biso   1.000  H
  H179     1.0000 0.80923  0.58617  0.19057  Biso   1.000  H
  H180     1.0000 0.80983  0.68077  0.20357  Biso   1.000  H
  S31      1.0000 0.59240  0.39520  0.53920  Biso   1.000  S
  N31      1.0000 0.42410  0.38950  0.52860  Biso   1.000  N
  C181     1.0000 0.46760  0.33670  0.53800  Biso   1.000  C
  C182     1.0000 0.40670  0.23810  0.54520  Biso   1.000  C
  C183     1.0000 0.30840  0.19620  0.54320  Biso   1.000  C
  C184     1.0000 0.26560  0.25120  0.53340  Biso   1.000  C
  C185     1.0000 0.32600  0.34820  0.52620  Biso   1.000  C
  C186     1.0000 0.48240  0.49330  0.52020  Biso   1.000  C
  H181     1.0000 0.43380  0.20010  0.55160  Biso   1.000  H
  H182     1.0000 0.26950  0.13040  0.54830  Biso   1.000  H
  H183     1.0000 0.19840  0.22310  0.53180  Biso   1.000  H
  H184     1.0000 0.29930  0.38640  0.51960  Biso   1.000  H
  H185     1.0000 0.44360  0.52410  0.52390  Biso   1.000  H
  H186     1.0000 0.53760  0.52350  0.53690  Biso   1.000  H
  S32      1.0000 0.25907  0.72853  0.87253  Biso   1.000  S
  N32      1.0000 0.09077  0.72283  0.86193  Biso   1.000  N
  C187     1.0000 0.13427  0.67003  0.87133  Biso   1.000  C
  C188     1.0000 0.07337  0.57143  0.87853  Biso   1.000  C
  C189     1.0000 0.97507  0.52953  0.87653  Biso   1.000  C
  C190     1.0000 0.93227  0.58453  0.86673  Biso   1.000  C
  C191     1.0000 0.99267  0.68153  0.85953  Biso   1.000  C
  C192     1.0000 0.14907  0.82663  0.85353  Biso   1.000  C
  H187     1.0000 0.10047  0.53343  0.88493  Biso   1.000  H
  H188     1.0000 0.93617  0.46373  0.88163  Biso   1.000  H
  H189     1.0000 0.86507  0.55643  0.86513  Biso   1.000  H
  H190     1.0000 0.96597  0.71973  0.85293  Biso   1.000  H
  H191     1.0000 0.11027  0.85743  0.85723  Biso   1.000  H
  H192     1.0000 0.20427  0.85683  0.87023  Biso   1.000  H
  S33      1.0000 0.92573  0.06187  0.20587  Biso   1.000  S
  N33      1.0000 0.75743  0.05617  0.19527  Biso   1.000  N
  C193     1.0000 0.80093  0.00337  0.20467  Biso   1.000  C
  C194     1.0000 0.74003  0.90477  0.21187  Biso   1.000  C
  C195     1.0000 0.64173  0.86287  0.20987  Biso   1.000  C
  C196     1.0000 0.59893  0.91787  0.20007  Biso   1.000  C
  C197     1.0000 0.65933  0.01487  0.19287  Biso   1.000  C
  C198     1.0000 0.81573  0.15997  0.18687  Biso   1.000  C
  H193     1.0000 0.76713  0.86677  0.21827  Biso   1.000  H
  H194     1.0000 0.60283  0.79707  0.21497  Biso   1.000  H
  H195     1.0000 0.53173  0.88977  0.19847  Biso   1.000  H
  H196     1.0000 0.63263  0.05307  0.18627  Biso   1.000  H
  H197     1.0000 0.77693  0.19077  0.19057  Biso   1.000  H
  H198     1.0000 0.87093  0.19017  0.20357  Biso   1.000  H
  S34      1.0000 0.80280  0.40760  0.53920  Biso   1.000  S
  N34      1.0000 0.96540  0.57590  0.52860  Biso   1.000  N
  C199     1.0000 0.86910  0.53240  0.53800  Biso   1.000  C
  C200     1.0000 0.83140  0.59330  0.54520  Biso   1.000  C
  C201     1.0000 0.88780  0.69160  0.54320  Biso   1.000  C
  C202     1.0000 0.98560  0.73440  0.53340  Biso   1.000  C
  C203     1.0000 0.02220  0.67400  0.52620  Biso   1.000  C
  C204     1.0000 0.01090  0.51760  0.52020  Biso   1.000  C
  H199     1.0000 0.76630  0.56620  0.55160  Biso   1.000  H
  H200     1.0000 0.86090  0.73050  0.54830  Biso   1.000  H
  H201     1.0000 0.02470  0.80160  0.53180  Biso   1.000  H
  H202     1.0000 0.08710  0.70070  0.51960  Biso   1.000  H
  H203     1.0000 0.08050  0.55640  0.52390  Biso   1.000  H
  H204     1.0000 0.98590  0.46240  0.53690  Biso   1.000  H
  S35      1.0000 0.46947  0.74093  0.87253  Biso   1.000  S
  N35      1.0000 0.63207  0.90923  0.86193  Biso   1.000  N
  C205     1.0000 0.53577  0.86573  0.87133  Biso   1.000  C
  C206     1.0000 0.49807  0.92663  0.87853  Biso   1.000  C
  C207     1.0000 0.55447  0.02493  0.87653  Biso   1.000  C
  C208     1.0000 0.65227  0.06773  0.86673  Biso   1.000  C
  C209     1.0000 0.68887  0.00733  0.85953  Biso   1.000  C
  C210     1.0000 0.67757  0.85093  0.85353  Biso   1.000  C
  H205     1.0000 0.43297  0.89953  0.88493  Biso   1.000  H
  H206     1.0000 0.52757  0.06383  0.88163  Biso   1.000  H
  H207     1.0000 0.69137  0.13493  0.86513  Biso   1.000  H
  H208     1.0000 0.75377  0.03403  0.85293  Biso   1.000  H
  H209     1.0000 0.74717  0.88973  0.85723  Biso   1.000  H
  H210     1.0000 0.65257  0.79573  0.87023  Biso   1.000  H
  S36      1.0000 0.13613  0.07427  0.20587  Biso   1.000  S
  N36      1.0000 0.29873  0.24257  0.19527  Biso   1.000  N
  C211     1.0000 0.20243  0.19907  0.20467  Biso   1.000  C
  C212     1.0000 0.16473  0.25997  0.21187  Biso   1.000  C
  C213     1.0000 0.22113  0.35827  0.20987  Biso   1.000  C
  C214     1.0000 0.31893  0.40107  0.20007  Biso   1.000  C
  C215     1.0000 0.35553  0.34067  0.19287  Biso   1.000  C
  C216     1.0000 0.34423  0.18427  0.18687  Biso   1.000  C
  H211     1.0000 0.09963  0.23287  0.21827  Biso   1.000  H
  H212     1.0000 0.19423  0.39717  0.21497  Biso   1.000  H
  H213     1.0000 0.35803  0.46827  0.19847  Biso   1.000  H
  H214     1.0000 0.42043  0.36737  0.18627  Biso   1.000  H
  H215     1.0000 0.41383  0.22307  0.19057  Biso   1.000  H
  H216     1.0000 0.31923  0.12907  0.20357  Biso   1.000  H
  Ni1      1.0000 0.33333  0.66667  0.91667  Biso   1.000  Ni
  Ni2      1.0000 0.00000  0.00000  0.25000  Biso   1.000  Ni
  Ni3      1.0000 0.66667  0.33333  0.58333  Biso   1.000  Ni
  Ni4      1.0000 0.66667  0.33333  0.08333  Biso   1.000  Ni
  Ni5      1.0000 0.00000  0.00000  0.75000  Biso   1.000  Ni
  Ni6      1.0000 0.33333  0.66667  0.41667  Biso   1.000  Ni
