data_image0
_cell_length_a       9.78695
_cell_length_b       16.2546
_cell_length_c       16.2546
_cell_angle_alpha    63.923
_cell_angle_beta     78.422
_cell_angle_gamma    101.578

_symmetry_space_group_name_H-M    P 1
_symmetry_int_tables_number       1

loop_
  _symmetry_equiv_pos_as_xyz
  'x, y, z'

loop_
  _atom_site_label
  _atom_site_occupancy
  _atom_site_fract_x
  _atom_site_fract_y
  _atom_site_fract_z
  _atom_site_thermal_displace_type
  _atom_site_B_iso_or_equiv
  _atom_site_type_symbol
  Cu1      1.0000 0.66706  0.02906  0.64218  Biso   1.000  Cu
  Cu2      1.0000 0.38068  0.01498  0.67814  Biso   1.000  Cu
  Cu3      1.0000 0.30924  0.64218  0.32876  Biso   1.000  Cu
  Cu4      1.0000 0.05882  0.67814  0.30688  Biso   1.000  Cu
  Cu5      1.0000 0.63800  0.32876  0.02906  Biso   1.000  Cu
  Cu6      1.0000 0.36570  0.30688  0.01498  Biso   1.000  Cu
  Cu7      1.0000 0.33294  0.97094  0.35782  Biso   1.000  Cu
  Cu8      1.0000 0.61932  0.98502  0.32186  Biso   1.000  Cu
  Cu9      1.0000 0.69076  0.35782  0.67124  Biso   1.000  Cu
  Cu10     1.0000 0.94118  0.32186  0.69312  Biso   1.000  Cu
  Cu11     1.0000 0.36200  0.67124  0.97094  Biso   1.000  Cu
  Cu12     1.0000 0.63430  0.69312  0.98502  Biso   1.000  Cu
  H1       1.0000 0.28810  0.77750  0.51920  Biso   1.000  H
  H2       1.0000 0.31610  0.71780  0.66950  Biso   1.000  H
  H3       1.0000 0.33390  0.81260  0.74090  Biso   1.000  H
  H4       1.0000 0.23180  0.16230  0.86590  Biso   1.000  H
  H5       1.0000 0.21320  0.03490  0.83630  Biso   1.000  H
  H6       1.0000 0.45830  0.27840  0.80950  Biso   1.000  H
  H7       1.0000 0.80730  0.51920  0.70330  Biso   1.000  H
  H8       1.0000 0.98560  0.66950  0.61270  Biso   1.000  H
  H9       1.0000 0.07480  0.74090  0.44650  Biso   1.000  H
  H10      1.0000 0.09770  0.86590  0.97180  Biso   1.000  H
  H11      1.0000 0.04950  0.83630  0.12880  Biso   1.000  H
  H12      1.0000 0.26780  0.80950  0.91210  Biso   1.000  H
  H13      1.0000 0.51060  0.70330  0.77750  Biso   1.000  H
  H14      1.0000 0.59830  0.61270  0.71780  Biso   1.000  H
  H15      1.0000 0.52130  0.44650  0.81260  Biso   1.000  H
  H16      1.0000 0.06950  0.97180  0.16230  Biso   1.000  H
  H17      1.0000 0.17830  0.12880  0.03490  Biso   1.000  H
  H18      1.0000 0.17990  0.91210  0.27840  Biso   1.000  H
  H19      1.0000 0.71190  0.22250  0.48080  Biso   1.000  H
  H20      1.0000 0.68390  0.28220  0.33050  Biso   1.000  H
  H21      1.0000 0.66610  0.18740  0.25910  Biso   1.000  H
  H22      1.0000 0.76820  0.83770  0.13410  Biso   1.000  H
  H23      1.0000 0.78680  0.96510  0.16370  Biso   1.000  H
  H24      1.0000 0.54170  0.72160  0.19050  Biso   1.000  H
  H25      1.0000 0.19270  0.48080  0.29670  Biso   1.000  H
  H26      1.0000 0.01440  0.33050  0.38730  Biso   1.000  H
  H27      1.0000 0.92520  0.25910  0.55350  Biso   1.000  H
  H28      1.0000 0.90230  0.13410  0.02820  Biso   1.000  H
  H29      1.0000 0.95050  0.16370  0.87120  Biso   1.000  H
  H30      1.0000 0.73220  0.19050  0.08790  Biso   1.000  H
  H31      1.0000 0.48940  0.29670  0.22250  Biso   1.000  H
  H32      1.0000 0.40170  0.38730  0.28220  Biso   1.000  H
  H33      1.0000 0.47870  0.55350  0.18740  Biso   1.000  H
  H34      1.0000 0.93050  0.02820  0.83770  Biso   1.000  H
  H35      1.0000 0.82170  0.87120  0.96510  Biso   1.000  H
  H36      1.0000 0.82010  0.08790  0.72160  Biso   1.000  H
  C1       1.0000 0.30120  0.81790  0.54700  Biso   1.000  C
  C2       1.0000 0.33070  0.83910  0.67650  Biso   1.000  C
  C3       1.0000 0.31890  0.78300  0.63510  Biso   1.000  C
  C4       1.0000 0.30520  0.08500  0.81020  Biso   1.000  C
  C5       1.0000 0.45110  0.22410  0.80020  Biso   1.000  C
  C6       1.0000 0.31830  0.15580  0.83360  Biso   1.000  C
  C7       1.0000 0.31860  0.96710  0.53870  Biso   1.000  C
  C8       1.0000 0.54910  0.16260  0.70510  Biso   1.000  C
  C9       1.0000 0.84820  0.54700  0.63510  Biso   1.000  C
  C10      1.0000 0.00720  0.67650  0.48440  Biso   1.000  C
  C11      1.0000 0.95400  0.63510  0.58190  Biso   1.000  C
  C12      1.0000 0.11540  0.81020  0.10480  Biso   1.000  C
  C13      1.0000 0.25130  0.80020  0.97570  Biso   1.000  C
  C14      1.0000 0.15190  0.83360  0.01060  Biso   1.000  C
  C15      1.0000 0.85730  0.53870  0.49420  Biso   1.000  C
  C16      1.0000 0.25420  0.70510  0.13230  Biso   1.000  C
  C17      1.0000 0.48330  0.63510  0.81790  Biso   1.000  C
  C18      1.0000 0.49160  0.48440  0.83910  Biso   1.000  C
  C19      1.0000 0.53590  0.58190  0.78300  Biso   1.000  C
  C20      1.0000 0.22020  0.10480  0.08500  Biso   1.000  C
  C21      1.0000 0.22700  0.97570  0.22410  Biso   1.000  C
  C22      1.0000 0.16250  0.01060  0.15580  Biso   1.000  C
  C23      1.0000 0.35150  0.49420  0.96710  Biso   1.000  C
  C24      1.0000 0.38650  0.13230  0.16260  Biso   1.000  C
  C25      1.0000 0.69880  0.18210  0.45300  Biso   1.000  C
  C26      1.0000 0.66930  0.16090  0.32350  Biso   1.000  C
  C27      1.0000 0.68110  0.21700  0.36490  Biso   1.000  C
  C28      1.0000 0.69480  0.91500  0.18980  Biso   1.000  C
  C29      1.0000 0.54890  0.77590  0.19980  Biso   1.000  C
  C30      1.0000 0.68170  0.84420  0.16640  Biso   1.000  C
  C31      1.0000 0.68140  0.03290  0.46130  Biso   1.000  C
  C32      1.0000 0.45090  0.83740  0.29490  Biso   1.000  C
  C33      1.0000 0.15180  0.45300  0.36490  Biso   1.000  C
  C34      1.0000 0.99280  0.32350  0.51560  Biso   1.000  C
  C35      1.0000 0.04600  0.36490  0.41810  Biso   1.000  C
  C36      1.0000 0.88460  0.18980  0.89520  Biso   1.000  C
  C37      1.0000 0.74870  0.19980  0.02430  Biso   1.000  C
  C38      1.0000 0.84810  0.16640  0.98940  Biso   1.000  C
  C39      1.0000 0.14270  0.46130  0.50580  Biso   1.000  C
  C40      1.0000 0.74580  0.29490  0.86770  Biso   1.000  C
  C41      1.0000 0.51670  0.36490  0.18210  Biso   1.000  C
  C42      1.0000 0.50840  0.51560  0.16090  Biso   1.000  C
  C43      1.0000 0.46410  0.41810  0.21700  Biso   1.000  C
  C44      1.0000 0.77980  0.89520  0.91500  Biso   1.000  C
  C45      1.0000 0.77300  0.02430  0.77590  Biso   1.000  C
  C46      1.0000 0.83750  0.98940  0.84420  Biso   1.000  C
  C47      1.0000 0.64850  0.50580  0.03290  Biso   1.000  C
  C48      1.0000 0.61350  0.86770  0.83740  Biso   1.000  C
  N1       1.0000 0.32970  0.93090  0.62850  Biso   1.000  N
  N2       1.0000 0.30850  0.91150  0.49690  Biso   1.000  N
  N3       1.0000 0.41820  0.09120  0.74200  Biso   1.000  N
  N4       1.0000 0.56910  0.22260  0.74170  Biso   1.000  N
  N5       1.0000 0.95820  0.62850  0.44060  Biso   1.000  N
  N6       1.0000 0.80540  0.49690  0.59160  Biso   1.000  N
  N7       1.0000 0.16020  0.74200  0.16680  Biso   1.000  N
  N8       1.0000 0.31080  0.74170  0.03570  Biso   1.000  N
  N9       1.0000 0.39880  0.44060  0.93090  Biso   1.000  N
  N10      1.0000 0.39700  0.59160  0.91150  Biso   1.000  N
  N11      1.0000 0.32700  0.16680  0.09120  Biso   1.000  N
  N12      1.0000 0.34650  0.03570  0.22260  Biso   1.000  N
  N13      1.0000 0.67030  0.06910  0.37150  Biso   1.000  N
  N14      1.0000 0.69150  0.08850  0.50310  Biso   1.000  N
  N15      1.0000 0.58180  0.90880  0.25800  Biso   1.000  N
  N16      1.0000 0.43090  0.77740  0.25830  Biso   1.000  N
  N17      1.0000 0.04180  0.37150  0.55940  Biso   1.000  N
  N18      1.0000 0.19460  0.50310  0.40840  Biso   1.000  N
  N19      1.0000 0.83980  0.25800  0.83320  Biso   1.000  N
  N20      1.0000 0.68920  0.25830  0.96430  Biso   1.000  N
  N21      1.0000 0.60120  0.55940  0.06910  Biso   1.000  N
  N22      1.0000 0.60300  0.40840  0.08850  Biso   1.000  N
  N23      1.0000 0.67300  0.83320  0.90880  Biso   1.000  N
  N24      1.0000 0.65350  0.96430  0.77740  Biso   1.000  N
  O1       1.0000 0.31780  0.04890  0.49600  Biso   1.000  O
  O2       1.0000 0.63810  0.18160  0.63110  Biso   1.000  O
  O3       1.0000 0.81380  0.49600  0.45510  Biso   1.000  O
  O4       1.0000 0.26920  0.63110  0.18730  Biso   1.000  O
  O5       1.0000 0.26890  0.45510  0.04890  Biso   1.000  O
  O6       1.0000 0.45650  0.18730  0.18160  Biso   1.000  O
  O7       1.0000 0.68220  0.95110  0.50400  Biso   1.000  O
  O8       1.0000 0.36190  0.81840  0.36890  Biso   1.000  O
  O9       1.0000 0.18620  0.50400  0.54490  Biso   1.000  O
  O10      1.0000 0.73080  0.36890  0.81270  Biso   1.000  O
  O11      1.0000 0.73110  0.54490  0.95110  Biso   1.000  O
  O12      1.0000 0.54350  0.81270  0.81840  Biso   1.000  O
