data_image0
_cell_length_a       9.9916
_cell_length_b       16.3601
_cell_length_c       16.5344
_cell_angle_alpha    90
_cell_angle_beta     90
_cell_angle_gamma    90

_symmetry_space_group_name_H-M    "P 1"
_symmetry_int_tables_number       1

loop_
  _symmetry_equiv_pos_as_xyz
  'x, y, z'

loop_
  _atom_site_label
  _atom_site_occupancy
  _atom_site_fract_x
  _atom_site_fract_y
  _atom_site_fract_z
  _atom_site_thermal_displace_type
  _atom_site_B_iso_or_equiv
  _atom_site_type_symbol
  Ni1      1.0000 0.31089  0.21375  0.54656  Biso   1.000  Ni
  O1       1.0000 0.49250  0.23130  0.48410  Biso   1.000  O
  O2       1.0000 0.62930  0.29200  0.39440  Biso   1.000  O
  C1       1.0000 0.51680  0.26620  0.41740  Biso   1.000  C
  C2       1.0000 0.40610  0.28470  0.35630  Biso   1.000  C
  H1       1.0000 0.43090  0.26110  0.30330  Biso   1.000  H
  H2       1.0000 0.39830  0.34470  0.34960  Biso   1.000  H
  C3       1.0000 0.26970  0.25000  0.38260  Biso   1.000  C
  H3       1.0000 0.20170  0.26500  0.34080  Biso   1.000  H
  O3       1.0000 0.23480  0.29150  0.45830  Biso   1.000  O
  H4       1.0000 0.13500  0.29550  0.46500  Biso   1.000  H
  C4       1.0000 0.27120  0.15980  0.39090  Biso   1.000  C
  O4       1.0000 0.28590  0.11820  0.32950  Biso   1.000  O
  O5       1.0000 0.26180  0.12970  0.46120  Biso   1.000  O
  N1       1.0000 0.61200  0.62550  0.87770  Biso   1.000  N
  N2       1.0000 0.36160  0.31190  0.62190  Biso   1.000  N
  C5       1.0000 0.68080  0.59880  0.81080  Biso   1.000  C
  H5       1.0000 0.76720  0.62070  0.80050  Biso   1.000  H
  C6       1.0000 0.62970  0.54150  0.75800  Biso   1.000  C
  H6       1.0000 0.67570  0.52910  0.70920  Biso   1.000  H
  C7       1.0000 0.50600  0.50050  0.77720  Biso   1.000  C
  C8       1.0000 0.44680  0.52070  0.84900  Biso   1.000  C
  H7       1.0000 0.36810  0.49300  0.86600  Biso   1.000  H
  C9       1.0000 0.50140  0.58150  0.89690  Biso   1.000  C
  H8       1.0000 0.45830  0.59330  0.94680  Biso   1.000  H
  C10      1.0000 0.45160  0.43630  0.72240  Biso   1.000  C
  C11      1.0000 0.38100  0.37250  0.74900  Biso   1.000  C
  H9       1.0000 0.36230  0.36840  0.80520  Biso   1.000  H
  C12      1.0000 0.33580  0.31420  0.69940  Biso   1.000  C
  H10      1.0000 0.28170  0.27210  0.72170  Biso   1.000  H
  C13      1.0000 0.42160  0.37790  0.59290  Biso   1.000  C
  H11      1.0000 0.43170  0.38180  0.53590  Biso   1.000  H
  C14      1.0000 0.47170  0.44310  0.64030  Biso   1.000  C
  H12      1.0000 0.51640  0.48860  0.61700  Biso   1.000  H
  Ni2      1.0000 0.18911  0.78625  0.04656  Biso   1.000  Ni
  O6       1.0000 0.00750  0.76870  0.98410  Biso   1.000  O
  O7       1.0000 0.87070  0.70800  0.89440  Biso   1.000  O
  C15      1.0000 0.98320  0.73380  0.91740  Biso   1.000  C
  C16      1.0000 0.09390  0.71530  0.85630  Biso   1.000  C
  H13      1.0000 0.06910  0.73890  0.80330  Biso   1.000  H
  H14      1.0000 0.10170  0.65530  0.84960  Biso   1.000  H
  C17      1.0000 0.23030  0.75000  0.88260  Biso   1.000  C
  H15      1.0000 0.29830  0.73500  0.84080  Biso   1.000  H
  O8       1.0000 0.26520  0.70850  0.95830  Biso   1.000  O
  H16      1.0000 0.36500  0.70450  0.96500  Biso   1.000  H
  C18      1.0000 0.22880  0.84020  0.89090  Biso   1.000  C
  O9       1.0000 0.21410  0.88180  0.82950  Biso   1.000  O
  O10      1.0000 0.23820  0.87030  0.96120  Biso   1.000  O
  N3       1.0000 0.88800  0.37450  0.37770  Biso   1.000  N
  N4       1.0000 0.13840  0.68810  0.12190  Biso   1.000  N
  C19      1.0000 0.81920  0.40120  0.31080  Biso   1.000  C
  H17      1.0000 0.73280  0.37930  0.30050  Biso   1.000  H
  C20      1.0000 0.87030  0.45850  0.25800  Biso   1.000  C
  H18      1.0000 0.82430  0.47090  0.20920  Biso   1.000  H
  C21      1.0000 0.99400  0.49950  0.27720  Biso   1.000  C
  C22      1.0000 0.05320  0.47930  0.34900  Biso   1.000  C
  H19      1.0000 0.13190  0.50700  0.36600  Biso   1.000  H
  C23      1.0000 0.99860  0.41850  0.39690  Biso   1.000  C
  H20      1.0000 0.04170  0.40670  0.44680  Biso   1.000  H
  C24      1.0000 0.04840  0.56370  0.22240  Biso   1.000  C
  C25      1.0000 0.11900  0.62750  0.24900  Biso   1.000  C
  H21      1.0000 0.13770  0.63160  0.30520  Biso   1.000  H
  C26      1.0000 0.16420  0.68580  0.19940  Biso   1.000  C
  H22      1.0000 0.21830  0.72790  0.22170  Biso   1.000  H
  C27      1.0000 0.07840  0.62210  0.09290  Biso   1.000  C
  H23      1.0000 0.06830  0.61820  0.03590  Biso   1.000  H
  C28      1.0000 0.02830  0.55690  0.14030  Biso   1.000  C
  H24      1.0000 0.98360  0.51140  0.11700  Biso   1.000  H
  Ni3      1.0000 0.68911  0.71375  0.95344  Biso   1.000  Ni
  O11      1.0000 0.50750  0.73130  0.01590  Biso   1.000  O
  O12      1.0000 0.37070  0.79200  0.10560  Biso   1.000  O
  C29      1.0000 0.48320  0.76620  0.08260  Biso   1.000  C
  C30      1.0000 0.59390  0.78470  0.14370  Biso   1.000  C
  H25      1.0000 0.56910  0.76110  0.19670  Biso   1.000  H
  H26      1.0000 0.60170  0.84470  0.15040  Biso   1.000  H
  C31      1.0000 0.73030  0.75000  0.11740  Biso   1.000  C
  H27      1.0000 0.79830  0.76500  0.15920  Biso   1.000  H
  O13      1.0000 0.76520  0.79150  0.04170  Biso   1.000  O
  H28      1.0000 0.86500  0.79550  0.03500  Biso   1.000  H
  C32      1.0000 0.72880  0.65980  0.10910  Biso   1.000  C
  O14      1.0000 0.71410  0.61820  0.17050  Biso   1.000  O
  O15      1.0000 0.73820  0.62970  0.03880  Biso   1.000  O
  N5       1.0000 0.38800  0.12550  0.62230  Biso   1.000  N
  N6       1.0000 0.63840  0.81190  0.87810  Biso   1.000  N
  C33      1.0000 0.31920  0.09880  0.68920  Biso   1.000  C
  H29      1.0000 0.23280  0.12070  0.69950  Biso   1.000  H
  C34      1.0000 0.37030  0.04150  0.74200  Biso   1.000  C
  H30      1.0000 0.32430  0.02910  0.79080  Biso   1.000  H
  C35      1.0000 0.49400  0.00050  0.72280  Biso   1.000  C
  C36      1.0000 0.55320  0.02070  0.65100  Biso   1.000  C
  H31      1.0000 0.63190  0.99300  0.63400  Biso   1.000  H
  C37      1.0000 0.49860  0.08150  0.60310  Biso   1.000  C
  H32      1.0000 0.54170  0.09330  0.55320  Biso   1.000  H
  C38      1.0000 0.54840  0.93630  0.77760  Biso   1.000  C
  C39      1.0000 0.61900  0.87250  0.75100  Biso   1.000  C
  H33      1.0000 0.63770  0.86840  0.69480  Biso   1.000  H
  C40      1.0000 0.66420  0.81420  0.80060  Biso   1.000  C
  H34      1.0000 0.71830  0.77210  0.77830  Biso   1.000  H
  C41      1.0000 0.57840  0.87790  0.90710  Biso   1.000  C
  H35      1.0000 0.56830  0.88180  0.96410  Biso   1.000  H
  C42      1.0000 0.52830  0.94310  0.85970  Biso   1.000  C
  H36      1.0000 0.48360  0.98860  0.88300  Biso   1.000  H
  Ni4      1.0000 0.81089  0.28625  0.45344  Biso   1.000  Ni
  O16      1.0000 0.99250  0.26870  0.51590  Biso   1.000  O
  O17      1.0000 0.12930  0.20800  0.60560  Biso   1.000  O
  C43      1.0000 0.01680  0.23380  0.58260  Biso   1.000  C
  C44      1.0000 0.90610  0.21530  0.64370  Biso   1.000  C
  H37      1.0000 0.93090  0.23890  0.69670  Biso   1.000  H
  H38      1.0000 0.89830  0.15530  0.65040  Biso   1.000  H
  C45      1.0000 0.76970  0.25000  0.61740  Biso   1.000  C
  H39      1.0000 0.70170  0.23500  0.65920  Biso   1.000  H
  O18      1.0000 0.73480  0.20850  0.54170  Biso   1.000  O
  H40      1.0000 0.63500  0.20450  0.53500  Biso   1.000  H
  C46      1.0000 0.77120  0.34020  0.60910  Biso   1.000  C
  O19      1.0000 0.78590  0.38180  0.67050  Biso   1.000  O
  O20      1.0000 0.76180  0.37030  0.53880  Biso   1.000  O
  N7       1.0000 0.11200  0.87450  0.12230  Biso   1.000  N
  N8       1.0000 0.86160  0.18810  0.37810  Biso   1.000  N
  C47      1.0000 0.18080  0.90120  0.18920  Biso   1.000  C
  H41      1.0000 0.26720  0.87930  0.19950  Biso   1.000  H
  C48      1.0000 0.12970  0.95850  0.24200  Biso   1.000  C
  H42      1.0000 0.17570  0.97090  0.29080  Biso   1.000  H
  C49      1.0000 0.00600  0.99950  0.22280  Biso   1.000  C
  C50      1.0000 0.94680  0.97930  0.15100  Biso   1.000  C
  H43      1.0000 0.86810  0.00700  0.13400  Biso   1.000  H
  C51      1.0000 0.00140  0.91850  0.10310  Biso   1.000  C
  H44      1.0000 0.95830  0.90670  0.05320  Biso   1.000  H
  C52      1.0000 0.95160  0.06370  0.27760  Biso   1.000  C
  C53      1.0000 0.88100  0.12750  0.25100  Biso   1.000  C
  H45      1.0000 0.86230  0.13160  0.19480  Biso   1.000  H
  C54      1.0000 0.83580  0.18580  0.30060  Biso   1.000  C
  H46      1.0000 0.78170  0.22790  0.27830  Biso   1.000  H
  C55      1.0000 0.92160  0.12210  0.40710  Biso   1.000  C
  H47      1.0000 0.93170  0.11820  0.46410  Biso   1.000  H
  C56      1.0000 0.97170  0.05690  0.35970  Biso   1.000  C
  H48      1.0000 0.01640  0.01140  0.38300  Biso   1.000  H
