data_image0
_cell_length_a       9.625
_cell_length_b       11.78
_cell_length_c       18.714
_cell_angle_alpha    90
_cell_angle_beta     98.18
_cell_angle_gamma    90

_symmetry_space_group_name_H-M    P 1
_symmetry_int_tables_number       1

loop_
  _symmetry_equiv_pos_as_xyz
  'x, y, z'

loop_
  _atom_site_label
  _atom_site_occupancy
  _atom_site_fract_x
  _atom_site_fract_y
  _atom_site_fract_z
  _atom_site_thermal_displace_type
  _atom_site_B_iso_or_equiv
  _atom_site_type_symbol
  Cu1      1.0000 0.71963  0.36987  0.21110  Biso   1.000  Cu
  Cu2      1.0000 0.03612  0.37256  0.10948  Biso   1.000  Cu
  Cu3      1.0000 0.28037  0.36987  0.28890  Biso   1.000  Cu
  Cu4      1.0000 0.96388  0.37256  0.39052  Biso   1.000  Cu
  Cu5      1.0000 0.28037  0.63013  0.78890  Biso   1.000  Cu
  Cu6      1.0000 0.96388  0.62744  0.89052  Biso   1.000  Cu
  Cu7      1.0000 0.71963  0.63013  0.71110  Biso   1.000  Cu
  Cu8      1.0000 0.03612  0.62744  0.60948  Biso   1.000  Cu
  Mo1      1.0000 0.00000  0.37149  0.25000  Biso   1.000  Mo
  Mo2      1.0000 0.00000  0.62851  0.75000  Biso   1.000  Mo
  H1       1.0000 0.42720  0.44710  0.14970  Biso   1.000  H
  H2       1.0000 0.31010  0.57830  0.07240  Biso   1.000  H
  H3       1.0000 0.68340  0.68570  0.02780  Biso   1.000  H
  H4       1.0000 0.79090  0.55440  0.10960  Biso   1.000  H
  H5       1.0000 0.47100  0.75850  0.95510  Biso   1.000  H
  H6       1.0000 0.32330  0.70200  0.96430  Biso   1.000  H
  H7       1.0000 0.45550  0.87660  0.05660  Biso   1.000  H
  H8       1.0000 0.30770  0.82030  0.06570  Biso   1.000  H
  H9       1.0000 0.36140  0.95340  0.94620  Biso   1.000  H
  H10      1.0000 0.21570  0.89070  0.94970  Biso   1.000  H
  H11      1.0000 0.36370  0.03320  0.10890  Biso   1.000  H
  H12      1.0000 0.27130  0.19360  0.15370  Biso   1.000  H
  H13      1.0000 0.02250  0.24090  0.97310  Biso   1.000  H
  H14      1.0000 0.08900  0.06690  0.92710  Biso   1.000  H
  H15      1.0000 0.57280  0.44710  0.35030  Biso   1.000  H
  H16      1.0000 0.68990  0.57830  0.42760  Biso   1.000  H
  H17      1.0000 0.31660  0.68570  0.47220  Biso   1.000  H
  H18      1.0000 0.20910  0.55440  0.39040  Biso   1.000  H
  H19      1.0000 0.52900  0.75850  0.54490  Biso   1.000  H
  H20      1.0000 0.67670  0.70200  0.53570  Biso   1.000  H
  H21      1.0000 0.54450  0.87660  0.44340  Biso   1.000  H
  H22      1.0000 0.69230  0.82030  0.43430  Biso   1.000  H
  H23      1.0000 0.63860  0.95340  0.55380  Biso   1.000  H
  H24      1.0000 0.78430  0.89070  0.55030  Biso   1.000  H
  H25      1.0000 0.63630  0.03320  0.39110  Biso   1.000  H
  H26      1.0000 0.72870  0.19360  0.34630  Biso   1.000  H
  H27      1.0000 0.97750  0.24090  0.52690  Biso   1.000  H
  H28      1.0000 0.91100  0.06690  0.57290  Biso   1.000  H
  H29      1.0000 0.57280  0.55290  0.85030  Biso   1.000  H
  H30      1.0000 0.68990  0.42170  0.92760  Biso   1.000  H
  H31      1.0000 0.31660  0.31430  0.97220  Biso   1.000  H
  H32      1.0000 0.20910  0.44560  0.89040  Biso   1.000  H
  H33      1.0000 0.52900  0.24150  0.04490  Biso   1.000  H
  H34      1.0000 0.67670  0.29800  0.03570  Biso   1.000  H
  H35      1.0000 0.54450  0.12340  0.94340  Biso   1.000  H
  H36      1.0000 0.69230  0.17970  0.93430  Biso   1.000  H
  H37      1.0000 0.63860  0.04660  0.05380  Biso   1.000  H
  H38      1.0000 0.78430  0.10930  0.05030  Biso   1.000  H
  H39      1.0000 0.63630  0.96680  0.89110  Biso   1.000  H
  H40      1.0000 0.72870  0.80640  0.84630  Biso   1.000  H
  H41      1.0000 0.97750  0.75910  0.02690  Biso   1.000  H
  H42      1.0000 0.91100  0.93310  0.07290  Biso   1.000  H
  H43      1.0000 0.42720  0.55290  0.64970  Biso   1.000  H
  H44      1.0000 0.31010  0.42170  0.57240  Biso   1.000  H
  H45      1.0000 0.68340  0.31430  0.52780  Biso   1.000  H
  H46      1.0000 0.79090  0.44560  0.60960  Biso   1.000  H
  H47      1.0000 0.47100  0.24150  0.45510  Biso   1.000  H
  H48      1.0000 0.32330  0.29800  0.46430  Biso   1.000  H
  H49      1.0000 0.45550  0.12340  0.55660  Biso   1.000  H
  H50      1.0000 0.30770  0.17970  0.56570  Biso   1.000  H
  H51      1.0000 0.36140  0.04660  0.44620  Biso   1.000  H
  H52      1.0000 0.21570  0.10930  0.44970  Biso   1.000  H
  H53      1.0000 0.36370  0.96680  0.60890  Biso   1.000  H
  H54      1.0000 0.27130  0.80640  0.65370  Biso   1.000  H
  H55      1.0000 0.02250  0.75910  0.47310  Biso   1.000  H
  H56      1.0000 0.08900  0.93310  0.42710  Biso   1.000  H
  C1       1.0000 0.00170  0.46860  0.02430  Biso   1.000  C
  C2       1.0000 0.48090  0.49770  0.12500  Biso   1.000  C
  C3       1.0000 0.40970  0.57570  0.07890  Biso   1.000  C
  C4       1.0000 0.48430  0.64970  0.04240  Biso   1.000  C
  C5       1.0000 0.62750  0.63850  0.05350  Biso   1.000  C
  C6       1.0000 0.69130  0.55870  0.10180  Biso   1.000  C
  C7       1.0000 0.40930  0.73660  0.99080  Biso   1.000  C
  C8       1.0000 0.36950  0.84230  0.03000  Biso   1.000  C
  C9       1.0000 0.29570  0.92870  0.97940  Biso   1.000  C
  C10      1.0000 0.24050  0.03360  0.01220  Biso   1.000  C
  C11      1.0000 0.29060  0.07310  0.07980  Biso   1.000  C
  C12      1.0000 0.23590  0.17020  0.10600  Biso   1.000  C
  C13      1.0000 0.08980  0.19560  0.00240  Biso   1.000  C
  C14      1.0000 0.13280  0.09350  0.97270  Biso   1.000  C
  C15      1.0000 0.99830  0.46860  0.47570  Biso   1.000  C
  C16      1.0000 0.51910  0.49770  0.37500  Biso   1.000  C
  C17      1.0000 0.59030  0.57570  0.42110  Biso   1.000  C
  C18      1.0000 0.51570  0.64970  0.45760  Biso   1.000  C
  C19      1.0000 0.37250  0.63850  0.44650  Biso   1.000  C
  C20      1.0000 0.30870  0.55870  0.39820  Biso   1.000  C
  C21      1.0000 0.59070  0.73660  0.50920  Biso   1.000  C
  C22      1.0000 0.63050  0.84230  0.47000  Biso   1.000  C
  C23      1.0000 0.70430  0.92870  0.52060  Biso   1.000  C
  C24      1.0000 0.75950  0.03360  0.48780  Biso   1.000  C
  C25      1.0000 0.70940  0.07310  0.42020  Biso   1.000  C
  C26      1.0000 0.76410  0.17020  0.39400  Biso   1.000  C
  C27      1.0000 0.91020  0.19560  0.49760  Biso   1.000  C
  C28      1.0000 0.86720  0.09350  0.52730  Biso   1.000  C
  C29      1.0000 0.99830  0.53140  0.97570  Biso   1.000  C
  C30      1.0000 0.51910  0.50230  0.87500  Biso   1.000  C
  C31      1.0000 0.59030  0.42430  0.92110  Biso   1.000  C
  C32      1.0000 0.51570  0.35030  0.95760  Biso   1.000  C
  C33      1.0000 0.37250  0.36150  0.94650  Biso   1.000  C
  C34      1.0000 0.30870  0.44130  0.89820  Biso   1.000  C
  C35      1.0000 0.59070  0.26340  0.00920  Biso   1.000  C
  C36      1.0000 0.63050  0.15770  0.97000  Biso   1.000  C
  C37      1.0000 0.70430  0.07130  0.02060  Biso   1.000  C
  C38      1.0000 0.75950  0.96640  0.98780  Biso   1.000  C
  C39      1.0000 0.70940  0.92690  0.92020  Biso   1.000  C
  C40      1.0000 0.76410  0.82980  0.89400  Biso   1.000  C
  C41      1.0000 0.91020  0.80440  0.99760  Biso   1.000  C
  C42      1.0000 0.86720  0.90650  0.02730  Biso   1.000  C
  C43      1.0000 0.00170  0.53140  0.52430  Biso   1.000  C
  C44      1.0000 0.48090  0.50230  0.62500  Biso   1.000  C
  C45      1.0000 0.40970  0.42430  0.57890  Biso   1.000  C
  C46      1.0000 0.48430  0.35030  0.54240  Biso   1.000  C
  C47      1.0000 0.62750  0.36150  0.55350  Biso   1.000  C
  C48      1.0000 0.69130  0.44130  0.60180  Biso   1.000  C
  C49      1.0000 0.40930  0.26340  0.49080  Biso   1.000  C
  C50      1.0000 0.36950  0.15770  0.53000  Biso   1.000  C
  C51      1.0000 0.29570  0.07130  0.47940  Biso   1.000  C
  C52      1.0000 0.24050  0.96640  0.51220  Biso   1.000  C
  C53      1.0000 0.29060  0.92690  0.57980  Biso   1.000  C
  C54      1.0000 0.23590  0.82980  0.60600  Biso   1.000  C
  C55      1.0000 0.08980  0.80440  0.50240  Biso   1.000  C
  C56      1.0000 0.13280  0.90650  0.47270  Biso   1.000  C
  S1       1.0000 0.88040  0.26523  0.16362  Biso   1.000  S
  S2       1.0000 0.84740  0.47840  0.29901  Biso   1.000  S
  S3       1.0000 0.11960  0.26523  0.33638  Biso   1.000  S
  S4       1.0000 0.15260  0.47840  0.20099  Biso   1.000  S
  S5       1.0000 0.11960  0.73477  0.83638  Biso   1.000  S
  S6       1.0000 0.15260  0.52160  0.70099  Biso   1.000  S
  S7       1.0000 0.88040  0.73477  0.66362  Biso   1.000  S
  S8       1.0000 0.84740  0.52160  0.79901  Biso   1.000  S
  N1       1.0000 0.61980  0.48870  0.13740  Biso   1.000  N
  N2       1.0000 0.13680  0.23280  0.06840  Biso   1.000  N
  N3       1.0000 0.55420  0.29420  0.24090  Biso   1.000  N
  N4       1.0000 0.38020  0.48870  0.36260  Biso   1.000  N
  N5       1.0000 0.86320  0.23280  0.43160  Biso   1.000  N
  N6       1.0000 0.44580  0.29420  0.25910  Biso   1.000  N
  N7       1.0000 0.38020  0.51130  0.86260  Biso   1.000  N
  N8       1.0000 0.86320  0.76720  0.93160  Biso   1.000  N
  N9       1.0000 0.44580  0.70580  0.75910  Biso   1.000  N
  N10      1.0000 0.61980  0.51130  0.63740  Biso   1.000  N
  N11      1.0000 0.13680  0.76720  0.56840  Biso   1.000  N
  N12      1.0000 0.55420  0.70580  0.74090  Biso   1.000  N
