data_image0
_cell_length_a       9.6701
_cell_length_b       11.742
_cell_length_c       18.852
_cell_angle_alpha    90
_cell_angle_beta     97.91
_cell_angle_gamma    90

_symmetry_space_group_name_H-M    P 1
_symmetry_int_tables_number       1

loop_
  _symmetry_equiv_pos_as_xyz
  'x, y, z'

loop_
  _atom_site_label
  _atom_site_occupancy
  _atom_site_fract_x
  _atom_site_fract_y
  _atom_site_fract_z
  _atom_site_thermal_displace_type
  _atom_site_B_iso_or_equiv
  _atom_site_type_symbol
  Cu1      1.0000 0.96186  0.62483  0.88966  Biso   1.000  Cu
  Cu2      1.0000 0.27939  0.62714  0.78959  Biso   1.000  Cu
  Cu3      1.0000 0.03814  0.62483  0.61034  Biso   1.000  Cu
  Cu4      1.0000 0.72061  0.62714  0.71041  Biso   1.000  Cu
  Cu5      1.0000 0.03814  0.37517  0.11034  Biso   1.000  Cu
  Cu6      1.0000 0.72061  0.37286  0.21041  Biso   1.000  Cu
  Cu7      1.0000 0.96186  0.37517  0.38966  Biso   1.000  Cu
  Cu8      1.0000 0.27939  0.37286  0.28959  Biso   1.000  Cu
  Mo1      1.0000 0.00000  0.62719  0.75000  Biso   1.000  Mo
  Mo2      1.0000 0.00000  0.37281  0.25000  Biso   1.000  Mo
  H1       1.0000 0.57130  0.55700  0.85400  Biso   1.000  H
  H2       1.0000 0.68780  0.42790  0.93270  Biso   1.000  H
  H3       1.0000 0.31670  0.30550  0.96820  Biso   1.000  H
  H4       1.0000 0.20760  0.44200  0.89200  Biso   1.000  H
  H5       1.0000 0.52640  0.24040  0.04470  Biso   1.000  H
  H6       1.0000 0.67440  0.29440  0.03490  Biso   1.000  H
  H7       1.0000 0.68320  0.17600  0.93360  Biso   1.000  H
  H8       1.0000 0.53760  0.12010  0.94610  Biso   1.000  H
  H9       1.0000 0.63790  0.04380  0.05460  Biso   1.000  H
  H10      1.0000 0.78140  0.10750  0.04880  Biso   1.000  H
  H11      1.0000 0.90510  0.92650  0.07040  Biso   1.000  H
  H12      1.0000 0.98610  0.76510  0.02260  Biso   1.000  H
  H13      1.0000 0.71170  0.80180  0.84820  Biso   1.000  H
  H14      1.0000 0.62280  0.95910  0.89520  Biso   1.000  H
  H15      1.0000 0.42870  0.55700  0.64600  Biso   1.000  H
  H16      1.0000 0.31220  0.42790  0.56730  Biso   1.000  H
  H17      1.0000 0.68330  0.30550  0.53180  Biso   1.000  H
  H18      1.0000 0.79240  0.44200  0.60800  Biso   1.000  H
  H19      1.0000 0.47360  0.24040  0.45530  Biso   1.000  H
  H20      1.0000 0.32560  0.29440  0.46510  Biso   1.000  H
  H21      1.0000 0.31680  0.17600  0.56640  Biso   1.000  H
  H22      1.0000 0.46240  0.12010  0.55390  Biso   1.000  H
  H23      1.0000 0.36210  0.04380  0.44540  Biso   1.000  H
  H24      1.0000 0.21860  0.10750  0.45120  Biso   1.000  H
  H25      1.0000 0.09490  0.92650  0.42960  Biso   1.000  H
  H26      1.0000 0.01390  0.76510  0.47740  Biso   1.000  H
  H27      1.0000 0.28830  0.80180  0.65180  Biso   1.000  H
  H28      1.0000 0.37720  0.95910  0.60480  Biso   1.000  H
  H29      1.0000 0.42870  0.44300  0.14600  Biso   1.000  H
  H30      1.0000 0.31220  0.57210  0.06730  Biso   1.000  H
  H31      1.0000 0.68330  0.69450  0.03180  Biso   1.000  H
  H32      1.0000 0.79240  0.55800  0.10800  Biso   1.000  H
  H33      1.0000 0.47360  0.75960  0.95530  Biso   1.000  H
  H34      1.0000 0.32560  0.70560  0.96510  Biso   1.000  H
  H35      1.0000 0.31680  0.82400  0.06640  Biso   1.000  H
  H36      1.0000 0.46240  0.87990  0.05390  Biso   1.000  H
  H37      1.0000 0.36210  0.95620  0.94540  Biso   1.000  H
  H38      1.0000 0.21860  0.89250  0.95120  Biso   1.000  H
  H39      1.0000 0.09490  0.07350  0.92960  Biso   1.000  H
  H40      1.0000 0.01390  0.23490  0.97740  Biso   1.000  H
  H41      1.0000 0.28830  0.19820  0.15180  Biso   1.000  H
  H42      1.0000 0.37720  0.04090  0.10480  Biso   1.000  H
  H43      1.0000 0.57130  0.44300  0.35400  Biso   1.000  H
  H44      1.0000 0.68780  0.57210  0.43270  Biso   1.000  H
  H45      1.0000 0.31670  0.69450  0.46820  Biso   1.000  H
  H46      1.0000 0.20760  0.55800  0.39200  Biso   1.000  H
  H47      1.0000 0.52640  0.75960  0.54470  Biso   1.000  H
  H48      1.0000 0.67440  0.70560  0.53490  Biso   1.000  H
  H49      1.0000 0.68320  0.82400  0.43360  Biso   1.000  H
  H50      1.0000 0.53760  0.87990  0.44610  Biso   1.000  H
  H51      1.0000 0.63790  0.95620  0.55460  Biso   1.000  H
  H52      1.0000 0.78140  0.89250  0.54880  Biso   1.000  H
  H53      1.0000 0.90510  0.07350  0.57040  Biso   1.000  H
  H54      1.0000 0.98610  0.23490  0.52260  Biso   1.000  H
  H55      1.0000 0.71170  0.19820  0.34820  Biso   1.000  H
  H56      1.0000 0.62280  0.04090  0.39520  Biso   1.000  H
  C1       1.0000 0.44530  0.69910  0.75990  Biso   1.000  C
  C2       1.0000 0.51810  0.50460  0.87750  Biso   1.000  C
  C3       1.0000 0.58860  0.42750  0.92450  Biso   1.000  C
  C4       1.0000 0.51520  0.35040  0.95930  Biso   1.000  C
  C5       1.0000 0.37190  0.35720  0.94540  Biso   1.000  C
  C6       1.0000 0.30670  0.43760  0.89890  Biso   1.000  C
  C7       1.0000 0.58780  0.26130  0.00890  Biso   1.000  C
  C8       1.0000 0.62440  0.15500  0.97070  Biso   1.000  C
  C9       1.0000 0.70110  0.06870  0.02050  Biso   1.000  C
  C10      1.0000 0.75450  0.96510  0.98760  Biso   1.000  C
  C11      1.0000 0.86360  0.90200  0.02430  Biso   1.000  C
  C12      1.0000 0.91200  0.80560  0.99540  Biso   1.000  C
  C13      1.0000 0.75210  0.82650  0.89440  Biso   1.000  C
  C14      1.0000 0.69980  0.92150  0.92200  Biso   1.000  C
  C15      1.0000 0.55470  0.69910  0.74010  Biso   1.000  C
  C16      1.0000 0.48190  0.50460  0.62250  Biso   1.000  C
  C17      1.0000 0.41140  0.42750  0.57550  Biso   1.000  C
  C18      1.0000 0.48480  0.35040  0.54070  Biso   1.000  C
  C19      1.0000 0.62810  0.35720  0.55460  Biso   1.000  C
  C20      1.0000 0.69330  0.43760  0.60110  Biso   1.000  C
  C21      1.0000 0.41220  0.26130  0.49110  Biso   1.000  C
  C22      1.0000 0.37560  0.15500  0.52930  Biso   1.000  C
  C23      1.0000 0.29890  0.06870  0.47950  Biso   1.000  C
  C24      1.0000 0.24550  0.96510  0.51240  Biso   1.000  C
  C25      1.0000 0.13640  0.90200  0.47570  Biso   1.000  C
  C26      1.0000 0.08800  0.80560  0.50460  Biso   1.000  C
  C27      1.0000 0.24790  0.82650  0.60560  Biso   1.000  C
  C28      1.0000 0.30020  0.92150  0.57800  Biso   1.000  C
  C29      1.0000 0.55470  0.30090  0.24010  Biso   1.000  C
  C30      1.0000 0.48190  0.49540  0.12250  Biso   1.000  C
  C31      1.0000 0.41140  0.57250  0.07550  Biso   1.000  C
  C32      1.0000 0.48480  0.64960  0.04070  Biso   1.000  C
  C33      1.0000 0.62810  0.64280  0.05460  Biso   1.000  C
  C34      1.0000 0.69330  0.56240  0.10110  Biso   1.000  C
  C35      1.0000 0.41220  0.73870  0.99110  Biso   1.000  C
  C36      1.0000 0.37560  0.84500  0.02930  Biso   1.000  C
  C37      1.0000 0.29890  0.93130  0.97950  Biso   1.000  C
  C38      1.0000 0.24550  0.03490  0.01240  Biso   1.000  C
  C39      1.0000 0.13640  0.09800  0.97570  Biso   1.000  C
  C40      1.0000 0.08800  0.19440  0.00460  Biso   1.000  C
  C41      1.0000 0.24790  0.17350  0.10560  Biso   1.000  C
  C42      1.0000 0.30020  0.07850  0.07800  Biso   1.000  C
  C43      1.0000 0.44530  0.30090  0.25990  Biso   1.000  C
  C44      1.0000 0.51810  0.49540  0.37750  Biso   1.000  C
  C45      1.0000 0.58860  0.57250  0.42450  Biso   1.000  C
  C46      1.0000 0.51520  0.64960  0.45930  Biso   1.000  C
  C47      1.0000 0.37190  0.64280  0.44540  Biso   1.000  C
  C48      1.0000 0.30670  0.56240  0.39890  Biso   1.000  C
  C49      1.0000 0.58780  0.73870  0.50890  Biso   1.000  C
  C50      1.0000 0.62440  0.84500  0.47070  Biso   1.000  C
  C51      1.0000 0.70110  0.93130  0.52050  Biso   1.000  C
  C52      1.0000 0.75450  0.03490  0.48760  Biso   1.000  C
  C53      1.0000 0.86360  0.09800  0.52430  Biso   1.000  C
  C54      1.0000 0.91200  0.19440  0.49540  Biso   1.000  C
  C55      1.0000 0.75210  0.17350  0.39440  Biso   1.000  C
  C56      1.0000 0.69980  0.07850  0.42200  Biso   1.000  C
  S1       1.0000 0.11840  0.73280  0.83622  Biso   1.000  S
  S2       1.0000 0.84680  0.52000  0.79839  Biso   1.000  S
  S3       1.0000 0.88160  0.73280  0.66378  Biso   1.000  S
  S4       1.0000 0.15320  0.52000  0.70161  Biso   1.000  S
  S5       1.0000 0.88160  0.26720  0.16378  Biso   1.000  S
  S6       1.0000 0.15320  0.48000  0.20161  Biso   1.000  S
  S7       1.0000 0.11840  0.26720  0.33622  Biso   1.000  S
  S8       1.0000 0.84680  0.48000  0.29839  Biso   1.000  S
  N1       1.0000 0.99620  0.52960  0.97490  Biso   1.000  N
  N2       1.0000 0.37920  0.50950  0.86320  Biso   1.000  N
  N3       1.0000 0.85980  0.76480  0.92970  Biso   1.000  N
  N4       1.0000 0.00380  0.52960  0.52510  Biso   1.000  N
  N5       1.0000 0.62080  0.50950  0.63680  Biso   1.000  N
  N6       1.0000 0.14020  0.76480  0.57030  Biso   1.000  N
  N7       1.0000 0.00380  0.47040  0.02510  Biso   1.000  N
  N8       1.0000 0.62080  0.49050  0.13680  Biso   1.000  N
  N9       1.0000 0.14020  0.23520  0.07030  Biso   1.000  N
  N10      1.0000 0.99620  0.47040  0.47490  Biso   1.000  N
  N11      1.0000 0.37920  0.49050  0.36320  Biso   1.000  N
  N12      1.0000 0.85980  0.23520  0.42970  Biso   1.000  N
