data_image0
_cell_length_a       8.969
_cell_length_b       9.419
_cell_length_c       17.29
_cell_angle_alpha    100.468
_cell_angle_beta     92.754
_cell_angle_gamma    117.702

_symmetry_space_group_name_H-M    P 1
_symmetry_int_tables_number       1

loop_
  _symmetry_equiv_pos_as_xyz
  'x, y, z'

loop_
  _atom_site_label
  _atom_site_occupancy
  _atom_site_fract_x
  _atom_site_fract_y
  _atom_site_fract_z
  _atom_site_thermal_displace_type
  _atom_site_B_iso_or_equiv
  _atom_site_type_symbol
  Cd1      1.0000 0.45725  0.84964  0.79928  Biso   1.000  Cd
  Cd2      1.0000 0.54275  0.15036  0.20072  Biso   1.000  Cd
  Cd3      1.0000 0.50000  0.00000  0.00000  Biso   1.000  Cd
  H1       1.0000 0.25100  0.44900  0.99200  Biso   1.000  H
  H2       1.0000 0.44760  0.41310  0.91250  Biso   1.000  H
  H3       1.0000 0.31350  0.35150  0.83570  Biso   1.000  H
  H4       1.0000 0.29700  0.17900  0.96500  Biso   1.000  H
  H5       1.0000 0.01500  0.97060  0.88400  Biso   1.000  H
  H6       1.0000 0.03910  0.06680  0.81640  Biso   1.000  H
  H7       1.0000 0.97500  0.16600  0.96400  Biso   1.000  H
  H8       1.0000 0.99060  0.40040  0.93420  Biso   1.000  H
  H9       1.0000 0.02810  0.34550  0.84940  Biso   1.000  H
  H10      1.0000 0.23320  0.50280  0.69220  Biso   1.000  H
  H11      1.0000 0.05140  0.35470  0.57570  Biso   1.000  H
  H12      1.0000 0.11360  0.77390  0.52910  Biso   1.000  H
  H13      1.0000 0.29320  0.91190  0.64710  Biso   1.000  H
  H14      1.0000 0.64820  0.66580  0.83820  Biso   1.000  H
  H15      1.0000 0.74900  0.55100  0.00800  Biso   1.000  H
  H16      1.0000 0.55240  0.58690  0.08750  Biso   1.000  H
  H17      1.0000 0.68650  0.64850  0.16430  Biso   1.000  H
  H18      1.0000 0.70300  0.82100  0.03500  Biso   1.000  H
  H19      1.0000 0.98500  0.02940  0.11600  Biso   1.000  H
  H20      1.0000 0.96090  0.93320  0.18360  Biso   1.000  H
  H21      1.0000 0.02500  0.83400  0.03600  Biso   1.000  H
  H22      1.0000 0.00940  0.59960  0.06580  Biso   1.000  H
  H23      1.0000 0.97190  0.65450  0.15060  Biso   1.000  H
  H24      1.0000 0.76680  0.49720  0.30780  Biso   1.000  H
  H25      1.0000 0.94860  0.64530  0.42430  Biso   1.000  H
  H26      1.0000 0.88640  0.22610  0.47090  Biso   1.000  H
  H27      1.0000 0.70680  0.08810  0.35290  Biso   1.000  H
  H28      1.0000 0.35180  0.33420  0.16180  Biso   1.000  H
  C1       1.0000 0.31120  0.61620  0.92490  Biso   1.000  C
  C2       1.0000 0.23630  0.44020  0.93590  Biso   1.000  C
  C3       1.0000 0.32680  0.35260  0.89180  Biso   1.000  C
  C4       1.0000 0.25370  0.17560  0.90190  Biso   1.000  C
  C5       1.0000 0.33020  0.08210  0.85200  Biso   1.000  C
  C6       1.0000 0.06050  0.07970  0.87350  Biso   1.000  C
  C7       1.0000 0.96850  0.16700  0.91480  Biso   1.000  C
  C8       1.0000 0.78110  0.06460  0.88090  Biso   1.000  C
  C9       1.0000 0.04670  0.34580  0.90520  Biso   1.000  C
  C10      1.0000 0.20850  0.55920  0.65910  Biso   1.000  C
  C11      1.0000 0.09860  0.46880  0.58870  Biso   1.000  C
  C12      1.0000 0.05890  0.54580  0.53820  Biso   1.000  C
  C13      1.0000 0.13530  0.71490  0.56160  Biso   1.000  C
  C14      1.0000 0.24370  0.79760  0.63280  Biso   1.000  C
  C15      1.0000 0.66080  0.65050  0.78470  Biso   1.000  C
  C16      1.0000 0.68500  0.46200  0.67950  Biso   1.000  C
  C17      1.0000 0.82100  0.51280  0.81930  Biso   1.000  C
  C18      1.0000 0.68880  0.38380  0.07510  Biso   1.000  C
  C19      1.0000 0.76370  0.55980  0.06410  Biso   1.000  C
  C20      1.0000 0.67320  0.64740  0.10820  Biso   1.000  C
  C21      1.0000 0.74630  0.82440  0.09810  Biso   1.000  C
  C22      1.0000 0.66980  0.91790  0.14800  Biso   1.000  C
  C23      1.0000 0.93950  0.92030  0.12650  Biso   1.000  C
  C24      1.0000 0.03150  0.83300  0.08520  Biso   1.000  C
  C25      1.0000 0.21890  0.93540  0.11910  Biso   1.000  C
  C26      1.0000 0.95330  0.65420  0.09480  Biso   1.000  C
  C27      1.0000 0.79150  0.44080  0.34090  Biso   1.000  C
  C28      1.0000 0.90140  0.53120  0.41130  Biso   1.000  C
  C29      1.0000 0.94110  0.45420  0.46180  Biso   1.000  C
  C30      1.0000 0.86470  0.28510  0.43840  Biso   1.000  C
  C31      1.0000 0.75630  0.20240  0.36720  Biso   1.000  C
  C32      1.0000 0.33920  0.34950  0.21530  Biso   1.000  C
  C33      1.0000 0.31500  0.53800  0.32050  Biso   1.000  C
  C34      1.0000 0.17900  0.48720  0.18070  Biso   1.000  C
  N1       1.0000 0.28060  0.72140  0.68210  Biso   1.000  N
  N2       1.0000 0.74660  0.57240  0.76460  Biso   1.000  N
  N3       1.0000 0.71940  0.27860  0.31790  Biso   1.000  N
  N4       1.0000 0.25340  0.42760  0.23540  Biso   1.000  N
  O1       1.0000 0.31880  0.63390  0.85480  Biso   1.000  O
  O2       1.0000 0.35970  0.72800  0.98670  Biso   1.000  O
  O3       1.0000 0.72920  0.07280  0.81380  Biso   1.000  O
  O4       1.0000 0.68410  0.96260  0.91780  Biso   1.000  O
  O5       1.0000 0.35870  0.09720  0.78430  Biso   1.000  O
  O6       1.0000 0.35160  0.97920  0.88340  Biso   1.000  O
  O7       1.0000 0.59660  0.70490  0.74600  Biso   1.000  O
  O8       1.0000 0.68120  0.36610  0.14520  Biso   1.000  O
  O9       1.0000 0.64030  0.27200  0.01330  Biso   1.000  O
  O10      1.0000 0.27080  0.92720  0.18620  Biso   1.000  O
  O11      1.0000 0.31590  0.03740  0.08220  Biso   1.000  O
  O12      1.0000 0.64130  0.90280  0.21570  Biso   1.000  O
  O13      1.0000 0.64840  0.02080  0.11660  Biso   1.000  O
  O14      1.0000 0.40340  0.29510  0.25400  Biso   1.000  O
