data_GIYTIS_clean
_audit_creation_date              2015-05-19
_audit_creation_method            'Materials Studio'
_symmetry_space_group_name_H-M    'P1'
_symmetry_Int_Tables_number       1
_symmetry_cell_setting            triclinic
loop_
_symmetry_equiv_pos_as_xyz
  x,y,z
_cell_length_a                    8.9508
_cell_length_b                    9.0892
_cell_length_c                    19.8020
_cell_angle_alpha                 95.6400
_cell_angle_beta                  97.6800
_cell_angle_gamma                 118.2500
loop_
_atom_site_label
_atom_site_type_symbol
_atom_site_fract_x
_atom_site_fract_y
_atom_site_fract_z
_atom_site_U_iso_or_equiv
_atom_site_adp_type
_atom_site_occupancy
Zn1    Zn    0.31388   0.44292   0.77086   0.01267  Uiso   1.00
Zn2    Zn    0.44000   0.61490   0.93621   0.01267  Uiso   1.00
Zn3    Zn    0.56632   0.78625   0.10176   0.01267  Uiso   1.00
H4     H     0.38440   0.99540   0.83680   0.01267  Uiso   1.00
H5     H     0.49080   0.06750   0.77930   0.01267  Uiso   1.00
H6     H     0.77500   0.07330   0.77820   0.01267  Uiso   1.00
H7     H     0.85310   0.00520   0.83520   0.01267  Uiso   1.00
H8     H     0.84360   0.45000   0.88600   0.01267  Uiso   1.00
H9     H     0.77380   0.34860   0.80940   0.01267  Uiso   1.00
H10    H     0.03770   0.77940   0.98540   0.01267  Uiso   1.00
H11    H     0.10620   0.87440   0.06300   0.01267  Uiso   1.00
H12    H     0.48980   0.23880   0.03310   0.01267  Uiso   1.00
H13    H     0.39560   0.17130   0.09390   0.01267  Uiso   1.00
H14    H     0.10680   0.15610   0.09240   0.01267  Uiso   1.00
H15    H     0.03430   0.22350   0.03390   0.01267  Uiso   1.00
H16    H     0.97940   0.20860   0.67310   0.01267  Uiso   1.00
H17    H     0.93760   0.03540   0.56520   0.01267  Uiso   1.00
H18    H     0.30090   0.44190   0.51820   0.01267  Uiso   1.00
H19    H     0.41450   0.52630   0.63450   0.01267  Uiso   1.00
H20    H     0.09660   0.25320   0.42560   0.01267  Uiso   1.00
H21    H     0.82590   0.00390   0.45210   0.01267  Uiso   1.00
H22    H     0.59600   0.77040   0.35380   0.01267  Uiso   1.00
H23    H     0.48680   0.66820   0.23830   0.01267  Uiso   1.00
H24    H     0.84420   0.10200   0.19650   0.01267  Uiso   1.00
H25    H     0.01640   0.12700   0.30980   0.01267  Uiso   1.00
C26    C     0.50240   0.33680   0.85960   0.01267  Uiso   1.00
C27    C     0.59660   0.23580   0.87330   0.01267  Uiso   1.00
C28    C     0.50020   0.05870   0.82800   0.01267  Uiso   1.00
C29    C     0.60600   0.96620   0.84640   0.01267  Uiso   1.00
C30    C     0.51100   0.78640   0.80420   0.01267  Uiso   1.00
C31    C     0.78840   0.06460   0.82680   0.01267  Uiso   1.00
C32    C     0.88550   0.24500   0.87330   0.01267  Uiso   1.00
C33    C     0.06380   0.34660   0.86150   0.01267  Uiso   1.00
C34    C     0.78290   0.33700   0.85780   0.01267  Uiso   1.00
C35    C     0.81200   0.87900   0.01160   0.01267  Uiso   1.00
C36    C     0.00070   0.98960   0.00120   0.01267  Uiso   1.00
C37    C     0.09950   0.89050   0.01520   0.01267  Uiso   1.00
C38    C     0.28020   0.98860   0.00140   0.01267  Uiso   1.00
C39    C     0.37630   0.89370   0.01660   0.01267  Uiso   1.00
C40    C     0.37720   0.17540   0.04490   0.01267  Uiso   1.00
C41    C     0.27490   0.26530   0.03090   0.01267  Uiso   1.00
C42    C     0.37700   0.44280   0.07360   0.01267  Uiso   1.00
C43    C     0.09900   0.16440   0.04370   0.01267  Uiso   1.00
C44    C     0.05900   0.23800   0.64430   0.01267  Uiso   1.00
C45    C     0.01300   0.15200   0.57660   0.01267  Uiso   1.00
C46    C     0.08200   0.24500   0.52660   0.01267  Uiso   1.00
C47    C     0.23700   0.38200   0.54940   0.01267  Uiso   1.00
C48    C     0.30300   0.43400   0.61950   0.01267  Uiso   1.00
C49    C     0.02300   0.18800   0.45270   0.01267  Uiso   1.00
C50    C     0.89100   0.06800   0.42230   0.01267  Uiso   1.00
C51    C     0.80000   0.99300   0.34570   0.01267  Uiso   1.00
C52    C     0.65100   0.83500   0.32200   0.01267  Uiso   1.00
C53    C     0.58600   0.77400   0.25270   0.01267  Uiso   1.00
C54    C     0.80600   0.02300   0.22580   0.01267  Uiso   1.00
C55    C     0.89700   0.06000   0.29730   0.01267  Uiso   1.00
N56    N     0.21830   0.36290   0.66630   0.01267  Uiso   1.00
N57    N     0.65930   0.86300   0.20380   0.01267  Uiso   1.00
O58    O     0.45030   0.33770   0.79310   0.01267  Uiso   1.00
O59    O     0.49220   0.41980   0.90690   0.01267  Uiso   1.00
O60    O     0.45500   0.76270   0.73830   0.01267  Uiso   1.00
O61    O     0.43030   0.66520   0.83290   0.01267  Uiso   1.00
O62    O     0.09170   0.32960   0.80050   0.01267  Uiso   1.00
O63    O     0.17680   0.44890   0.91250   0.01267  Uiso   1.00
O64    O     0.70510   0.77460   0.96120   0.01267  Uiso   1.00
O65    O     0.78620   0.90580   0.07210   0.01267  Uiso   1.00
O66    O     0.38410   0.80700   0.96490   0.01267  Uiso   1.00
O67    O     0.44600   0.90910   0.07590   0.01267  Uiso   1.00
O68    O     0.44790   0.56330   0.03950   0.01267  Uiso   1.00
O69    O     0.34890   0.47800   0.12920   0.01267  Uiso   1.00
H70    H     0.62265   0.96199   0.90414   0.00000  Uiso   1.00
H71    H     0.89349   0.23060   0.93001   0.00000  Uiso   1.00
H72    H     0.60835   0.22277   0.93017   0.00000  Uiso   1.00
H73    H     0.99260   0.00271   0.94435   0.00000  Uiso   1.00
H74    H     0.26283   0.27634   0.97381   0.00000  Uiso   1.00
H75    H     0.26846   0.99686   0.94403   0.00000  Uiso   1.00
