data_image0
_cell_length_a       8.9436
_cell_length_b       9.4538
_cell_length_c       19.005
_cell_angle_alpha    95.166
_cell_angle_beta     93.05
_cell_angle_gamma    117.534

_symmetry_space_group_name_H-M    P 1
_symmetry_int_tables_number       1

loop_
  _symmetry_equiv_pos_as_xyz
  'x, y, z'

loop_
  _atom_site_label
  _atom_site_occupancy
  _atom_site_fract_x
  _atom_site_fract_y
  _atom_site_fract_z
  _atom_site_thermal_displace_type
  _atom_site_B_iso_or_equiv
  _atom_site_type_symbol
  Cd1      1.0000 0.98362  0.89819  0.82078  Biso   1.000  Cd
  Cd2      1.0000 0.01638  0.10181  0.17922  Biso   1.000  Cd
  Cd3      1.0000 0.00000  0.00000  0.00000  Biso   1.000  Cd
  H1       1.0000 0.78700  0.19060  0.96220  Biso   1.000  H
  H2       1.0000 0.96130  0.43170  0.91880  Biso   1.000  H
  H3       1.0000 0.83090  0.38520  0.85130  Biso   1.000  H
  H4       1.0000 0.76420  0.45040  0.99230  Biso   1.000  H
  H5       1.0000 0.54570  0.37770  0.86500  Biso   1.000  H
  H6       1.0000 0.50320  0.41960  0.94060  Biso   1.000  H
  H7       1.0000 0.49100  0.18450  0.97660  Biso   1.000  H
  H8       1.0000 0.55790  0.10940  0.83700  Biso   1.000  H
  H9       1.0000 0.52910  0.00080  0.89780  Biso   1.000  H
  H10      1.0000 0.79760  0.57770  0.72150  Biso   1.000  H
  H11      1.0000 0.62990  0.45100  0.61760  Biso   1.000  H
  H12      1.0000 0.50610  0.64280  0.48740  Biso   1.000  H
  H13      1.0000 0.66490  0.87050  0.57790  Biso   1.000  H
  H14      1.0000 0.83010  0.98590  0.68250  Biso   1.000  H
  H15      1.0000 0.15300  0.68690  0.85340  Biso   1.000  H
  H16      1.0000 0.54010  0.80540  0.76690  Biso   1.000  H
  H17      1.0000 0.42370  0.66640  0.70660  Biso   1.000  H
  H18      1.0000 0.39380  0.81650  0.72250  Biso   1.000  H
  H19      1.0000 0.31410  0.46380  0.82220  Biso   1.000  H
  H20      1.0000 0.48070  0.62350  0.84860  Biso   1.000  H
  H21      1.0000 0.31910  0.57700  0.88880  Biso   1.000  H
  H22      1.0000 0.21300  0.80940  0.03780  Biso   1.000  H
  H23      1.0000 0.03870  0.56830  0.08120  Biso   1.000  H
  H24      1.0000 0.16910  0.61480  0.14870  Biso   1.000  H
  H25      1.0000 0.23580  0.54960  0.00770  Biso   1.000  H
  H26      1.0000 0.45430  0.62230  0.13500  Biso   1.000  H
  H27      1.0000 0.49680  0.58040  0.05940  Biso   1.000  H
  H28      1.0000 0.50900  0.81550  0.02340  Biso   1.000  H
  H29      1.0000 0.44210  0.89060  0.16300  Biso   1.000  H
  H30      1.0000 0.47090  0.99920  0.10220  Biso   1.000  H
  H31      1.0000 0.20240  0.42230  0.27850  Biso   1.000  H
  H32      1.0000 0.37010  0.54900  0.38240  Biso   1.000  H
  H33      1.0000 0.49390  0.35720  0.51260  Biso   1.000  H
  H34      1.0000 0.33510  0.12950  0.42210  Biso   1.000  H
  H35      1.0000 0.16990  0.01410  0.31750  Biso   1.000  H
  H36      1.0000 0.84700  0.31310  0.14660  Biso   1.000  H
  H37      1.0000 0.45990  0.19460  0.23310  Biso   1.000  H
  H38      1.0000 0.57630  0.33360  0.29340  Biso   1.000  H
  H39      1.0000 0.60620  0.18350  0.27750  Biso   1.000  H
  H40      1.0000 0.68590  0.53620  0.17780  Biso   1.000  H
  H41      1.0000 0.51930  0.37650  0.15140  Biso   1.000  H
  H42      1.0000 0.68090  0.42300  0.11120  Biso   1.000  H
  C1       1.0000 0.84600  0.11420  0.86760  Biso   1.000  C
  C2       1.0000 0.76780  0.19920  0.91190  Biso   1.000  C
  C3       1.0000 0.84160  0.37640  0.90160  Biso   1.000  C
  C4       1.0000 0.75050  0.45790  0.94150  Biso   1.000  C
  C5       1.0000 0.56080  0.36910  0.91510  Biso   1.000  C
  C6       1.0000 0.48160  0.19230  0.92560  Biso   1.000  C
  C7       1.0000 0.57600  0.11130  0.88790  Biso   1.000  C
  C8       1.0000 0.82520  0.63430  0.93120  Biso   1.000  C
  C9       1.0000 0.29760  0.09850  0.89610  Biso   1.000  C
  C10      1.0000 0.76980  0.63770  0.69220  Biso   1.000  C
  C11      1.0000 0.67140  0.56130  0.62930  Biso   1.000  C
  C12      1.0000 0.63380  0.64760  0.58320  Biso   1.000  C
  C13      1.0000 0.53030  0.57610  0.51370  Biso   1.000  C
  C14      1.0000 0.69190  0.80810  0.60590  Biso   1.000  C
  C15      1.0000 0.78900  0.87610  0.66950  Biso   1.000  C
  C16      1.0000 0.19730  0.70800  0.81010  Biso   1.000  C
  C17      1.0000 0.42700  0.74500  0.74330  Biso   1.000  C
  C18      1.0000 0.35910  0.57360  0.84310  Biso   1.000  C
  C19      1.0000 0.15400  0.88580  0.13240  Biso   1.000  C
  C20      1.0000 0.23220  0.80080  0.08810  Biso   1.000  C
  C21      1.0000 0.15840  0.62360  0.09840  Biso   1.000  C
  C22      1.0000 0.24950  0.54210  0.05850  Biso   1.000  C
  C23      1.0000 0.43920  0.63090  0.08490  Biso   1.000  C
  C24      1.0000 0.51840  0.80770  0.07440  Biso   1.000  C
  C25      1.0000 0.42400  0.88870  0.11210  Biso   1.000  C
  C26      1.0000 0.17480  0.36570  0.06880  Biso   1.000  C
  C27      1.0000 0.70240  0.90150  0.10390  Biso   1.000  C
  C28      1.0000 0.23020  0.36230  0.30780  Biso   1.000  C
  C29      1.0000 0.32860  0.43870  0.37070  Biso   1.000  C
  C30      1.0000 0.36620  0.35240  0.41680  Biso   1.000  C
  C31      1.0000 0.46970  0.42390  0.48630  Biso   1.000  C
  C32      1.0000 0.30810  0.19190  0.39410  Biso   1.000  C
  C33      1.0000 0.21100  0.12390  0.33050  Biso   1.000  C
  C34      1.0000 0.80270  0.29200  0.18990  Biso   1.000  C
  C35      1.0000 0.57300  0.25500  0.25670  Biso   1.000  C
  C36      1.0000 0.64090  0.42640  0.15690  Biso   1.000  C
  N1       1.0000 0.82820  0.79510  0.71380  Biso   1.000  N
  N2       1.0000 0.30380  0.65910  0.79760  Biso   1.000  N
  N3       1.0000 0.17180  0.20490  0.28620  Biso   1.000  N
  N4       1.0000 0.69620  0.34090  0.20240  Biso   1.000  N
  O1       1.0000 0.86170  0.00240  0.89591  Biso   1.000  O
  O2       1.0000 0.88420  0.14360  0.80790  Biso   1.000  O
  O3       1.0000 0.24990  0.12290  0.83707  Biso   1.000  O
  O4       1.0000 0.19790  0.98650  0.92861  Biso   1.000  O
  O5       1.0000 0.84360  0.66710  0.86935  Biso   1.000  O
  O6       1.0000 0.86220  0.73260  0.98627  Biso   1.000  O
  O7       1.0000 0.14470  0.77680  0.77520  Biso   1.000  O
  O8       1.0000 0.13830  0.99760  0.10409  Biso   1.000  O
  O9       1.0000 0.11580  0.85640  0.19210  Biso   1.000  O
  O10      1.0000 0.75010  0.87710  0.16293  Biso   1.000  O
  O11      1.0000 0.80210  0.01350  0.07139  Biso   1.000  O
  O12      1.0000 0.15640  0.33290  0.13065  Biso   1.000  O
  O13      1.0000 0.13780  0.26740  0.01373  Biso   1.000  O
  O14      1.0000 0.85530  0.22320  0.22480  Biso   1.000  O
