data_image0
_cell_length_a       15.662
_cell_length_b       15.6621
_cell_length_c       18.2073
_cell_angle_alpha    90
_cell_angle_beta     90
_cell_angle_gamma    90

_symmetry_space_group_name_H-M    P 1
_symmetry_int_tables_number       1

loop_
  _symmetry_equiv_pos_as_xyz
  'x, y, z'

loop_
  _atom_site_label
  _atom_site_occupancy
  _atom_site_fract_x
  _atom_site_fract_y
  _atom_site_fract_z
  _atom_site_thermal_displace_type
  _atom_site_B_iso_or_equiv
  _atom_site_type_symbol
  Zn1      1.0000 0.69657  0.86079  0.40341  Biso   1.000  Zn
  Zn2      1.0000 0.50257  0.83501  0.68329  Biso   1.000  Zn
  Zn3      1.0000 0.80343  0.13921  0.90341  Biso   1.000  Zn
  Zn4      1.0000 0.99743  0.16499  0.18329  Biso   1.000  Zn
  Zn5      1.0000 0.30343  0.36079  0.09659  Biso   1.000  Zn
  Zn6      1.0000 0.49743  0.33501  0.81671  Biso   1.000  Zn
  Zn7      1.0000 0.19657  0.63921  0.59659  Biso   1.000  Zn
  Zn8      1.0000 0.00257  0.66499  0.31671  Biso   1.000  Zn
  Zn9      1.0000 0.30343  0.13921  0.59659  Biso   1.000  Zn
  Zn10     1.0000 0.49743  0.16499  0.31671  Biso   1.000  Zn
  Zn11     1.0000 0.19657  0.86079  0.09659  Biso   1.000  Zn
  Zn12     1.0000 0.00257  0.83501  0.81671  Biso   1.000  Zn
  Zn13     1.0000 0.69657  0.63921  0.90341  Biso   1.000  Zn
  Zn14     1.0000 0.50257  0.66499  0.18329  Biso   1.000  Zn
  Zn15     1.0000 0.80343  0.36079  0.40341  Biso   1.000  Zn
  Zn16     1.0000 0.99743  0.33501  0.68329  Biso   1.000  Zn
  H1       1.0000 0.89050  0.94000  0.42090  Biso   1.000  H
  H2       1.0000 0.01940  0.85850  0.38850  Biso   1.000  H
  H3       1.0000 0.63720  0.66370  0.43190  Biso   1.000  H
  H4       1.0000 0.73040  0.96130  0.25200  Biso   1.000  H
  H5       1.0000 0.76520  0.93890  0.55830  Biso   1.000  H
  H6       1.0000 0.55660  0.81810  0.51780  Biso   1.000  H
  H7       1.0000 0.68420  0.92710  0.67150  Biso   1.000  H
  H8       1.0000 0.58980  0.81240  0.26810  Biso   1.000  H
  H9       1.0000 0.55830  0.58320  0.33960  Biso   1.000  H
  H10      1.0000 0.63950  0.07490  0.20800  Biso   1.000  H
  H11      1.0000 0.56750  0.01260  0.40430  Biso   1.000  H
  H12      1.0000 0.81750  0.71910  0.34770  Biso   1.000  H
  H13      1.0000 0.60950  0.06000  0.92090  Biso   1.000  H
  H14      1.0000 0.48060  0.14150  0.88850  Biso   1.000  H
  H15      1.0000 0.86280  0.33630  0.93190  Biso   1.000  H
  H16      1.0000 0.76960  0.03870  0.75200  Biso   1.000  H
  H17      1.0000 0.73480  0.06110  0.05830  Biso   1.000  H
  H18      1.0000 0.94340  0.18190  0.01780  Biso   1.000  H
  H19      1.0000 0.81580  0.07290  0.17150  Biso   1.000  H
  H20      1.0000 0.91020  0.18760  0.76810  Biso   1.000  H
  H21      1.0000 0.94170  0.41680  0.83960  Biso   1.000  H
  H22      1.0000 0.86050  0.92510  0.70800  Biso   1.000  H
  H23      1.0000 0.93250  0.98740  0.90430  Biso   1.000  H
  H24      1.0000 0.68250  0.28090  0.84770  Biso   1.000  H
  H25      1.0000 0.10950  0.44000  0.07910  Biso   1.000  H
  H26      1.0000 0.98060  0.35850  0.11150  Biso   1.000  H
  H27      1.0000 0.36280  0.16370  0.06810  Biso   1.000  H
  H28      1.0000 0.26960  0.46130  0.24800  Biso   1.000  H
  H29      1.0000 0.23480  0.43890  0.94170  Biso   1.000  H
  H30      1.0000 0.44340  0.31810  0.98220  Biso   1.000  H
  H31      1.0000 0.31580  0.42710  0.82850  Biso   1.000  H
  H32      1.0000 0.41020  0.31240  0.23190  Biso   1.000  H
  H33      1.0000 0.44170  0.08320  0.16040  Biso   1.000  H
  H34      1.0000 0.36050  0.57490  0.29200  Biso   1.000  H
  H35      1.0000 0.43250  0.51260  0.09570  Biso   1.000  H
  H36      1.0000 0.18250  0.21910  0.15230  Biso   1.000  H
  H37      1.0000 0.39050  0.56000  0.57910  Biso   1.000  H
  H38      1.0000 0.51940  0.64150  0.61150  Biso   1.000  H
  H39      1.0000 0.13720  0.83630  0.56810  Biso   1.000  H
  H40      1.0000 0.23040  0.53870  0.74800  Biso   1.000  H
  H41      1.0000 0.26520  0.56110  0.44170  Biso   1.000  H
  H42      1.0000 0.05660  0.68190  0.48220  Biso   1.000  H
  H43      1.0000 0.18420  0.57290  0.32850  Biso   1.000  H
  H44      1.0000 0.08980  0.68760  0.73190  Biso   1.000  H
  H45      1.0000 0.05830  0.91680  0.66040  Biso   1.000  H
  H46      1.0000 0.13950  0.42510  0.79200  Biso   1.000  H
  H47      1.0000 0.06750  0.48740  0.59570  Biso   1.000  H
  H48      1.0000 0.31750  0.78090  0.65230  Biso   1.000  H
  H49      1.0000 0.10950  0.06000  0.57910  Biso   1.000  H
  H50      1.0000 0.98060  0.14150  0.61150  Biso   1.000  H
  H51      1.0000 0.36280  0.33630  0.56810  Biso   1.000  H
  H52      1.0000 0.26960  0.03870  0.74800  Biso   1.000  H
  H53      1.0000 0.23480  0.06110  0.44170  Biso   1.000  H
  H54      1.0000 0.44340  0.18190  0.48220  Biso   1.000  H
  H55      1.0000 0.31580  0.07290  0.32850  Biso   1.000  H
  H56      1.0000 0.41020  0.18760  0.73190  Biso   1.000  H
  H57      1.0000 0.44170  0.41680  0.66040  Biso   1.000  H
  H58      1.0000 0.36050  0.92510  0.79200  Biso   1.000  H
  H59      1.0000 0.43250  0.98740  0.59570  Biso   1.000  H
  H60      1.0000 0.18250  0.28090  0.65230  Biso   1.000  H
  H61      1.0000 0.39050  0.94000  0.07910  Biso   1.000  H
  H62      1.0000 0.51940  0.85850  0.11150  Biso   1.000  H
  H63      1.0000 0.13720  0.66370  0.06810  Biso   1.000  H
  H64      1.0000 0.23040  0.96130  0.24800  Biso   1.000  H
  H65      1.0000 0.26520  0.93890  0.94170  Biso   1.000  H
  H66      1.0000 0.05660  0.81810  0.98220  Biso   1.000  H
  H67      1.0000 0.18420  0.92710  0.82850  Biso   1.000  H
  H68      1.0000 0.08980  0.81240  0.23190  Biso   1.000  H
  H69      1.0000 0.05830  0.58320  0.16040  Biso   1.000  H
  H70      1.0000 0.13950  0.07490  0.29200  Biso   1.000  H
  H71      1.0000 0.06750  0.01260  0.09570  Biso   1.000  H
  H72      1.0000 0.31750  0.71910  0.15230  Biso   1.000  H
  H73      1.0000 0.89050  0.56000  0.92090  Biso   1.000  H
  H74      1.0000 0.01940  0.64150  0.88850  Biso   1.000  H
  H75      1.0000 0.63720  0.83630  0.93190  Biso   1.000  H
  H76      1.0000 0.73040  0.53870  0.75200  Biso   1.000  H
  H77      1.0000 0.76520  0.56110  0.05830  Biso   1.000  H
  H78      1.0000 0.55660  0.68190  0.01780  Biso   1.000  H
  H79      1.0000 0.68420  0.57290  0.17150  Biso   1.000  H
  H80      1.0000 0.58980  0.68760  0.76810  Biso   1.000  H
  H81      1.0000 0.55830  0.91680  0.83960  Biso   1.000  H
  H82      1.0000 0.63950  0.42510  0.70800  Biso   1.000  H
  H83      1.0000 0.56750  0.48740  0.90430  Biso   1.000  H
  H84      1.0000 0.81750  0.78090  0.84770  Biso   1.000  H
  H85      1.0000 0.60950  0.44000  0.42090  Biso   1.000  H
  H86      1.0000 0.48060  0.35850  0.38850  Biso   1.000  H
  H87      1.0000 0.86280  0.16370  0.43190  Biso   1.000  H
  H88      1.0000 0.76960  0.46130  0.25200  Biso   1.000  H
  H89      1.0000 0.73480  0.43890  0.55830  Biso   1.000  H
  H90      1.0000 0.94340  0.31810  0.51780  Biso   1.000  H
  H91      1.0000 0.81580  0.42710  0.67150  Biso   1.000  H
  H92      1.0000 0.91020  0.31240  0.26810  Biso   1.000  H
  H93      1.0000 0.94170  0.08320  0.33960  Biso   1.000  H
  H94      1.0000 0.86050  0.57490  0.20800  Biso   1.000  H
  H95      1.0000 0.93250  0.51260  0.40430  Biso   1.000  H
  H96      1.0000 0.68250  0.21910  0.34770  Biso   1.000  H
  C1       1.0000 0.89090  0.88510  0.40140  Biso   1.000  C
  C2       1.0000 0.96330  0.84000  0.38280  Biso   1.000  C
  C3       1.0000 0.61840  0.68460  0.38700  Biso   1.000  C
  C4       1.0000 0.68570  0.98570  0.27830  Biso   1.000  C
  C5       1.0000 0.71200  0.91300  0.56300  Biso   1.000  C
  C6       1.0000 0.59930  0.84820  0.54220  Biso   1.000  C
  C7       1.0000 0.66710  0.90630  0.62600  Biso   1.000  C
  C8       1.0000 0.59200  0.76420  0.29780  Biso   1.000  C
  C9       1.0000 0.57430  0.64020  0.33590  Biso   1.000  C
  C10      1.0000 0.63630  0.04930  0.25390  Biso   1.000  C
  C11      1.0000 0.59780  0.01470  0.36040  Biso   1.000  C
  C12      1.0000 0.85170  0.76520  0.36090  Biso   1.000  C
  C13      1.0000 0.60910  0.11490  0.90140  Biso   1.000  C
  C14      1.0000 0.53670  0.16000  0.88280  Biso   1.000  C
  C15      1.0000 0.88160  0.31540  0.88700  Biso   1.000  C
  C16      1.0000 0.81430  0.01430  0.77830  Biso   1.000  C
  C17      1.0000 0.78800  0.08700  0.06300  Biso   1.000  C
  C18      1.0000 0.90070  0.15180  0.04220  Biso   1.000  C
  C19      1.0000 0.83290  0.09370  0.12600  Biso   1.000  C
  C20      1.0000 0.90800  0.23580  0.79780  Biso   1.000  C
  C21      1.0000 0.92570  0.35980  0.83590  Biso   1.000  C
  C22      1.0000 0.86370  0.95070  0.75390  Biso   1.000  C
  C23      1.0000 0.90220  0.98530  0.86040  Biso   1.000  C
  C24      1.0000 0.64830  0.23480  0.86090  Biso   1.000  C
  C25      1.0000 0.10910  0.38510  0.09860  Biso   1.000  C
  C26      1.0000 0.03670  0.34000  0.11720  Biso   1.000  C
  C27      1.0000 0.38160  0.18460  0.11300  Biso   1.000  C
  C28      1.0000 0.31430  0.48570  0.22170  Biso   1.000  C
  C29      1.0000 0.28800  0.41300  0.93700  Biso   1.000  C
  C30      1.0000 0.40070  0.34820  0.95780  Biso   1.000  C
  C31      1.0000 0.33290  0.40630  0.87400  Biso   1.000  C
  C32      1.0000 0.40800  0.26420  0.20220  Biso   1.000  C
  C33      1.0000 0.42570  0.14020  0.16410  Biso   1.000  C
  C34      1.0000 0.36370  0.54930  0.24610  Biso   1.000  C
  C35      1.0000 0.40220  0.51470  0.13960  Biso   1.000  C
  C36      1.0000 0.14830  0.26520  0.13910  Biso   1.000  C
  C37      1.0000 0.39090  0.61490  0.59860  Biso   1.000  C
  C38      1.0000 0.46330  0.66000  0.61720  Biso   1.000  C
  C39      1.0000 0.11840  0.81540  0.61300  Biso   1.000  C
  C40      1.0000 0.18570  0.51430  0.72170  Biso   1.000  C
  C41      1.0000 0.21200  0.58700  0.43700  Biso   1.000  C
  C42      1.0000 0.09930  0.65180  0.45780  Biso   1.000  C
  C43      1.0000 0.16710  0.59370  0.37400  Biso   1.000  C
  C44      1.0000 0.09200  0.73580  0.70220  Biso   1.000  C
  C45      1.0000 0.07430  0.85980  0.66410  Biso   1.000  C
  C46      1.0000 0.13630  0.45070  0.74610  Biso   1.000  C
  C47      1.0000 0.09780  0.48530  0.63960  Biso   1.000  C
  C48      1.0000 0.35170  0.73480  0.63910  Biso   1.000  C
  C49      1.0000 0.10910  0.11490  0.59860  Biso   1.000  C
  C50      1.0000 0.03670  0.16000  0.61720  Biso   1.000  C
  C51      1.0000 0.38160  0.31540  0.61300  Biso   1.000  C
  C52      1.0000 0.31430  0.01430  0.72170  Biso   1.000  C
  C53      1.0000 0.28800  0.08700  0.43700  Biso   1.000  C
  C54      1.0000 0.40070  0.15180  0.45780  Biso   1.000  C
  C55      1.0000 0.33290  0.09370  0.37400  Biso   1.000  C
  C56      1.0000 0.40800  0.23580  0.70220  Biso   1.000  C
  C57      1.0000 0.42570  0.35980  0.66410  Biso   1.000  C
  C58      1.0000 0.36370  0.95070  0.74610  Biso   1.000  C
  C59      1.0000 0.40220  0.98530  0.63960  Biso   1.000  C
  C60      1.0000 0.14830  0.23480  0.63910  Biso   1.000  C
  C61      1.0000 0.39090  0.88510  0.09860  Biso   1.000  C
  C62      1.0000 0.46330  0.84000  0.11720  Biso   1.000  C
  C63      1.0000 0.11840  0.68460  0.11300  Biso   1.000  C
  C64      1.0000 0.18570  0.98570  0.22170  Biso   1.000  C
  C65      1.0000 0.21200  0.91300  0.93700  Biso   1.000  C
  C66      1.0000 0.09930  0.84820  0.95780  Biso   1.000  C
  C67      1.0000 0.16710  0.90630  0.87400  Biso   1.000  C
  C68      1.0000 0.09200  0.76420  0.20220  Biso   1.000  C
  C69      1.0000 0.07430  0.64020  0.16410  Biso   1.000  C
  C70      1.0000 0.13630  0.04930  0.24610  Biso   1.000  C
  C71      1.0000 0.09780  0.01470  0.13960  Biso   1.000  C
  C72      1.0000 0.35170  0.76520  0.13910  Biso   1.000  C
  C73      1.0000 0.89090  0.61490  0.90140  Biso   1.000  C
  C74      1.0000 0.96330  0.66000  0.88280  Biso   1.000  C
  C75      1.0000 0.61840  0.81540  0.88700  Biso   1.000  C
  C76      1.0000 0.68570  0.51430  0.77830  Biso   1.000  C
  C77      1.0000 0.71200  0.58700  0.06300  Biso   1.000  C
  C78      1.0000 0.59930  0.65180  0.04220  Biso   1.000  C
  C79      1.0000 0.66710  0.59370  0.12600  Biso   1.000  C
  C80      1.0000 0.59200  0.73580  0.79780  Biso   1.000  C
  C81      1.0000 0.57430  0.85980  0.83590  Biso   1.000  C
  C82      1.0000 0.63630  0.45070  0.75390  Biso   1.000  C
  C83      1.0000 0.59780  0.48530  0.86040  Biso   1.000  C
  C84      1.0000 0.85170  0.73480  0.86090  Biso   1.000  C
  C85      1.0000 0.60910  0.38510  0.40140  Biso   1.000  C
  C86      1.0000 0.53670  0.34000  0.38280  Biso   1.000  C
  C87      1.0000 0.88160  0.18460  0.38700  Biso   1.000  C
  C88      1.0000 0.81430  0.48570  0.27830  Biso   1.000  C
  C89      1.0000 0.78800  0.41300  0.56300  Biso   1.000  C
  C90      1.0000 0.90070  0.34820  0.54220  Biso   1.000  C
  C91      1.0000 0.83290  0.40630  0.62600  Biso   1.000  C
  C92      1.0000 0.90800  0.26420  0.29780  Biso   1.000  C
  C93      1.0000 0.92570  0.14020  0.33590  Biso   1.000  C
  C94      1.0000 0.86370  0.54930  0.25390  Biso   1.000  C
  C95      1.0000 0.90220  0.51470  0.36040  Biso   1.000  C
  C96      1.0000 0.64830  0.26520  0.36090  Biso   1.000  C
  N1       1.0000 0.81990  0.83730  0.38700  Biso   1.000  N
  N2       1.0000 0.63020  0.76380  0.36180  Biso   1.000  N
  N3       1.0000 0.66150  0.96200  0.34580  Biso   1.000  N
  N4       1.0000 0.66770  0.87620  0.50770  Biso   1.000  N
  N5       1.0000 0.59430  0.86480  0.61240  Biso   1.000  N
  N6       1.0000 0.55740  0.69210  0.27910  Biso   1.000  N
  N7       1.0000 0.58020  0.07010  0.30850  Biso   1.000  N
  N8       1.0000 0.93630  0.76360  0.35490  Biso   1.000  N
  N9       1.0000 0.68010  0.16270  0.88700  Biso   1.000  N
  N10      1.0000 0.86980  0.23620  0.86180  Biso   1.000  N
  N11      1.0000 0.83850  0.03800  0.84580  Biso   1.000  N
  N12      1.0000 0.83230  0.12380  0.00770  Biso   1.000  N
  N13      1.0000 0.90570  0.13520  0.11240  Biso   1.000  N
  N14      1.0000 0.94260  0.30790  0.77910  Biso   1.000  N
  N15      1.0000 0.91980  0.92990  0.80850  Biso   1.000  N
  N16      1.0000 0.56370  0.23640  0.85490  Biso   1.000  N
  N17      1.0000 0.18010  0.33730  0.11300  Biso   1.000  N
  N18      1.0000 0.36980  0.26380  0.13820  Biso   1.000  N
  N19      1.0000 0.33850  0.46200  0.15420  Biso   1.000  N
  N20      1.0000 0.33230  0.37620  0.99230  Biso   1.000  N
  N21      1.0000 0.40570  0.36480  0.88760  Biso   1.000  N
  N22      1.0000 0.44260  0.19210  0.22090  Biso   1.000  N
  N23      1.0000 0.41980  0.57010  0.19150  Biso   1.000  N
  N24      1.0000 0.06370  0.26360  0.14510  Biso   1.000  N
  N25      1.0000 0.31990  0.66270  0.61300  Biso   1.000  N
  N26      1.0000 0.13020  0.73620  0.63820  Biso   1.000  N
  N27      1.0000 0.16150  0.53800  0.65420  Biso   1.000  N
  N28      1.0000 0.16770  0.62380  0.49230  Biso   1.000  N
  N29      1.0000 0.09430  0.63520  0.38760  Biso   1.000  N
  N30      1.0000 0.05740  0.80790  0.72090  Biso   1.000  N
  N31      1.0000 0.08020  0.42990  0.69150  Biso   1.000  N
  N32      1.0000 0.43630  0.73640  0.64510  Biso   1.000  N
  N33      1.0000 0.18010  0.16270  0.61300  Biso   1.000  N
  N34      1.0000 0.36980  0.23620  0.63820  Biso   1.000  N
  N35      1.0000 0.33850  0.03800  0.65420  Biso   1.000  N
  N36      1.0000 0.33230  0.12380  0.49230  Biso   1.000  N
  N37      1.0000 0.40570  0.13520  0.38760  Biso   1.000  N
  N38      1.0000 0.44260  0.30790  0.72090  Biso   1.000  N
  N39      1.0000 0.41980  0.92990  0.69150  Biso   1.000  N
  N40      1.0000 0.06370  0.23640  0.64510  Biso   1.000  N
  N41      1.0000 0.31990  0.83730  0.11300  Biso   1.000  N
  N42      1.0000 0.13020  0.76380  0.13820  Biso   1.000  N
  N43      1.0000 0.16150  0.96200  0.15420  Biso   1.000  N
  N44      1.0000 0.16770  0.87620  0.99230  Biso   1.000  N
  N45      1.0000 0.09430  0.86480  0.88760  Biso   1.000  N
  N46      1.0000 0.05740  0.69210  0.22090  Biso   1.000  N
  N47      1.0000 0.08020  0.07010  0.19150  Biso   1.000  N
  N48      1.0000 0.43630  0.76360  0.14510  Biso   1.000  N
  N49      1.0000 0.81990  0.66270  0.88700  Biso   1.000  N
  N50      1.0000 0.63020  0.73620  0.86180  Biso   1.000  N
  N51      1.0000 0.66150  0.53800  0.84580  Biso   1.000  N
  N52      1.0000 0.66770  0.62380  0.00770  Biso   1.000  N
  N53      1.0000 0.59430  0.63520  0.11240  Biso   1.000  N
  N54      1.0000 0.55740  0.80790  0.77910  Biso   1.000  N
  N55      1.0000 0.58020  0.42990  0.80850  Biso   1.000  N
  N56      1.0000 0.93630  0.73640  0.85490  Biso   1.000  N
  N57      1.0000 0.68010  0.33730  0.38700  Biso   1.000  N
  N58      1.0000 0.86980  0.26380  0.36180  Biso   1.000  N
  N59      1.0000 0.83850  0.46200  0.34580  Biso   1.000  N
  N60      1.0000 0.83230  0.37620  0.50770  Biso   1.000  N
  N61      1.0000 0.90570  0.36480  0.61240  Biso   1.000  N
  N62      1.0000 0.94260  0.19210  0.27910  Biso   1.000  N
  N63      1.0000 0.91980  0.57010  0.30850  Biso   1.000  N
  N64      1.0000 0.56370  0.26360  0.35490  Biso   1.000  N
