data_image0
_cell_length_a       8.4653
_cell_length_b       9.9387
_cell_length_c       25.115
_cell_angle_alpha    90.56
_cell_angle_beta     90
_cell_angle_gamma    90

_symmetry_space_group_name_H-M    P 1
_symmetry_int_tables_number       1

loop_
  _symmetry_equiv_pos_as_xyz
  'x, y, z'

loop_
  _atom_site_label
  _atom_site_occupancy
  _atom_site_fract_x
  _atom_site_fract_y
  _atom_site_fract_z
  _atom_site_thermal_displace_type
  _atom_site_B_iso_or_equiv
  _atom_site_type_symbol
  Co1      1.0000 0.67333  0.25494  0.91237  Biso   1.000  Co
  Co2      1.0000 0.29590  0.31571  0.90214  Biso   1.000  Co
  Co3      1.0000 0.17333  0.24506  0.58763  Biso   1.000  Co
  Co4      1.0000 0.79590  0.18429  0.59786  Biso   1.000  Co
  Co5      1.0000 0.32667  0.74506  0.08763  Biso   1.000  Co
  Co6      1.0000 0.70410  0.68429  0.09786  Biso   1.000  Co
  Co7      1.0000 0.82667  0.75494  0.41237  Biso   1.000  Co
  Co8      1.0000 0.20410  0.81571  0.40214  Biso   1.000  Co
  Co9      1.0000 0.50000  0.50000  0.00000  Biso   1.000  Co
  Co10     1.0000 0.00000  0.00000  0.50000  Biso   1.000  Co
  H1       1.0000 0.01000  0.94880  0.81370  Biso   1.000  H
  H2       1.0000 0.96800  0.54710  0.83110  Biso   1.000  H
  H3       1.0000 0.72590  0.79980  0.92700  Biso   1.000  H
  H4       1.0000 0.19970  0.79690  0.76860  Biso   1.000  H
  H5       1.0000 0.19580  0.64130  0.77910  Biso   1.000  H
  H6       1.0000 0.01930  0.89080  0.70160  Biso   1.000  H
  H7       1.0000 0.84280  0.64650  0.58890  Biso   1.000  H
  H8       1.0000 0.05060  0.49130  0.71840  Biso   1.000  H
  H9       1.0000 0.46490  0.24870  0.98310  Biso   1.000  H
  H10      1.0000 0.75790  0.27170  0.00800  Biso   1.000  H
  H11      1.0000 0.84030  0.37020  0.98320  Biso   1.000  H
  H12      1.0000 0.17830  0.35820  0.98930  Biso   1.000  H
  H13      1.0000 0.06660  0.28840  0.95950  Biso   1.000  H
  H14      1.0000 0.13130  0.24690  0.82160  Biso   1.000  H
  H15      1.0000 0.02610  0.30850  0.85650  Biso   1.000  H
  H16      1.0000 0.51000  0.55120  0.68630  Biso   1.000  H
  H17      1.0000 0.46800  0.95290  0.66890  Biso   1.000  H
  H18      1.0000 0.22590  0.70020  0.57300  Biso   1.000  H
  H19      1.0000 0.69970  0.70310  0.73140  Biso   1.000  H
  H20      1.0000 0.69580  0.85870  0.72090  Biso   1.000  H
  H21      1.0000 0.51930  0.60920  0.79840  Biso   1.000  H
  H22      1.0000 0.34280  0.85350  0.91110  Biso   1.000  H
  H23      1.0000 0.55060  0.00870  0.78160  Biso   1.000  H
  H24      1.0000 0.96490  0.25130  0.51690  Biso   1.000  H
  H25      1.0000 0.25790  0.22830  0.49200  Biso   1.000  H
  H26      1.0000 0.34030  0.12980  0.51680  Biso   1.000  H
  H27      1.0000 0.67830  0.14180  0.51070  Biso   1.000  H
  H28      1.0000 0.56660  0.21160  0.54050  Biso   1.000  H
  H29      1.0000 0.63130  0.25310  0.67840  Biso   1.000  H
  H30      1.0000 0.52610  0.19150  0.64350  Biso   1.000  H
  H31      1.0000 0.99000  0.05120  0.18630  Biso   1.000  H
  H32      1.0000 0.03200  0.45290  0.16890  Biso   1.000  H
  H33      1.0000 0.27410  0.20020  0.07300  Biso   1.000  H
  H34      1.0000 0.80030  0.20310  0.23140  Biso   1.000  H
  H35      1.0000 0.80420  0.35870  0.22090  Biso   1.000  H
  H36      1.0000 0.98070  0.10920  0.29840  Biso   1.000  H
  H37      1.0000 0.15720  0.35350  0.41110  Biso   1.000  H
  H38      1.0000 0.94940  0.50870  0.28160  Biso   1.000  H
  H39      1.0000 0.53510  0.75130  0.01690  Biso   1.000  H
  H40      1.0000 0.24210  0.72830  0.99200  Biso   1.000  H
  H41      1.0000 0.15970  0.62980  0.01680  Biso   1.000  H
  H42      1.0000 0.82170  0.64180  0.01070  Biso   1.000  H
  H43      1.0000 0.93340  0.71160  0.04050  Biso   1.000  H
  H44      1.0000 0.86870  0.75310  0.17840  Biso   1.000  H
  H45      1.0000 0.97390  0.69150  0.14350  Biso   1.000  H
  H46      1.0000 0.49000  0.44880  0.31370  Biso   1.000  H
  H47      1.0000 0.53200  0.04710  0.33110  Biso   1.000  H
  H48      1.0000 0.77410  0.29980  0.42700  Biso   1.000  H
  H49      1.0000 0.30030  0.29690  0.26860  Biso   1.000  H
  H50      1.0000 0.30420  0.14130  0.27910  Biso   1.000  H
  H51      1.0000 0.48070  0.39080  0.20160  Biso   1.000  H
  H52      1.0000 0.65720  0.14650  0.08890  Biso   1.000  H
  H53      1.0000 0.44940  0.99130  0.21840  Biso   1.000  H
  H54      1.0000 0.03510  0.74870  0.48310  Biso   1.000  H
  H55      1.0000 0.74210  0.77170  0.50800  Biso   1.000  H
  H56      1.0000 0.65970  0.87020  0.48320  Biso   1.000  H
  H57      1.0000 0.32170  0.85820  0.48930  Biso   1.000  H
  H58      1.0000 0.43340  0.78840  0.45950  Biso   1.000  H
  H59      1.0000 0.36870  0.74690  0.32160  Biso   1.000  H
  H60      1.0000 0.47390  0.80850  0.35650  Biso   1.000  H
  C1       1.0000 0.86150  0.89370  0.87250  Biso   1.000  C
  C2       1.0000 0.96740  0.87520  0.83120  Biso   1.000  C
  C3       1.0000 0.01050  0.74160  0.81594  Biso   1.000  C
  C4       1.0000 0.94330  0.63450  0.84179  Biso   1.000  C
  C5       1.0000 0.83700  0.65650  0.88451  Biso   1.000  C
  C6       1.0000 0.79660  0.78520  0.89921  Biso   1.000  C
  C7       1.0000 0.80510  0.03510  0.88590  Biso   1.000  C
  C8       1.0000 0.75610  0.53900  0.91050  Biso   1.000  C
  C9       1.0000 0.13100  0.71910  0.77120  Biso   1.000  C
  C10      1.0000 0.04610  0.69700  0.71947  Biso   1.000  C
  C11      1.0000 0.00070  0.80390  0.68900  Biso   1.000  C
  C12      1.0000 0.92660  0.78600  0.63930  Biso   1.000  C
  C13      1.0000 0.89410  0.65900  0.62131  Biso   1.000  C
  C14      1.0000 0.93770  0.54810  0.65147  Biso   1.000  C
  C15      1.0000 0.01680  0.56580  0.69940  Biso   1.000  C
  C16      1.0000 0.88330  0.90730  0.60740  Biso   1.000  C
  C17      1.0000 0.89980  0.40910  0.63202  Biso   1.000  C
  C18      1.0000 0.36150  0.60630  0.62750  Biso   1.000  C
  C19      1.0000 0.46740  0.62480  0.66880  Biso   1.000  C
  C20      1.0000 0.51050  0.75840  0.68406  Biso   1.000  C
  C21      1.0000 0.44330  0.86550  0.65821  Biso   1.000  C
  C22      1.0000 0.33700  0.84350  0.61549  Biso   1.000  C
  C23      1.0000 0.29660  0.71480  0.60079  Biso   1.000  C
  C24      1.0000 0.30510  0.46490  0.61410  Biso   1.000  C
  C25      1.0000 0.25610  0.96100  0.58950  Biso   1.000  C
  C26      1.0000 0.63100  0.78090  0.72880  Biso   1.000  C
  C27      1.0000 0.54610  0.80300  0.78053  Biso   1.000  C
  C28      1.0000 0.50070  0.69610  0.81100  Biso   1.000  C
  C29      1.0000 0.42660  0.71400  0.86070  Biso   1.000  C
  C30      1.0000 0.39410  0.84100  0.87869  Biso   1.000  C
  C31      1.0000 0.43770  0.95190  0.84853  Biso   1.000  C
  C32      1.0000 0.51680  0.93420  0.80060  Biso   1.000  C
  C33      1.0000 0.38330  0.59270  0.89260  Biso   1.000  C
  C34      1.0000 0.39980  0.09090  0.86798  Biso   1.000  C
  C35      1.0000 0.13850  0.10630  0.12750  Biso   1.000  C
  C36      1.0000 0.03260  0.12480  0.16880  Biso   1.000  C
  C37      1.0000 0.98950  0.25840  0.18406  Biso   1.000  C
  C38      1.0000 0.05670  0.36550  0.15821  Biso   1.000  C
  C39      1.0000 0.16300  0.34350  0.11549  Biso   1.000  C
  C40      1.0000 0.20340  0.21480  0.10079  Biso   1.000  C
  C41      1.0000 0.19490  0.96490  0.11410  Biso   1.000  C
  C42      1.0000 0.24390  0.46100  0.08950  Biso   1.000  C
  C43      1.0000 0.86900  0.28090  0.22880  Biso   1.000  C
  C44      1.0000 0.95390  0.30300  0.28053  Biso   1.000  C
  C45      1.0000 0.99930  0.19610  0.31100  Biso   1.000  C
  C46      1.0000 0.07340  0.21400  0.36070  Biso   1.000  C
  C47      1.0000 0.10590  0.34100  0.37869  Biso   1.000  C
  C48      1.0000 0.06230  0.45190  0.34853  Biso   1.000  C
  C49      1.0000 0.98320  0.43420  0.30060  Biso   1.000  C
  C50      1.0000 0.11670  0.09270  0.39260  Biso   1.000  C
  C51      1.0000 0.10020  0.59090  0.36798  Biso   1.000  C
  C52      1.0000 0.63850  0.39370  0.37250  Biso   1.000  C
  C53      1.0000 0.53260  0.37520  0.33120  Biso   1.000  C
  C54      1.0000 0.48950  0.24160  0.31594  Biso   1.000  C
  C55      1.0000 0.55670  0.13450  0.34179  Biso   1.000  C
  C56      1.0000 0.66300  0.15650  0.38451  Biso   1.000  C
  C57      1.0000 0.70340  0.28520  0.39921  Biso   1.000  C
  C58      1.0000 0.69490  0.53510  0.38590  Biso   1.000  C
  C59      1.0000 0.74390  0.03900  0.41050  Biso   1.000  C
  C60      1.0000 0.36900  0.21910  0.27120  Biso   1.000  C
  C61      1.0000 0.45390  0.19700  0.21947  Biso   1.000  C
  C62      1.0000 0.49930  0.30390  0.18900  Biso   1.000  C
  C63      1.0000 0.57340  0.28600  0.13930  Biso   1.000  C
  C64      1.0000 0.60590  0.15900  0.12131  Biso   1.000  C
  C65      1.0000 0.56230  0.04810  0.15147  Biso   1.000  C
  C66      1.0000 0.48320  0.06580  0.19940  Biso   1.000  C
  C67      1.0000 0.61670  0.40730  0.10740  Biso   1.000  C
  C68      1.0000 0.60020  0.90910  0.13202  Biso   1.000  C
  O1       1.0000 0.48620  0.31940  0.95716  Biso   1.000  O
  O2       1.0000 0.84910  0.13750  0.86076  Biso   1.000  O
  O3       1.0000 0.70430  0.05080  0.92394  Biso   1.000  O
  O4       1.0000 0.70750  0.55710  0.95684  Biso   1.000  O
  O5       1.0000 0.74300  0.43330  0.88297  Biso   1.000  O
  O6       1.0000 0.86460  0.01600  0.63211  Biso   1.000  O
  O7       1.0000 0.86740  0.89420  0.55718  Biso   1.000  O
  O8       1.0000 0.78430  0.39250  0.60200  Biso   1.000  O
  O9       1.0000 0.98170  0.30940  0.64536  Biso   1.000  O
  O10      1.0000 0.81640  0.28730  0.98121  Biso   1.000  O
  O11      1.0000 0.13300  0.35250  0.95917  Biso   1.000  O
  O12      1.0000 0.11670  0.31430  0.84215  Biso   1.000  O
  O13      1.0000 0.98620  0.18060  0.54284  Biso   1.000  O
  O14      1.0000 0.34910  0.36250  0.63924  Biso   1.000  O
  O15      1.0000 0.20430  0.44920  0.57606  Biso   1.000  O
  O16      1.0000 0.20750  0.94290  0.54316  Biso   1.000  O
  O17      1.0000 0.24300  0.06670  0.61703  Biso   1.000  O
  O18      1.0000 0.36460  0.48400  0.86789  Biso   1.000  O
  O19      1.0000 0.36740  0.60580  0.94282  Biso   1.000  O
  O20      1.0000 0.28430  0.10750  0.89800  Biso   1.000  O
  O21      1.0000 0.48170  0.19060  0.85464  Biso   1.000  O
  O22      1.0000 0.31640  0.21270  0.51879  Biso   1.000  O
  O23      1.0000 0.63300  0.14750  0.54083  Biso   1.000  O
  O24      1.0000 0.61670  0.18570  0.65785  Biso   1.000  O
  O25      1.0000 0.51380  0.68060  0.04284  Biso   1.000  O
  O26      1.0000 0.15090  0.86250  0.13924  Biso   1.000  O
  O27      1.0000 0.29570  0.94920  0.07606  Biso   1.000  O
  O28      1.0000 0.29250  0.44290  0.04316  Biso   1.000  O
  O29      1.0000 0.25700  0.56670  0.11703  Biso   1.000  O
  O30      1.0000 0.13540  0.98400  0.36789  Biso   1.000  O
  O31      1.0000 0.13260  0.10580  0.44282  Biso   1.000  O
  O32      1.0000 0.21570  0.60750  0.39800  Biso   1.000  O
  O33      1.0000 0.01830  0.69060  0.35464  Biso   1.000  O
  O34      1.0000 0.18360  0.71270  0.01879  Biso   1.000  O
  O35      1.0000 0.86700  0.64750  0.04083  Biso   1.000  O
  O36      1.0000 0.88330  0.68570  0.15785  Biso   1.000  O
  O37      1.0000 0.01380  0.81940  0.45716  Biso   1.000  O
  O38      1.0000 0.65090  0.63750  0.36076  Biso   1.000  O
  O39      1.0000 0.79570  0.55080  0.42394  Biso   1.000  O
  O40      1.0000 0.79250  0.05710  0.45684  Biso   1.000  O
  O41      1.0000 0.75700  0.93330  0.38297  Biso   1.000  O
  O42      1.0000 0.63540  0.51600  0.13211  Biso   1.000  O
  O43      1.0000 0.63260  0.39420  0.05718  Biso   1.000  O
  O44      1.0000 0.71570  0.89250  0.10200  Biso   1.000  O
  O45      1.0000 0.51830  0.80940  0.14536  Biso   1.000  O
  O46      1.0000 0.68360  0.78730  0.48121  Biso   1.000  O
  O47      1.0000 0.36700  0.85250  0.45917  Biso   1.000  O
  O48      1.0000 0.38330  0.81430  0.34215  Biso   1.000  O
