data_image0
_cell_length_a       26.0414
_cell_length_b       26.0414
_cell_length_c       26.0414
_cell_angle_alpha    109.471
_cell_angle_beta     109.471
_cell_angle_gamma    109.471

_symmetry_space_group_name_H-M    P 1
_symmetry_int_tables_number       1

loop_
  _symmetry_equiv_pos_as_xyz
  'x, y, z'

loop_
  _atom_site_label
  _atom_site_occupancy
  _atom_site_fract_x
  _atom_site_fract_y
  _atom_site_fract_z
  _atom_site_thermal_displace_type
  _atom_site_B_iso_or_equiv
  _atom_site_type_symbol
  Cd1      1.0000 0.64518  0.29036  0.14518  Biso   1.000  Cd
  Cd2      1.0000 0.14518  0.50000  0.85482  Biso   1.000  Cd
  Cd3      1.0000 0.85482  0.70964  0.35482  Biso   1.000  Cd
  Cd4      1.0000 0.35482  0.50000  0.64518  Biso   1.000  Cd
  Cd5      1.0000 0.35482  0.85482  0.70964  Biso   1.000  Cd
  Cd6      1.0000 0.64518  0.35482  0.50000  Biso   1.000  Cd
  Cd7      1.0000 0.14518  0.64518  0.29036  Biso   1.000  Cd
  Cd8      1.0000 0.85482  0.14518  0.50000  Biso   1.000  Cd
  Cd9      1.0000 0.50000  0.85482  0.14518  Biso   1.000  Cd
  Cd10     1.0000 0.29036  0.14518  0.64518  Biso   1.000  Cd
  Cd11     1.0000 0.50000  0.64518  0.35482  Biso   1.000  Cd
  Cd12     1.0000 0.70964  0.35482  0.85482  Biso   1.000  Cd
  Cd13     1.0000 0.35482  0.70964  0.85482  Biso   1.000  Cd
  Cd14     1.0000 0.85482  0.50000  0.14518  Biso   1.000  Cd
  Cd15     1.0000 0.14518  0.29036  0.64518  Biso   1.000  Cd
  Cd16     1.0000 0.64518  0.50000  0.35482  Biso   1.000  Cd
  Cd17     1.0000 0.64518  0.14518  0.29036  Biso   1.000  Cd
  Cd18     1.0000 0.35482  0.64518  0.50000  Biso   1.000  Cd
  Cd19     1.0000 0.85482  0.35482  0.70964  Biso   1.000  Cd
  Cd20     1.0000 0.14518  0.85482  0.50000  Biso   1.000  Cd
  Cd21     1.0000 0.50000  0.14518  0.85482  Biso   1.000  Cd
  Cd22     1.0000 0.70964  0.85482  0.35482  Biso   1.000  Cd
  Cd23     1.0000 0.50000  0.35482  0.64518  Biso   1.000  Cd
  Cd24     1.0000 0.29036  0.64518  0.14518  Biso   1.000  Cd
  H1       1.0000 0.58540  0.36900  0.08660  Biso   1.000  H
  H2       1.0000 0.49920  0.21950  0.12570  Biso   1.000  H
  H3       1.0000 0.28240  0.49880  0.91340  Biso   1.000  H
  H4       1.0000 0.09380  0.37350  0.87430  Biso   1.000  H
  H5       1.0000 0.71760  0.63100  0.21640  Biso   1.000  H
  H6       1.0000 0.90620  0.78050  0.27970  Biso   1.000  H
  H7       1.0000 0.41460  0.50120  0.78360  Biso   1.000  H
  H8       1.0000 0.50080  0.62650  0.72030  Biso   1.000  H
  H9       1.0000 0.21640  0.71760  0.63100  Biso   1.000  H
  H10      1.0000 0.27970  0.90620  0.78050  Biso   1.000  H
  H11      1.0000 0.78360  0.41460  0.50120  Biso   1.000  H
  H12      1.0000 0.72030  0.50080  0.62650  Biso   1.000  H
  H13      1.0000 0.08660  0.58540  0.36900  Biso   1.000  H
  H14      1.0000 0.12570  0.49920  0.21950  Biso   1.000  H
  H15      1.0000 0.91340  0.28240  0.49880  Biso   1.000  H
  H16      1.0000 0.87430  0.09380  0.37350  Biso   1.000  H
  H17      1.0000 0.49880  0.91340  0.28240  Biso   1.000  H
  H18      1.0000 0.37350  0.87430  0.09380  Biso   1.000  H
  H19      1.0000 0.36900  0.08660  0.58540  Biso   1.000  H
  H20      1.0000 0.21950  0.12570  0.49920  Biso   1.000  H
  H21      1.0000 0.50120  0.78360  0.41460  Biso   1.000  H
  H22      1.0000 0.62650  0.72030  0.50080  Biso   1.000  H
  H23      1.0000 0.63100  0.21640  0.71760  Biso   1.000  H
  H24      1.0000 0.78050  0.27970  0.90620  Biso   1.000  H
  H25      1.0000 0.63100  0.41460  0.91340  Biso   1.000  H
  H26      1.0000 0.78050  0.50080  0.87430  Biso   1.000  H
  H27      1.0000 0.50120  0.71760  0.08660  Biso   1.000  H
  H28      1.0000 0.62650  0.90620  0.12570  Biso   1.000  H
  H29      1.0000 0.36900  0.28240  0.78360  Biso   1.000  H
  H30      1.0000 0.21950  0.09380  0.72030  Biso   1.000  H
  H31      1.0000 0.49880  0.58540  0.21640  Biso   1.000  H
  H32      1.0000 0.37350  0.49920  0.27970  Biso   1.000  H
  H33      1.0000 0.28240  0.78360  0.36900  Biso   1.000  H
  H34      1.0000 0.09380  0.72030  0.21950  Biso   1.000  H
  H35      1.0000 0.58540  0.21640  0.49880  Biso   1.000  H
  H36      1.0000 0.49920  0.27970  0.37350  Biso   1.000  H
  H37      1.0000 0.41460  0.91340  0.63100  Biso   1.000  H
  H38      1.0000 0.50080  0.87430  0.78050  Biso   1.000  H
  H39      1.0000 0.71760  0.08660  0.50120  Biso   1.000  H
  H40      1.0000 0.90620  0.12570  0.62650  Biso   1.000  H
  H41      1.0000 0.08660  0.50120  0.71760  Biso   1.000  H
  H42      1.0000 0.12570  0.62650  0.90620  Biso   1.000  H
  H43      1.0000 0.91340  0.63100  0.41460  Biso   1.000  H
  H44      1.0000 0.87430  0.78050  0.50080  Biso   1.000  H
  H45      1.0000 0.21640  0.49880  0.58540  Biso   1.000  H
  H46      1.0000 0.27970  0.37350  0.49920  Biso   1.000  H
  H47      1.0000 0.78360  0.36900  0.28240  Biso   1.000  H
  H48      1.0000 0.72030  0.21950  0.09380  Biso   1.000  H
  H49      1.0000 0.41460  0.63100  0.91340  Biso   1.000  H
  H50      1.0000 0.50080  0.78050  0.87430  Biso   1.000  H
  H51      1.0000 0.71760  0.50120  0.08660  Biso   1.000  H
  H52      1.0000 0.90620  0.62650  0.12570  Biso   1.000  H
  H53      1.0000 0.28240  0.36900  0.78360  Biso   1.000  H
  H54      1.0000 0.09380  0.21950  0.72030  Biso   1.000  H
  H55      1.0000 0.58540  0.49880  0.21640  Biso   1.000  H
  H56      1.0000 0.49920  0.37350  0.27970  Biso   1.000  H
  H57      1.0000 0.78360  0.28240  0.36900  Biso   1.000  H
  H58      1.0000 0.72030  0.09380  0.21950  Biso   1.000  H
  H59      1.0000 0.21640  0.58540  0.49880  Biso   1.000  H
  H60      1.0000 0.27970  0.49920  0.37350  Biso   1.000  H
  H61      1.0000 0.91340  0.41460  0.63100  Biso   1.000  H
  H62      1.0000 0.87430  0.50080  0.78050  Biso   1.000  H
  H63      1.0000 0.08660  0.71760  0.50120  Biso   1.000  H
  H64      1.0000 0.12570  0.90620  0.62650  Biso   1.000  H
  H65      1.0000 0.50120  0.08660  0.71760  Biso   1.000  H
  H66      1.0000 0.62650  0.12570  0.90620  Biso   1.000  H
  H67      1.0000 0.63100  0.91340  0.41460  Biso   1.000  H
  H68      1.0000 0.78050  0.87430  0.50080  Biso   1.000  H
  H69      1.0000 0.49880  0.21640  0.58540  Biso   1.000  H
  H70      1.0000 0.37350  0.27970  0.49920  Biso   1.000  H
  H71      1.0000 0.36900  0.78360  0.28240  Biso   1.000  H
  H72      1.0000 0.21950  0.72030  0.09380  Biso   1.000  H
  H73      1.0000 0.36900  0.58540  0.08660  Biso   1.000  H
  H74      1.0000 0.21950  0.49920  0.12570  Biso   1.000  H
  H75      1.0000 0.49880  0.28240  0.91340  Biso   1.000  H
  H76      1.0000 0.37350  0.09380  0.87430  Biso   1.000  H
  H77      1.0000 0.63100  0.71760  0.21640  Biso   1.000  H
  H78      1.0000 0.78050  0.90620  0.27970  Biso   1.000  H
  H79      1.0000 0.50120  0.41460  0.78360  Biso   1.000  H
  H80      1.0000 0.62650  0.50080  0.72030  Biso   1.000  H
  H81      1.0000 0.71760  0.21640  0.63100  Biso   1.000  H
  H82      1.0000 0.90620  0.27970  0.78050  Biso   1.000  H
  H83      1.0000 0.41460  0.78360  0.50120  Biso   1.000  H
  H84      1.0000 0.50080  0.72030  0.62650  Biso   1.000  H
  H85      1.0000 0.58540  0.08660  0.36900  Biso   1.000  H
  H86      1.0000 0.49920  0.12570  0.21950  Biso   1.000  H
  H87      1.0000 0.28240  0.91340  0.49880  Biso   1.000  H
  H88      1.0000 0.09380  0.87430  0.37350  Biso   1.000  H
  H89      1.0000 0.91340  0.49880  0.28240  Biso   1.000  H
  H90      1.0000 0.87430  0.37350  0.09380  Biso   1.000  H
  H91      1.0000 0.08660  0.36900  0.58540  Biso   1.000  H
  H92      1.0000 0.12570  0.21950  0.49920  Biso   1.000  H
  H93      1.0000 0.78360  0.50120  0.41460  Biso   1.000  H
  H94      1.0000 0.72030  0.62650  0.50080  Biso   1.000  H
  H95      1.0000 0.21640  0.63100  0.71760  Biso   1.000  H
  H96      1.0000 0.27970  0.78050  0.90620  Biso   1.000  H
  H97      1.0000 0.61440  0.44960  0.06400  Biso   1.000  H
  H98      1.0000 0.38560  0.55040  0.93600  Biso   1.000  H
  H99      1.0000 0.61440  0.55040  0.16480  Biso   1.000  H
  H100     1.0000 0.38560  0.44960  0.83520  Biso   1.000  H
  H101     1.0000 0.16480  0.61440  0.55040  Biso   1.000  H
  H102     1.0000 0.83520  0.38560  0.44960  Biso   1.000  H
  H103     1.0000 0.06400  0.61440  0.44960  Biso   1.000  H
  H104     1.0000 0.93600  0.38560  0.55040  Biso   1.000  H
  H105     1.0000 0.55040  0.93600  0.38560  Biso   1.000  H
  H106     1.0000 0.44960  0.06400  0.61440  Biso   1.000  H
  H107     1.0000 0.44960  0.83520  0.38560  Biso   1.000  H
  H108     1.0000 0.55040  0.16480  0.61440  Biso   1.000  H
  H109     1.0000 0.55040  0.38560  0.93600  Biso   1.000  H
  H110     1.0000 0.44960  0.61440  0.06400  Biso   1.000  H
  H111     1.0000 0.44960  0.38560  0.83520  Biso   1.000  H
  H112     1.0000 0.55040  0.61440  0.16480  Biso   1.000  H
  H113     1.0000 0.38560  0.83520  0.44960  Biso   1.000  H
  H114     1.0000 0.61440  0.16480  0.55040  Biso   1.000  H
  H115     1.0000 0.38560  0.93600  0.55040  Biso   1.000  H
  H116     1.0000 0.61440  0.06400  0.44960  Biso   1.000  H
  H117     1.0000 0.06400  0.44960  0.61440  Biso   1.000  H
  H118     1.0000 0.93600  0.55040  0.38560  Biso   1.000  H
  H119     1.0000 0.16480  0.55040  0.61440  Biso   1.000  H
  H120     1.0000 0.83520  0.44960  0.38560  Biso   1.000  H
  H121     1.0000 0.44720  0.15620  0.15620  Biso   1.000  H
  H122     1.0000 1.00000  0.29100  0.84380  Biso   1.000  H
  H123     1.0000 0.00000  0.84380  0.29100  Biso   1.000  H
  H124     1.0000 0.55280  0.70900  0.70900  Biso   1.000  H
  H125     1.0000 0.29100  0.00000  0.84380  Biso   1.000  H
  H126     1.0000 0.70900  0.55280  0.70900  Biso   1.000  H
  H127     1.0000 0.15620  0.44720  0.15620  Biso   1.000  H
  H128     1.0000 0.84380  0.00000  0.29100  Biso   1.000  H
  H129     1.0000 0.29100  0.84380  0.00000  Biso   1.000  H
  H130     1.0000 0.15620  0.15620  0.44720  Biso   1.000  H
  H131     1.0000 0.70900  0.70900  0.55280  Biso   1.000  H
  H132     1.0000 0.84380  0.29100  0.00000  Biso   1.000  H
  H133     1.0000 0.84380  0.55280  0.84380  Biso   1.000  H
  H134     1.0000 0.70900  0.00000  0.15620  Biso   1.000  H
  H135     1.0000 0.15620  0.00000  0.70900  Biso   1.000  H
  H136     1.0000 0.29100  0.44720  0.29100  Biso   1.000  H
  H137     1.0000 0.00000  0.70900  0.15620  Biso   1.000  H
  H138     1.0000 0.44720  0.29100  0.29100  Biso   1.000  H
  H139     1.0000 0.55280  0.84380  0.84380  Biso   1.000  H
  H140     1.0000 0.00000  0.15620  0.70900  Biso   1.000  H
  H141     1.0000 0.15620  0.70900  0.00000  Biso   1.000  H
  H142     1.0000 0.84380  0.84380  0.55280  Biso   1.000  H
  H143     1.0000 0.29100  0.29100  0.44720  Biso   1.000  H
  H144     1.0000 0.70900  0.15620  0.00000  Biso   1.000  H
  C1       1.0000 0.62680  0.38960  0.09380  Biso   1.000  C
  C2       1.0000 0.51970  0.20400  0.14890  Biso   1.000  C
  C3       1.0000 0.29580  0.53300  0.90620  Biso   1.000  C
  C4       1.0000 0.05510  0.37080  0.85110  Biso   1.000  C
  C5       1.0000 0.70420  0.61040  0.23720  Biso   1.000  C
  C6       1.0000 0.94490  0.79600  0.31570  Biso   1.000  C
  C7       1.0000 0.37320  0.46700  0.76280  Biso   1.000  C
  C8       1.0000 0.48030  0.62920  0.68430  Biso   1.000  C
  C9       1.0000 0.23720  0.70420  0.61040  Biso   1.000  C
  C10      1.0000 0.31570  0.94490  0.79600  Biso   1.000  C
  C11      1.0000 0.76280  0.37320  0.46700  Biso   1.000  C
  C12      1.0000 0.68430  0.48030  0.62920  Biso   1.000  C
  C13      1.0000 0.09380  0.62680  0.38960  Biso   1.000  C
  C14      1.0000 0.14890  0.51970  0.20400  Biso   1.000  C
  C15      1.0000 0.90620  0.29580  0.53300  Biso   1.000  C
  C16      1.0000 0.85110  0.05510  0.37080  Biso   1.000  C
  C17      1.0000 0.53300  0.90620  0.29580  Biso   1.000  C
  C18      1.0000 0.37080  0.85110  0.05510  Biso   1.000  C
  C19      1.0000 0.38960  0.09380  0.62680  Biso   1.000  C
  C20      1.0000 0.20400  0.14890  0.51970  Biso   1.000  C
  C21      1.0000 0.46700  0.76280  0.37320  Biso   1.000  C
  C22      1.0000 0.62920  0.68430  0.48030  Biso   1.000  C
  C23      1.0000 0.61040  0.23720  0.70420  Biso   1.000  C
  C24      1.0000 0.79600  0.31570  0.94490  Biso   1.000  C
  C25      1.0000 0.61040  0.37320  0.90620  Biso   1.000  C
  C26      1.0000 0.79600  0.48030  0.85110  Biso   1.000  C
  C27      1.0000 0.46700  0.70420  0.09380  Biso   1.000  C
  C28      1.0000 0.62920  0.94490  0.14890  Biso   1.000  C
  C29      1.0000 0.38960  0.29580  0.76280  Biso   1.000  C
  C30      1.0000 0.20400  0.05510  0.68430  Biso   1.000  C
  C31      1.0000 0.53300  0.62680  0.23720  Biso   1.000  C
  C32      1.0000 0.37080  0.51970  0.31570  Biso   1.000  C
  C33      1.0000 0.29580  0.76280  0.38960  Biso   1.000  C
  C34      1.0000 0.05510  0.68430  0.20400  Biso   1.000  C
  C35      1.0000 0.62680  0.23720  0.53300  Biso   1.000  C
  C36      1.0000 0.51970  0.31570  0.37080  Biso   1.000  C
  C37      1.0000 0.37320  0.90620  0.61040  Biso   1.000  C
  C38      1.0000 0.48030  0.85110  0.79600  Biso   1.000  C
  C39      1.0000 0.70420  0.09380  0.46700  Biso   1.000  C
  C40      1.0000 0.94490  0.14890  0.62920  Biso   1.000  C
  C41      1.0000 0.09380  0.46700  0.70420  Biso   1.000  C
  C42      1.0000 0.14890  0.62920  0.94490  Biso   1.000  C
  C43      1.0000 0.90620  0.61040  0.37320  Biso   1.000  C
  C44      1.0000 0.85110  0.79600  0.48030  Biso   1.000  C
  C45      1.0000 0.23720  0.53300  0.62680  Biso   1.000  C
  C46      1.0000 0.31570  0.37080  0.51970  Biso   1.000  C
  C47      1.0000 0.76280  0.38960  0.29580  Biso   1.000  C
  C48      1.0000 0.68430  0.20400  0.05510  Biso   1.000  C
  C49      1.0000 0.37320  0.61040  0.90620  Biso   1.000  C
  C50      1.0000 0.48030  0.79600  0.85110  Biso   1.000  C
  C51      1.0000 0.70420  0.46700  0.09380  Biso   1.000  C
  C52      1.0000 0.94490  0.62920  0.14890  Biso   1.000  C
  C53      1.0000 0.29580  0.38960  0.76280  Biso   1.000  C
  C54      1.0000 0.05510  0.20400  0.68430  Biso   1.000  C
  C55      1.0000 0.62680  0.53300  0.23720  Biso   1.000  C
  C56      1.0000 0.51970  0.37080  0.31570  Biso   1.000  C
  C57      1.0000 0.76280  0.29580  0.38960  Biso   1.000  C
  C58      1.0000 0.68430  0.05510  0.20400  Biso   1.000  C
  C59      1.0000 0.23720  0.62680  0.53300  Biso   1.000  C
  C60      1.0000 0.31570  0.51970  0.37080  Biso   1.000  C
  C61      1.0000 0.90620  0.37320  0.61040  Biso   1.000  C
  C62      1.0000 0.85110  0.48030  0.79600  Biso   1.000  C
  C63      1.0000 0.09380  0.70420  0.46700  Biso   1.000  C
  C64      1.0000 0.14890  0.94490  0.62920  Biso   1.000  C
  C65      1.0000 0.46700  0.09380  0.70420  Biso   1.000  C
  C66      1.0000 0.62920  0.14890  0.94490  Biso   1.000  C
  C67      1.0000 0.61040  0.90620  0.37320  Biso   1.000  C
  C68      1.0000 0.79600  0.85110  0.48030  Biso   1.000  C
  C69      1.0000 0.53300  0.23720  0.62680  Biso   1.000  C
  C70      1.0000 0.37080  0.31570  0.51970  Biso   1.000  C
  C71      1.0000 0.38960  0.76280  0.29580  Biso   1.000  C
  C72      1.0000 0.20400  0.68430  0.05510  Biso   1.000  C
  C73      1.0000 0.38960  0.62680  0.09380  Biso   1.000  C
  C74      1.0000 0.20400  0.51970  0.14890  Biso   1.000  C
  C75      1.0000 0.53300  0.29580  0.90620  Biso   1.000  C
  C76      1.0000 0.37080  0.05510  0.85110  Biso   1.000  C
  C77      1.0000 0.61040  0.70420  0.23720  Biso   1.000  C
  C78      1.0000 0.79600  0.94490  0.31570  Biso   1.000  C
  C79      1.0000 0.46700  0.37320  0.76280  Biso   1.000  C
  C80      1.0000 0.62920  0.48030  0.68430  Biso   1.000  C
  C81      1.0000 0.70420  0.23720  0.61040  Biso   1.000  C
  C82      1.0000 0.94490  0.31570  0.79600  Biso   1.000  C
  C83      1.0000 0.37320  0.76280  0.46700  Biso   1.000  C
  C84      1.0000 0.48030  0.68430  0.62920  Biso   1.000  C
  C85      1.0000 0.62680  0.09380  0.38960  Biso   1.000  C
  C86      1.0000 0.51970  0.14890  0.20400  Biso   1.000  C
  C87      1.0000 0.29580  0.90620  0.53300  Biso   1.000  C
  C88      1.0000 0.05510  0.85110  0.37080  Biso   1.000  C
  C89      1.0000 0.90620  0.53300  0.29580  Biso   1.000  C
  C90      1.0000 0.85110  0.37080  0.05510  Biso   1.000  C
  C91      1.0000 0.09380  0.38960  0.62680  Biso   1.000  C
  C92      1.0000 0.14890  0.20400  0.51970  Biso   1.000  C
  C93      1.0000 0.76280  0.46700  0.37320  Biso   1.000  C
  C94      1.0000 0.68430  0.62920  0.48030  Biso   1.000  C
  C95      1.0000 0.23720  0.61040  0.70420  Biso   1.000  C
  C96      1.0000 0.31570  0.79600  0.94490  Biso   1.000  C
  C97      1.0000 0.61210  0.38310  0.22900  Biso   1.000  C
  C98      1.0000 0.67720  0.40210  0.27510  Biso   1.000  C
  C99      1.0000 0.15410  0.38310  0.77100  Biso   1.000  C
  C100     1.0000 0.12700  0.40210  0.72490  Biso   1.000  C
  C101     1.0000 0.84590  0.61690  0.22900  Biso   1.000  C
  C102     1.0000 0.87300  0.59790  0.27510  Biso   1.000  C
  C103     1.0000 0.38790  0.61690  0.77100  Biso   1.000  C
  C104     1.0000 0.32280  0.59790  0.72490  Biso   1.000  C
  C105     1.0000 0.22900  0.84590  0.61690  Biso   1.000  C
  C106     1.0000 0.27510  0.87300  0.59790  Biso   1.000  C
  C107     1.0000 0.77100  0.38790  0.61690  Biso   1.000  C
  C108     1.0000 0.72490  0.32280  0.59790  Biso   1.000  C
  C109     1.0000 0.22900  0.61210  0.38310  Biso   1.000  C
  C110     1.0000 0.27510  0.67720  0.40210  Biso   1.000  C
  C111     1.0000 0.77100  0.15410  0.38310  Biso   1.000  C
  C112     1.0000 0.72490  0.12700  0.40210  Biso   1.000  C
  C113     1.0000 0.38310  0.77100  0.15410  Biso   1.000  C
  C114     1.0000 0.40210  0.72490  0.12700  Biso   1.000  C
  C115     1.0000 0.38310  0.22900  0.61210  Biso   1.000  C
  C116     1.0000 0.40210  0.27510  0.67720  Biso   1.000  C
  C117     1.0000 0.61690  0.77100  0.38790  Biso   1.000  C
  C118     1.0000 0.59790  0.72490  0.32280  Biso   1.000  C
  C119     1.0000 0.61690  0.22900  0.84590  Biso   1.000  C
  C120     1.0000 0.59790  0.27510  0.87300  Biso   1.000  C
  C121     1.0000 0.61690  0.38790  0.77100  Biso   1.000  C
  C122     1.0000 0.59790  0.32280  0.72490  Biso   1.000  C
  C123     1.0000 0.61690  0.84590  0.22900  Biso   1.000  C
  C124     1.0000 0.59790  0.87300  0.27510  Biso   1.000  C
  C125     1.0000 0.38310  0.15410  0.77100  Biso   1.000  C
  C126     1.0000 0.40210  0.12700  0.72490  Biso   1.000  C
  C127     1.0000 0.38310  0.61210  0.22900  Biso   1.000  C
  C128     1.0000 0.40210  0.67720  0.27510  Biso   1.000  C
  C129     1.0000 0.15410  0.77100  0.38310  Biso   1.000  C
  C130     1.0000 0.12700  0.72490  0.40210  Biso   1.000  C
  C131     1.0000 0.61210  0.22900  0.38310  Biso   1.000  C
  C132     1.0000 0.67720  0.27510  0.40210  Biso   1.000  C
  C133     1.0000 0.38790  0.77100  0.61690  Biso   1.000  C
  C134     1.0000 0.32280  0.72490  0.59790  Biso   1.000  C
  C135     1.0000 0.84590  0.22900  0.61690  Biso   1.000  C
  C136     1.0000 0.87300  0.27510  0.59790  Biso   1.000  C
  C137     1.0000 0.22900  0.61690  0.84590  Biso   1.000  C
  C138     1.0000 0.27510  0.59790  0.87300  Biso   1.000  C
  C139     1.0000 0.77100  0.61690  0.38790  Biso   1.000  C
  C140     1.0000 0.72490  0.59790  0.32280  Biso   1.000  C
  C141     1.0000 0.22900  0.38310  0.61210  Biso   1.000  C
  C142     1.0000 0.27510  0.40210  0.67720  Biso   1.000  C
  C143     1.0000 0.77100  0.38310  0.15410  Biso   1.000  C
  C144     1.0000 0.72490  0.40210  0.12700  Biso   1.000  C
  C145     1.0000 0.64350  0.43750  0.08100  Biso   1.000  C
  C146     1.0000 0.35650  0.56250  0.91900  Biso   1.000  C
  C147     1.0000 0.64350  0.56250  0.20600  Biso   1.000  C
  C148     1.0000 0.35650  0.43750  0.79400  Biso   1.000  C
  C149     1.0000 0.20600  0.64350  0.56250  Biso   1.000  C
  C150     1.0000 0.79400  0.35650  0.43750  Biso   1.000  C
  C151     1.0000 0.08100  0.64350  0.43750  Biso   1.000  C
  C152     1.0000 0.91900  0.35650  0.56250  Biso   1.000  C
  C153     1.0000 0.56250  0.91900  0.35650  Biso   1.000  C
  C154     1.0000 0.43750  0.08100  0.64350  Biso   1.000  C
  C155     1.0000 0.43750  0.79400  0.35650  Biso   1.000  C
  C156     1.0000 0.56250  0.20600  0.64350  Biso   1.000  C
  C157     1.0000 0.56250  0.35650  0.91900  Biso   1.000  C
  C158     1.0000 0.43750  0.64350  0.08100  Biso   1.000  C
  C159     1.0000 0.43750  0.35650  0.79400  Biso   1.000  C
  C160     1.0000 0.56250  0.64350  0.20600  Biso   1.000  C
  C161     1.0000 0.35650  0.79400  0.43750  Biso   1.000  C
  C162     1.0000 0.64350  0.20600  0.56250  Biso   1.000  C
  C163     1.0000 0.35650  0.91900  0.56250  Biso   1.000  C
  C164     1.0000 0.64350  0.08100  0.43750  Biso   1.000  C
  C165     1.0000 0.08100  0.43750  0.64350  Biso   1.000  C
  C166     1.0000 0.91900  0.56250  0.35650  Biso   1.000  C
  C167     1.0000 0.20600  0.56250  0.64350  Biso   1.000  C
  C168     1.0000 0.79400  0.43750  0.35650  Biso   1.000  C
  C169     1.0000 0.54150  0.21210  0.00000  Biso   1.000  C
  C170     1.0000 0.59100  0.19580  0.00000  Biso   1.000  C
  C171     1.0000 0.21210  0.54150  0.00000  Biso   1.000  C
  C172     1.0000 0.19580  0.59100  0.00000  Biso   1.000  C
  C173     1.0000 0.78790  0.78790  0.32940  Biso   1.000  C
  C174     1.0000 0.80420  0.80420  0.39520  Biso   1.000  C
  C175     1.0000 0.45850  0.45850  0.67060  Biso   1.000  C
  C176     1.0000 0.40900  0.40900  0.60480  Biso   1.000  C
  C177     1.0000 0.32940  0.78790  0.78790  Biso   1.000  C
  C178     1.0000 0.39520  0.80420  0.80420  Biso   1.000  C
  C179     1.0000 0.67060  0.45850  0.45850  Biso   1.000  C
  C180     1.0000 0.60480  0.40900  0.40900  Biso   1.000  C
  C181     1.0000 0.00000  0.54150  0.21210  Biso   1.000  C
  C182     1.0000 0.00000  0.59100  0.19580  Biso   1.000  C
  C183     1.0000 0.00000  0.21210  0.54150  Biso   1.000  C
  C184     1.0000 0.00000  0.19580  0.59100  Biso   1.000  C
  C185     1.0000 0.54150  0.00000  0.21210  Biso   1.000  C
  C186     1.0000 0.59100  0.00000  0.19580  Biso   1.000  C
  C187     1.0000 0.21210  0.00000  0.54150  Biso   1.000  C
  C188     1.0000 0.19580  0.00000  0.59100  Biso   1.000  C
  C189     1.0000 0.45850  0.67060  0.45850  Biso   1.000  C
  C190     1.0000 0.40900  0.60480  0.40900  Biso   1.000  C
  C191     1.0000 0.78790  0.32940  0.78790  Biso   1.000  C
  C192     1.0000 0.80420  0.39520  0.80420  Biso   1.000  C
  C193     1.0000 0.78790  0.45850  0.00000  Biso   1.000  C
  C194     1.0000 0.80420  0.40900  0.00000  Biso   1.000  C
  C195     1.0000 0.45850  0.78790  0.00000  Biso   1.000  C
  C196     1.0000 0.40900  0.80420  0.00000  Biso   1.000  C
  C197     1.0000 0.21210  0.21210  0.67060  Biso   1.000  C
  C198     1.0000 0.19580  0.19580  0.60480  Biso   1.000  C
  C199     1.0000 0.54150  0.54150  0.32940  Biso   1.000  C
  C200     1.0000 0.59100  0.59100  0.39520  Biso   1.000  C
  C201     1.0000 0.21210  0.67060  0.21210  Biso   1.000  C
  C202     1.0000 0.19580  0.60480  0.19580  Biso   1.000  C
  C203     1.0000 0.54150  0.32940  0.54150  Biso   1.000  C
  C204     1.0000 0.59100  0.39520  0.59100  Biso   1.000  C
  C205     1.0000 0.45850  0.00000  0.78790  Biso   1.000  C
  C206     1.0000 0.40900  0.00000  0.80420  Biso   1.000  C
  C207     1.0000 0.78790  0.00000  0.45850  Biso   1.000  C
  C208     1.0000 0.80420  0.00000  0.40900  Biso   1.000  C
  C209     1.0000 1.00000  0.45850  0.78790  Biso   1.000  C
  C210     1.0000 1.00000  0.40900  0.80420  Biso   1.000  C
  C211     1.0000 0.00000  0.78790  0.45850  Biso   1.000  C
  C212     1.0000 0.00000  0.80420  0.40900  Biso   1.000  C
  C213     1.0000 0.32940  0.54150  0.54150  Biso   1.000  C
  C214     1.0000 0.39520  0.59100  0.59100  Biso   1.000  C
  C215     1.0000 0.67060  0.21210  0.21210  Biso   1.000  C
  C216     1.0000 0.60480  0.19580  0.19580  Biso   1.000  C
  C217     1.0000 0.48980  0.16810  0.16810  Biso   1.000  C
  C218     1.0000 1.00000  0.32170  0.83190  Biso   1.000  C
  C219     1.0000 0.00000  0.83190  0.32170  Biso   1.000  C
  C220     1.0000 0.51020  0.67830  0.67830  Biso   1.000  C
  C221     1.0000 0.32170  0.00000  0.83190  Biso   1.000  C
  C222     1.0000 0.67830  0.51020  0.67830  Biso   1.000  C
  C223     1.0000 0.16810  0.48980  0.16810  Biso   1.000  C
  C224     1.0000 0.83190  0.00000  0.32170  Biso   1.000  C
  C225     1.0000 0.32170  0.83190  0.00000  Biso   1.000  C
  C226     1.0000 0.16810  0.16810  0.48980  Biso   1.000  C
  C227     1.0000 0.67830  0.67830  0.51020  Biso   1.000  C
  C228     1.0000 0.83190  0.32170  0.00000  Biso   1.000  C
  C229     1.0000 0.83190  0.51020  0.83190  Biso   1.000  C
  C230     1.0000 0.67830  0.00000  0.16810  Biso   1.000  C
  C231     1.0000 0.16810  0.00000  0.67830  Biso   1.000  C
  C232     1.0000 0.32170  0.48980  0.32170  Biso   1.000  C
  C233     1.0000 0.00000  0.67830  0.16810  Biso   1.000  C
  C234     1.0000 0.48980  0.32170  0.32170  Biso   1.000  C
  C235     1.0000 0.51020  0.83190  0.83190  Biso   1.000  C
  C236     1.0000 1.00000  0.16810  0.67830  Biso   1.000  C
  C237     1.0000 0.16810  0.67830  0.00000  Biso   1.000  C
  C238     1.0000 0.83190  0.83190  0.51020  Biso   1.000  C
  C239     1.0000 0.32170  0.32170  0.48980  Biso   1.000  C
  C240     1.0000 0.67830  0.16810  0.00000  Biso   1.000  C
  N1       1.0000 0.66690  0.37100  0.11630  Biso   1.000  N
  N2       1.0000 0.57690  0.21730  0.16260  Biso   1.000  N
  N3       1.0000 0.25470  0.55060  0.88370  Biso   1.000  N
  N4       1.0000 0.05470  0.41430  0.83740  Biso   1.000  N
  N5       1.0000 0.74530  0.62900  0.29590  Biso   1.000  N
  N6       1.0000 0.94530  0.78270  0.35960  Biso   1.000  N
  N7       1.0000 0.33310  0.44940  0.70410  Biso   1.000  N
  N8       1.0000 0.42310  0.58570  0.64040  Biso   1.000  N
  N9       1.0000 0.29590  0.74530  0.62900  Biso   1.000  N
  N10      1.0000 0.35960  0.94530  0.78270  Biso   1.000  N
  N11      1.0000 0.70410  0.33310  0.44940  Biso   1.000  N
  N12      1.0000 0.64040  0.42310  0.58570  Biso   1.000  N
  N13      1.0000 0.11630  0.66690  0.37100  Biso   1.000  N
  N14      1.0000 0.16260  0.57690  0.21730  Biso   1.000  N
  N15      1.0000 0.88370  0.25470  0.55060  Biso   1.000  N
  N16      1.0000 0.83740  0.05470  0.41430  Biso   1.000  N
  N17      1.0000 0.55060  0.88370  0.25470  Biso   1.000  N
  N18      1.0000 0.41430  0.83740  0.05470  Biso   1.000  N
  N19      1.0000 0.37100  0.11630  0.66690  Biso   1.000  N
  N20      1.0000 0.21730  0.16260  0.57690  Biso   1.000  N
  N21      1.0000 0.44940  0.70410  0.33310  Biso   1.000  N
  N22      1.0000 0.58570  0.64040  0.42310  Biso   1.000  N
  N23      1.0000 0.62900  0.29590  0.74530  Biso   1.000  N
  N24      1.0000 0.78270  0.35960  0.94530  Biso   1.000  N
  N25      1.0000 0.62900  0.33310  0.88370  Biso   1.000  N
  N26      1.0000 0.78270  0.42310  0.83740  Biso   1.000  N
  N27      1.0000 0.44940  0.74530  0.11630  Biso   1.000  N
  N28      1.0000 0.58570  0.94530  0.16260  Biso   1.000  N
  N29      1.0000 0.37100  0.25470  0.70410  Biso   1.000  N
  N30      1.0000 0.21730  0.05470  0.64040  Biso   1.000  N
  N31      1.0000 0.55060  0.66690  0.29590  Biso   1.000  N
  N32      1.0000 0.41430  0.57690  0.35960  Biso   1.000  N
  N33      1.0000 0.25470  0.70410  0.37100  Biso   1.000  N
  N34      1.0000 0.05470  0.64040  0.21730  Biso   1.000  N
  N35      1.0000 0.66690  0.29590  0.55060  Biso   1.000  N
  N36      1.0000 0.57690  0.35960  0.41430  Biso   1.000  N
  N37      1.0000 0.33310  0.88370  0.62900  Biso   1.000  N
  N38      1.0000 0.42310  0.83740  0.78270  Biso   1.000  N
  N39      1.0000 0.74530  0.11630  0.44940  Biso   1.000  N
  N40      1.0000 0.94530  0.16260  0.58570  Biso   1.000  N
  N41      1.0000 0.11630  0.44940  0.74530  Biso   1.000  N
  N42      1.0000 0.16260  0.58570  0.94530  Biso   1.000  N
  N43      1.0000 0.88370  0.62900  0.33310  Biso   1.000  N
  N44      1.0000 0.83740  0.78270  0.42310  Biso   1.000  N
  N45      1.0000 0.29590  0.55060  0.66690  Biso   1.000  N
  N46      1.0000 0.35960  0.41430  0.57690  Biso   1.000  N
  N47      1.0000 0.70410  0.37100  0.25470  Biso   1.000  N
  N48      1.0000 0.64040  0.21730  0.05470  Biso   1.000  N
  N49      1.0000 0.33310  0.62900  0.88370  Biso   1.000  N
  N50      1.0000 0.42310  0.78270  0.83740  Biso   1.000  N
  N51      1.0000 0.74530  0.44940  0.11630  Biso   1.000  N
  N52      1.0000 0.94530  0.58570  0.16260  Biso   1.000  N
  N53      1.0000 0.25470  0.37100  0.70410  Biso   1.000  N
  N54      1.0000 0.05470  0.21730  0.64040  Biso   1.000  N
  N55      1.0000 0.66690  0.55060  0.29590  Biso   1.000  N
  N56      1.0000 0.57690  0.41430  0.35960  Biso   1.000  N
  N57      1.0000 0.70410  0.25470  0.37100  Biso   1.000  N
  N58      1.0000 0.64040  0.05470  0.21730  Biso   1.000  N
  N59      1.0000 0.29590  0.66690  0.55060  Biso   1.000  N
  N60      1.0000 0.35960  0.57690  0.41430  Biso   1.000  N
  N61      1.0000 0.88370  0.33310  0.62900  Biso   1.000  N
  N62      1.0000 0.83740  0.42310  0.78270  Biso   1.000  N
  N63      1.0000 0.11630  0.74530  0.44940  Biso   1.000  N
  N64      1.0000 0.16260  0.94530  0.58570  Biso   1.000  N
  N65      1.0000 0.44940  0.11630  0.74530  Biso   1.000  N
  N66      1.0000 0.58570  0.16260  0.94530  Biso   1.000  N
  N67      1.0000 0.62900  0.88370  0.33310  Biso   1.000  N
  N68      1.0000 0.78270  0.83740  0.42310  Biso   1.000  N
  N69      1.0000 0.55060  0.29590  0.66690  Biso   1.000  N
  N70      1.0000 0.41430  0.35960  0.57690  Biso   1.000  N
  N71      1.0000 0.37100  0.70410  0.25470  Biso   1.000  N
  N72      1.0000 0.21730  0.64040  0.05470  Biso   1.000  N
  N73      1.0000 0.37100  0.66690  0.11630  Biso   1.000  N
  N74      1.0000 0.21730  0.57690  0.16260  Biso   1.000  N
  N75      1.0000 0.55060  0.25470  0.88370  Biso   1.000  N
  N76      1.0000 0.41430  0.05470  0.83740  Biso   1.000  N
  N77      1.0000 0.62900  0.74530  0.29590  Biso   1.000  N
  N78      1.0000 0.78270  0.94530  0.35960  Biso   1.000  N
  N79      1.0000 0.44940  0.33310  0.70410  Biso   1.000  N
  N80      1.0000 0.58570  0.42310  0.64040  Biso   1.000  N
  N81      1.0000 0.74530  0.29590  0.62900  Biso   1.000  N
  N82      1.0000 0.94530  0.35960  0.78270  Biso   1.000  N
  N83      1.0000 0.33310  0.70410  0.44940  Biso   1.000  N
  N84      1.0000 0.42310  0.64040  0.58570  Biso   1.000  N
  N85      1.0000 0.66690  0.11630  0.37100  Biso   1.000  N
  N86      1.0000 0.57690  0.16260  0.21730  Biso   1.000  N
  N87      1.0000 0.25470  0.88370  0.55060  Biso   1.000  N
  N88      1.0000 0.05470  0.83740  0.41430  Biso   1.000  N
  N89      1.0000 0.88370  0.55060  0.25470  Biso   1.000  N
  N90      1.0000 0.83740  0.41430  0.05470  Biso   1.000  N
  N91      1.0000 0.11630  0.37100  0.66690  Biso   1.000  N
  N92      1.0000 0.16260  0.21730  0.57690  Biso   1.000  N
  N93      1.0000 0.70410  0.44940  0.33310  Biso   1.000  N
  N94      1.0000 0.64040  0.58570  0.42310  Biso   1.000  N
  N95      1.0000 0.29590  0.62900  0.74530  Biso   1.000  N
  N96      1.0000 0.35960  0.78270  0.94530  Biso   1.000  N
  O1       1.0000 0.58740  0.33890  0.17510  Biso   1.000  O
  O2       1.0000 0.54700  0.24330  0.05170  Biso   1.000  O
  O3       1.0000 0.16380  0.41230  0.82490  Biso   1.000  O
  O4       1.0000 0.19160  0.49530  0.94830  Biso   1.000  O
  O5       1.0000 0.83620  0.66110  0.24850  Biso   1.000  O
  O6       1.0000 0.80840  0.75670  0.30370  Biso   1.000  O
  O7       1.0000 0.41260  0.58770  0.75150  Biso   1.000  O
  O8       1.0000 0.45300  0.50470  0.69630  Biso   1.000  O
  O9       1.0000 0.24850  0.83620  0.66110  Biso   1.000  O
  O10      1.0000 0.30370  0.80840  0.75670  Biso   1.000  O
  O11      1.0000 0.75150  0.41260  0.58770  Biso   1.000  O
  O12      1.0000 0.69630  0.45300  0.50470  Biso   1.000  O
  O13      1.0000 0.17510  0.58740  0.33890  Biso   1.000  O
  O14      1.0000 0.05170  0.54700  0.24330  Biso   1.000  O
  O15      1.0000 0.82490  0.16380  0.41230  Biso   1.000  O
  O16      1.0000 0.94830  0.19160  0.49530  Biso   1.000  O
  O17      1.0000 0.41230  0.82490  0.16380  Biso   1.000  O
  O18      1.0000 0.49530  0.94830  0.19160  Biso   1.000  O
  O19      1.0000 0.33890  0.17510  0.58740  Biso   1.000  O
  O20      1.0000 0.24330  0.05170  0.54700  Biso   1.000  O
  O21      1.0000 0.58770  0.75150  0.41260  Biso   1.000  O
  O22      1.0000 0.50470  0.69630  0.45300  Biso   1.000  O
  O23      1.0000 0.66110  0.24850  0.83620  Biso   1.000  O
  O24      1.0000 0.75670  0.30370  0.80840  Biso   1.000  O
  O25      1.0000 0.66110  0.41260  0.82490  Biso   1.000  O
  O26      1.0000 0.75670  0.45300  0.94830  Biso   1.000  O
  O27      1.0000 0.58770  0.83620  0.17510  Biso   1.000  O
  O28      1.0000 0.50470  0.80840  0.05170  Biso   1.000  O
  O29      1.0000 0.33890  0.16380  0.75150  Biso   1.000  O
  O30      1.0000 0.24330  0.19160  0.69630  Biso   1.000  O
  O31      1.0000 0.41230  0.58740  0.24850  Biso   1.000  O
  O32      1.0000 0.49530  0.54700  0.30370  Biso   1.000  O
  O33      1.0000 0.16380  0.75150  0.33890  Biso   1.000  O
  O34      1.0000 0.19160  0.69630  0.24330  Biso   1.000  O
  O35      1.0000 0.58740  0.24850  0.41230  Biso   1.000  O
  O36      1.0000 0.54700  0.30370  0.49530  Biso   1.000  O
  O37      1.0000 0.41260  0.82490  0.66110  Biso   1.000  O
  O38      1.0000 0.45300  0.94830  0.75670  Biso   1.000  O
  O39      1.0000 0.83620  0.17510  0.58770  Biso   1.000  O
  O40      1.0000 0.80840  0.05170  0.50470  Biso   1.000  O
  O41      1.0000 0.17510  0.58770  0.83620  Biso   1.000  O
  O42      1.0000 0.05170  0.50470  0.80840  Biso   1.000  O
  O43      1.0000 0.82490  0.66110  0.41260  Biso   1.000  O
  O44      1.0000 0.94830  0.75670  0.45300  Biso   1.000  O
  O45      1.0000 0.24850  0.41230  0.58740  Biso   1.000  O
  O46      1.0000 0.30370  0.49530  0.54700  Biso   1.000  O
  O47      1.0000 0.75150  0.33890  0.16380  Biso   1.000  O
  O48      1.0000 0.69630  0.24330  0.19160  Biso   1.000  O
  O49      1.0000 0.41260  0.66110  0.82490  Biso   1.000  O
  O50      1.0000 0.45300  0.75670  0.94830  Biso   1.000  O
  O51      1.0000 0.83620  0.58770  0.17510  Biso   1.000  O
  O52      1.0000 0.80840  0.50470  0.05170  Biso   1.000  O
  O53      1.0000 0.16380  0.33890  0.75150  Biso   1.000  O
  O54      1.0000 0.19160  0.24330  0.69630  Biso   1.000  O
  O55      1.0000 0.58740  0.41230  0.24850  Biso   1.000  O
  O56      1.0000 0.54700  0.49530  0.30370  Biso   1.000  O
  O57      1.0000 0.75150  0.16380  0.33890  Biso   1.000  O
  O58      1.0000 0.69630  0.19160  0.24330  Biso   1.000  O
  O59      1.0000 0.24850  0.58740  0.41230  Biso   1.000  O
  O60      1.0000 0.30370  0.54700  0.49530  Biso   1.000  O
  O61      1.0000 0.82490  0.41260  0.66110  Biso   1.000  O
  O62      1.0000 0.94830  0.45300  0.75670  Biso   1.000  O
  O63      1.0000 0.17510  0.83620  0.58770  Biso   1.000  O
  O64      1.0000 0.05170  0.80840  0.50470  Biso   1.000  O
  O65      1.0000 0.58770  0.17510  0.83620  Biso   1.000  O
  O66      1.0000 0.50470  0.05170  0.80840  Biso   1.000  O
  O67      1.0000 0.66110  0.82490  0.41260  Biso   1.000  O
  O68      1.0000 0.75670  0.94830  0.45300  Biso   1.000  O
  O69      1.0000 0.41230  0.24850  0.58740  Biso   1.000  O
  O70      1.0000 0.49530  0.30370  0.54700  Biso   1.000  O
  O71      1.0000 0.33890  0.75150  0.16380  Biso   1.000  O
  O72      1.0000 0.24330  0.69630  0.19160  Biso   1.000  O
  O73      1.0000 0.33890  0.58740  0.17510  Biso   1.000  O
  O74      1.0000 0.24330  0.54700  0.05170  Biso   1.000  O
  O75      1.0000 0.41230  0.16380  0.82490  Biso   1.000  O
  O76      1.0000 0.49530  0.19160  0.94830  Biso   1.000  O
  O77      1.0000 0.66110  0.83620  0.24850  Biso   1.000  O
  O78      1.0000 0.75670  0.80840  0.30370  Biso   1.000  O
  O79      1.0000 0.58770  0.41260  0.75150  Biso   1.000  O
  O80      1.0000 0.50470  0.45300  0.69630  Biso   1.000  O
  O81      1.0000 0.83620  0.24850  0.66110  Biso   1.000  O
  O82      1.0000 0.80840  0.30370  0.75670  Biso   1.000  O
  O83      1.0000 0.41260  0.75150  0.58770  Biso   1.000  O
  O84      1.0000 0.45300  0.69630  0.50470  Biso   1.000  O
  O85      1.0000 0.58740  0.17510  0.33890  Biso   1.000  O
  O86      1.0000 0.54700  0.05170  0.24330  Biso   1.000  O
  O87      1.0000 0.16380  0.82490  0.41230  Biso   1.000  O
  O88      1.0000 0.19160  0.94830  0.49530  Biso   1.000  O
  O89      1.0000 0.82490  0.41230  0.16380  Biso   1.000  O
  O90      1.0000 0.94830  0.49530  0.19160  Biso   1.000  O
  O91      1.0000 0.17510  0.33890  0.58740  Biso   1.000  O
  O92      1.0000 0.05170  0.24330  0.54700  Biso   1.000  O
  O93      1.0000 0.75150  0.58770  0.41260  Biso   1.000  O
  O94      1.0000 0.69630  0.50470  0.45300  Biso   1.000  O
  O95      1.0000 0.24850  0.66110  0.83620  Biso   1.000  O
  O96      1.0000 0.30370  0.75670  0.80840  Biso   1.000  O
